MODEL        1
REMARK 921   NORMALIZED FREE ENERGY PREDICTED BY IDOCK:   -6.62 KCAL/MOL
REMARK 922        TOTAL FREE ENERGY PREDICTED BY IDOCK:  -15.33 KCAL/MOL
REMARK 923 INTER-LIGAND FREE ENERGY PREDICTED BY IDOCK:  -12.04 KCAL/MOL
REMARK 924 INTRA-LIGAND FREE ENERGY PREDICTED BY IDOCK:   -3.29 KCAL/MOL
REMARK 927      BINDING AFFINITY PREDICTED BY RF-SCORE:    0.00 PKD
ROOT
HETATM    1  C   UNL     1     -10.779  18.409  67.441  1.00  0.00    -0.397 C  
HETATM    2  C   UNL     1      -9.444  19.147  67.422  1.00  0.00    -0.305 C  
HETATM    3  C   UNL     1      -9.649  20.628  67.132  1.00  0.00    -0.534 C  
ENDROOT
BRANCH   2   4
HETATM    4  O   UNL     1      -8.820  19.041  68.714  1.00  0.00    -0.349 OA 
BRANCH   4   5
HETATM    5  C   UNL     1      -7.482  18.773  68.692  1.00  0.00    -0.313 C  
HETATM    6  O   UNL     1      -6.601  19.535  69.070  1.00  0.00    -0.288 OA 
BRANCH   5   7
HETATM    7  C   UNL     1      -7.248  17.403  68.109  1.00  0.00    -0.199 C  
BRANCH   7   8
HETATM    8  C   UNL     1      -7.804  16.317  69.031  1.00  0.00    -0.235 C  
BRANCH   8   9
HETATM    9  C   UNL     1      -8.789  15.383  68.333  1.00  0.00    -0.177 C  
BRANCH   9  10
HETATM   10  C   UNL     1      -8.570  15.326  66.848  1.00  0.00    -0.289 C  
HETATM   11  C   UNL     1      -9.503  15.101  65.907  1.00  0.00    -0.334 C  
BRANCH  11  12
HETATM   12  C   UNL     1     -10.972  14.882  66.133  1.00  0.00    -0.334 C  
BRANCH  12  13
HETATM   13  C   UNL     1     -11.515  13.496  65.748  1.00  0.00    -0.331 C  
HETATM   14  C   UNL     1     -12.498  13.600  64.567  1.00  0.00    -0.287 C  
HETATM   15  C   UNL     1     -12.640  12.161  64.107  1.00  0.00    -0.466 C  
HETATM   16  O   UNL     1     -11.946  14.353  63.486  1.00  0.00    -0.812 OA 
HETATM   17  C   UNL     1     -11.212  11.629  64.175  1.00  0.00    -0.345 C  
HETATM   18  H   UNL     1     -12.553  14.417  62.758  1.00  0.00     0.000 HD 
HETATM   19  C   UNL     1     -10.464  12.476  65.240  1.00  0.00    -0.313 C  
HETATM   20  O   UNL     1     -10.566  11.795  62.915  1.00  0.00    -0.662 OA 
HETATM   21  H   UNL     1      -9.677  11.464  62.958  1.00  0.00     0.000 HD 
BRANCH  19  22
HETATM   22  C   UNL     1      -9.893  11.586  66.360  1.00  0.00    -0.233 C  
BRANCH  22  23
HETATM   23  C   UNL     1     -11.010  11.093  67.285  1.00  0.00    -0.354 C  
BRANCH  23  24
HETATM   24  C   UNL     1     -10.666  11.140  68.778  1.00  0.00    -0.199 C  
HETATM   25  O   UNL     1      -9.470  11.893  68.980  1.00  0.00    -0.406 OA 
HETATM   26  H   UNL     1      -9.256  11.923  69.905  1.00  0.00     0.000 HD 
BRANCH  24  27
HETATM   27  C   UNL     1     -11.776  11.825  69.588  1.00  0.00    -0.413 C  
BRANCH  27  28
HETATM   28  C   UNL     1     -11.826  13.337  69.369  1.00  0.00    -0.386 C  
BRANCH  28  29
HETATM   29  C   UNL     1     -12.151  14.086  70.633  1.00  0.00    -0.424 A  
HETATM   30  C   UNL     1     -11.603  15.356  70.857  1.00  0.00    -0.396 A  
HETATM   31  C   UNL     1     -11.904  16.058  72.023  1.00  0.00    -0.623 A  
HETATM   32  C   UNL     1     -12.749  15.494  72.976  1.00  0.00    -0.563 A  
HETATM   33  C   UNL     1     -13.291  14.226  72.766  1.00  0.00    -0.621 A  
HETATM   34  C   UNL     1     -12.992  13.523  71.598  1.00  0.00    -0.447 A  
ENDBRANCH  28  29
ENDBRANCH  27  28
ENDBRANCH  24  27
ENDBRANCH  23  24
ENDBRANCH  22  23
ENDBRANCH  19  22
ENDBRANCH  12  13
ENDBRANCH  11  12
ENDBRANCH   9  10
ENDBRANCH   8   9
ENDBRANCH   7   8
ENDBRANCH   5   7
ENDBRANCH   4   5
ENDBRANCH   2   4
TORSDOF 14
ENDMDL
MODEL        2
REMARK 921   NORMALIZED FREE ENERGY PREDICTED BY IDOCK:   -6.51 KCAL/MOL
REMARK 922        TOTAL FREE ENERGY PREDICTED BY IDOCK:  -15.13 KCAL/MOL
REMARK 923 INTER-LIGAND FREE ENERGY PREDICTED BY IDOCK:  -12.41 KCAL/MOL
REMARK 924 INTRA-LIGAND FREE ENERGY PREDICTED BY IDOCK:   -2.72 KCAL/MOL
REMARK 927      BINDING AFFINITY PREDICTED BY RF-SCORE:    0.00 PKD
ROOT
HETATM    1  C   UNL     1      -6.657  17.816  67.147  1.00  0.00    -0.191 C  
HETATM    2  C   UNL     1      -6.815  19.015  66.219  1.00  0.00    -0.219 C  
HETATM    3  C   UNL     1      -5.902  18.883  65.007  1.00  0.00    -0.301 C  
ENDROOT
BRANCH   2   4
HETATM    4  O   UNL     1      -8.170  19.073  65.737  1.00  0.00    -0.449 OA 
BRANCH   4   5
HETATM    5  C   UNL     1      -9.038  19.767  66.529  1.00  0.00    -0.376 C  
HETATM    6  O   UNL     1      -8.722  20.630  67.339  1.00  0.00    -0.330 OA 
BRANCH   5   7
HETATM    7  C   UNL     1     -10.446  19.294  66.275  1.00  0.00    -0.567 C  
BRANCH   7   8
HETATM    8  C   UNL     1     -10.512  17.766  66.252  1.00  0.00    -0.307 C  
BRANCH   8   9
HETATM    9  C   UNL     1     -10.618  17.149  67.644  1.00  0.00    -0.343 C  
BRANCH   9  10
HETATM   10  C   UNL     1      -9.999  15.782  67.713  1.00  0.00    -0.227 C  
HETATM   11  C   UNL     1     -10.586  14.617  67.387  1.00  0.00    -0.265 C  
BRANCH  11  12
HETATM   12  C   UNL     1     -11.980  14.431  66.859  1.00  0.00    -0.425 C  
BRANCH  12  13
HETATM   13  C   UNL     1     -12.148  13.373  65.756  1.00  0.00    -0.481 C  
HETATM   14  C   UNL     1     -12.260  14.037  64.370  1.00  0.00    -0.426 C  
HETATM   15  C   UNL     1     -12.058  12.877  63.414  1.00  0.00    -0.610 C  
HETATM   16  O   UNL     1     -11.208  14.976  64.149  1.00  0.00    -0.620 OA 
HETATM   17  C   UNL     1     -10.922  12.088  64.055  1.00  0.00    -0.381 C  
HETATM   18  H   UNL     1     -11.277  15.386  63.295  1.00  0.00     0.000 HD 
HETATM   19  C   UNL     1     -10.964  12.388  65.577  1.00  0.00    -0.328 C  
HETATM   20  O   UNL     1      -9.668  12.522  63.533  1.00  0.00    -0.661 OA 
HETATM   21  H   UNL     1      -8.960  12.031  63.933  1.00  0.00     0.000 HD 
BRANCH  19  22
HETATM   22  C   UNL     1     -11.125  11.094  66.397  1.00  0.00    -0.204 C  
BRANCH  22  23
HETATM   23  C   UNL     1     -10.146  11.073  67.575  1.00  0.00    -0.208 C  
BRANCH  23  24
HETATM   24  C   UNL     1     -10.701  10.430  68.851  1.00  0.00    -0.224 C  
HETATM   25  O   UNL     1      -9.791  10.627  69.933  1.00  0.00    -0.423 OA 
HETATM   26  H   UNL     1     -10.135  10.229  70.724  1.00  0.00     0.000 HD 
BRANCH  24  27
HETATM   27  C   UNL     1     -12.039  11.064  69.261  1.00  0.00    -0.363 C  
BRANCH  27  28
HETATM   28  C   UNL     1     -12.134  11.332  70.764  1.00  0.00    -0.450 C  
BRANCH  28  29
HETATM   29  C   UNL     1     -12.630  12.721  71.064  1.00  0.00    -0.362 A  
HETATM   30  C   UNL     1     -13.558  12.927  72.094  1.00  0.00    -0.589 A  
HETATM   31  C   UNL     1     -14.018  14.211  72.381  1.00  0.00    -0.613 A  
HETATM   32  C   UNL     1     -13.559  15.297  71.640  1.00  0.00    -0.586 A  
HETATM   33  C   UNL     1     -12.642  15.100  70.607  1.00  0.00    -0.450 A  
HETATM   34  C   UNL     1     -12.180  13.815  70.318  1.00  0.00    -0.429 A  
ENDBRANCH  28  29
ENDBRANCH  27  28
ENDBRANCH  24  27
ENDBRANCH  23  24
ENDBRANCH  22  23
ENDBRANCH  19  22
ENDBRANCH  12  13
ENDBRANCH  11  12
ENDBRANCH   9  10
ENDBRANCH   8   9
ENDBRANCH   7   8
ENDBRANCH   5   7
ENDBRANCH   4   5
ENDBRANCH   2   4
TORSDOF 14
ENDMDL
MODEL        3
REMARK 921   NORMALIZED FREE ENERGY PREDICTED BY IDOCK:   -6.50 KCAL/MOL
REMARK 922        TOTAL FREE ENERGY PREDICTED BY IDOCK:  -15.12 KCAL/MOL
REMARK 923 INTER-LIGAND FREE ENERGY PREDICTED BY IDOCK:  -12.43 KCAL/MOL
REMARK 924 INTRA-LIGAND FREE ENERGY PREDICTED BY IDOCK:   -2.69 KCAL/MOL
REMARK 927      BINDING AFFINITY PREDICTED BY RF-SCORE:    0.00 PKD
ROOT
HETATM    1  C   UNL     1      -6.457  18.142  68.217  1.00  0.00    -0.196 C  
HETATM    2  C   UNL     1      -7.085  19.374  68.859  1.00  0.00    -0.358 C  
HETATM    3  C   UNL     1      -6.163  19.961  69.919  1.00  0.00    -0.388 C  
ENDROOT
BRANCH   2   4
HETATM    4  O   UNL     1      -7.291  20.385  67.855  1.00  0.00    -0.292 OA 
BRANCH   4   5
HETATM    5  C   UNL     1      -8.292  20.123  66.965  1.00  0.00    -0.328 C  
HETATM    6  O   UNL     1      -8.138  19.908  65.769  1.00  0.00    -0.335 OA 
BRANCH   5   7
HETATM    7  C   UNL     1      -9.622  20.162  67.672  1.00  0.00    -0.534 C  
BRANCH   7   8
HETATM    8  C   UNL     1     -10.647  19.283  66.953  1.00  0.00    -0.557 C  
BRANCH   8   9
HETATM    9  C   UNL     1     -10.854  17.929  67.626  1.00  0.00    -0.243 C  
BRANCH   9  10
HETATM   10  C   UNL     1      -9.719  16.980  67.366  1.00  0.00    -0.252 C  
HETATM   11  C   UNL     1      -9.679  16.011  66.435  1.00  0.00    -0.307 C  
BRANCH  11  12
HETATM   12  C   UNL     1     -10.751  15.682  65.436  1.00  0.00    -0.424 C  
BRANCH  12  13
HETATM   13  C   UNL     1     -11.395  14.291  65.569  1.00  0.00    -0.325 C  
HETATM   14  C   UNL     1     -12.636  14.171  64.666  1.00  0.00    -0.258 C  
HETATM   15  C   UNL     1     -12.910  12.679  64.650  1.00  0.00    -0.361 C  
HETATM   16  O   UNL     1     -12.355  14.580  63.327  1.00  0.00    -1.033 OA 
HETATM   17  C   UNL     1     -11.518  12.070  64.522  1.00  0.00    -0.319 C  
HETATM   18  H   UNL     1     -13.121  14.506  62.770  1.00  0.00     0.000 HD 
HETATM   19  C   UNL     1     -10.517  13.095  65.119  1.00  0.00    -0.339 C  
HETATM   20  O   UNL     1     -11.199  11.859  63.148  1.00  0.00    -0.659 OA 
HETATM   21  H   UNL     1     -10.332  11.479  63.068  1.00  0.00     0.000 HD 
BRANCH  19  22
HETATM   22  C   UNL     1      -9.703  12.475  66.270  1.00  0.00    -0.259 C  
BRANCH  22  23
HETATM   23  C   UNL     1     -10.628  11.820  67.299  1.00  0.00    -0.259 C  
BRANCH  23  24
HETATM   24  C   UNL     1     -10.536  12.419  68.708  1.00  0.00    -0.183 C  
HETATM   25  O   UNL     1      -9.495  13.395  68.757  1.00  0.00    -0.394 OA 
HETATM   26  H   UNL     1      -9.439  13.766  69.630  1.00  0.00     0.000 HD 
BRANCH  24  27
HETATM   27  C   UNL     1     -11.841  13.127  69.101  1.00  0.00    -0.364 C  
BRANCH  27  28
HETATM   28  C   UNL     1     -11.638  14.606  69.434  1.00  0.00    -0.342 C  
BRANCH  28  29
HETATM   29  C   UNL     1     -12.255  14.982  70.754  1.00  0.00    -0.386 A  
HETATM   30  C   UNL     1     -13.649  15.033  70.888  1.00  0.00    -0.363 A  
HETATM   31  C   UNL     1     -14.228  15.376  72.109  1.00  0.00    -0.660 A  
HETATM   32  C   UNL     1     -13.418  15.677  73.203  1.00  0.00    -0.620 A  
HETATM   33  C   UNL     1     -12.030  15.639  73.075  1.00  0.00    -0.590 A  
HETATM   34  C   UNL     1     -11.449  15.295  71.853  1.00  0.00    -0.504 A  
ENDBRANCH  28  29
ENDBRANCH  27  28
ENDBRANCH  24  27
ENDBRANCH  23  24
ENDBRANCH  22  23
ENDBRANCH  19  22
ENDBRANCH  12  13
ENDBRANCH  11  12
ENDBRANCH   9  10
ENDBRANCH   8   9
ENDBRANCH   7   8
ENDBRANCH   5   7
ENDBRANCH   4   5
ENDBRANCH   2   4
TORSDOF 14
ENDMDL
MODEL        4
REMARK 921   NORMALIZED FREE ENERGY PREDICTED BY IDOCK:   -6.45 KCAL/MOL
REMARK 922        TOTAL FREE ENERGY PREDICTED BY IDOCK:  -15.02 KCAL/MOL
REMARK 923 INTER-LIGAND FREE ENERGY PREDICTED BY IDOCK:  -12.34 KCAL/MOL
REMARK 924 INTRA-LIGAND FREE ENERGY PREDICTED BY IDOCK:   -2.68 KCAL/MOL
REMARK 927      BINDING AFFINITY PREDICTED BY RF-SCORE:    0.00 PKD
ROOT
HETATM    1  C   UNL     1     -11.793   6.846  71.099  1.00  0.00    -0.395 C  
HETATM    2  C   UNL     1     -11.601   7.722  72.332  1.00  0.00    -0.356 C  
HETATM    3  C   UNL     1     -10.517   7.152  73.237  1.00  0.00    -0.391 C  
ENDROOT
BRANCH   2   4
HETATM    4  O   UNL     1     -11.178   9.036  71.924  1.00  0.00    -0.354 OA 
BRANCH   4   5
HETATM    5  C   UNL     1     -12.120   9.771  71.265  1.00  0.00    -0.382 C  
HETATM    6  O   UNL     1     -13.264   9.969  71.656  1.00  0.00    -0.383 OA 
BRANCH   5   7
HETATM    7  C   UNL     1     -11.549  10.285  69.969  1.00  0.00    -0.349 C  
BRANCH   7   8
HETATM    8  C   UNL     1     -10.054   9.974  69.872  1.00  0.00    -0.289 C  
BRANCH   8   9
HETATM    9  C   UNL     1      -9.473  10.245  68.486  1.00  0.00    -0.158 C  
BRANCH   9  10
HETATM   10  C   UNL     1     -10.166   9.456  67.411  1.00  0.00    -0.298 C  
HETATM   11  C   UNL     1     -10.156   9.717  66.093  1.00  0.00    -0.328 C  
BRANCH  11  12
HETATM   12  C   UNL     1      -9.431  10.837  65.404  1.00  0.00    -0.258 C  
BRANCH  12  13
HETATM   13  C   UNL     1     -10.266  12.091  65.093  1.00  0.00    -0.308 C  
HETATM   14  C   UNL     1     -10.536  12.211  63.582  1.00  0.00    -0.461 C  
HETATM   15  C   UNL     1     -11.633  13.256  63.508  1.00  0.00    -0.301 C  
HETATM   16  O   UNL     1     -11.052  10.995  63.041  1.00  0.00    -0.782 OA 
HETATM   17  C   UNL     1     -12.556  12.876  64.661  1.00  0.00    -0.391 C  
HETATM   18  H   UNL     1     -11.218  11.068  62.108  1.00  0.00     0.000 HD 
HETATM   19  C   UNL     1     -11.689  12.125  65.707  1.00  0.00    -0.391 C  
HETATM   20  O   UNL     1     -13.584  12.002  64.200  1.00  0.00    -0.519 OA 
HETATM   21  H   UNL     1     -14.159  11.766  64.918  1.00  0.00     0.000 HD 
BRANCH  19  22
HETATM   22  C   UNL     1     -11.740  12.823  67.079  1.00  0.00    -0.440 C  
BRANCH  22  23
HETATM   23  C   UNL     1     -11.981  14.326  66.915  1.00  0.00    -0.467 C  
BRANCH  23  24
HETATM   24  C   UNL     1     -10.811  15.210  67.363  1.00  0.00    -0.302 C  
HETATM   25  O   UNL     1     -10.415  16.073  66.297  1.00  0.00    -0.307 OA 
HETATM   26  H   UNL     1      -9.690  16.621  66.574  1.00  0.00     0.000 HD 
BRANCH  24  27
HETATM   27  C   UNL     1     -11.207  16.105  68.547  1.00  0.00    -0.365 C  
BRANCH  27  28
HETATM   28  C   UNL     1     -10.567  15.665  69.865  1.00  0.00    -0.328 C  
BRANCH  28  29
HETATM   29  C   UNL     1     -11.593  15.282  70.896  1.00  0.00    -0.382 A  
HETATM   30  C   UNL     1     -12.228  14.035  70.825  1.00  0.00    -0.438 A  
HETATM   31  C   UNL     1     -13.176  13.671  71.780  1.00  0.00    -0.477 A  
HETATM   32  C   UNL     1     -13.501  14.552  72.809  1.00  0.00    -0.575 A  
HETATM   33  C   UNL     1     -12.881  15.799  72.882  1.00  0.00    -0.583 A  
HETATM   34  C   UNL     1     -11.932  16.165  71.927  1.00  0.00    -0.583 A  
ENDBRANCH  28  29
ENDBRANCH  27  28
ENDBRANCH  24  27
ENDBRANCH  23  24
ENDBRANCH  22  23
ENDBRANCH  19  22
ENDBRANCH  12  13
ENDBRANCH  11  12
ENDBRANCH   9  10
ENDBRANCH   8   9
ENDBRANCH   7   8
ENDBRANCH   5   7
ENDBRANCH   4   5
ENDBRANCH   2   4
TORSDOF 14
ENDMDL
MODEL        5
REMARK 921   NORMALIZED FREE ENERGY PREDICTED BY IDOCK:   -6.42 KCAL/MOL
REMARK 922        TOTAL FREE ENERGY PREDICTED BY IDOCK:  -14.97 KCAL/MOL
REMARK 923 INTER-LIGAND FREE ENERGY PREDICTED BY IDOCK:  -12.33 KCAL/MOL
REMARK 924 INTRA-LIGAND FREE ENERGY PREDICTED BY IDOCK:   -2.64 KCAL/MOL
REMARK 927      BINDING AFFINITY PREDICTED BY RF-SCORE:    0.00 PKD
ROOT
HETATM    1  C   UNL     1      -9.666  18.054  68.014  1.00  0.00    -0.309 C  
HETATM    2  C   UNL     1     -10.503  18.159  66.745  1.00  0.00    -0.348 C  
HETATM    3  C   UNL     1     -10.580  19.603  66.266  1.00  0.00    -0.585 C  
ENDROOT
BRANCH   2   4
HETATM    4  O   UNL     1      -9.886  17.388  65.698  1.00  0.00    -0.544 OA 
BRANCH   4   5
HETATM    5  C   UNL     1     -10.684  16.439  65.129  1.00  0.00    -0.291 C  
HETATM    6  O   UNL     1     -11.409  16.614  64.157  1.00  0.00    -1.141 OA 
BRANCH   5   7
HETATM    7  C   UNL     1     -10.558  15.145  65.891  1.00  0.00    -0.347 C  
BRANCH   7   8
HETATM    8  C   UNL     1     -11.930  14.650  66.355  1.00  0.00    -0.274 C  
BRANCH   8   9
HETATM    9  C   UNL     1     -12.139  13.156  66.124  1.00  0.00    -0.479 C  
BRANCH   9  10
HETATM   10  C   UNL     1     -12.768  12.866  64.790  1.00  0.00    -0.442 C  
HETATM   11  C   UNL     1     -12.129  12.527  63.658  1.00  0.00    -0.642 C  
BRANCH  11  12
HETATM   12  C   UNL     1     -10.649  12.340  63.484  1.00  0.00    -0.488 C  
BRANCH  12  13
HETATM   13  C   UNL     1     -10.088  10.969  63.899  1.00  0.00    -0.414 C  
HETATM   14  C   UNL     1      -9.101  10.437  62.843  1.00  0.00    -0.277 C  
HETATM   15  C   UNL     1      -8.401   9.301  63.565  1.00  0.00    -0.185 C  
HETATM   16  O   UNL     1      -8.116  11.413  62.503  1.00  0.00    -0.498 OA 
HETATM   17  C   UNL     1      -8.163   9.868  64.960  1.00  0.00    -0.143 C  
HETATM   18  H   UNL     1      -7.508  11.085  61.851  1.00  0.00     0.000 HD 
HETATM   19  C   UNL     1      -9.251  10.948  65.203  1.00  0.00    -0.240 C  
HETATM   20  O   UNL     1      -6.877  10.483  65.027  1.00  0.00    -0.278 OA 
HETATM   21  H   UNL     1      -6.729  10.836  65.896  1.00  0.00     0.000 HD 
BRANCH  19  22
HETATM   22  C   UNL     1     -10.088  10.626  66.455  1.00  0.00    -0.279 C  
BRANCH  22  23
HETATM   23  C   UNL     1      -9.229   9.938  67.520  1.00  0.00    -0.148 C  
BRANCH  23  24
HETATM   24  C   UNL     1      -9.736  10.116  68.956  1.00  0.00    -0.206 C  
HETATM   25  O   UNL     1      -8.631  10.255  69.850  1.00  0.00    -0.355 OA 
HETATM   26  H   UNL     1      -8.945  10.365  70.740  1.00  0.00     0.000 HD 
BRANCH  24  27
HETATM   27  C   UNL     1     -10.594  11.383  69.095  1.00  0.00    -0.196 C  
BRANCH  27  28
HETATM   28  C   UNL     1     -11.865  11.153  69.914  1.00  0.00    -0.439 C  
BRANCH  28  29
HETATM   29  C   UNL     1     -12.347  12.412  70.582  1.00  0.00    -0.367 A  
HETATM   30  C   UNL     1     -13.112  12.336  71.754  1.00  0.00    -0.449 A  
HETATM   31  C   UNL     1     -13.558  13.498  72.381  1.00  0.00    -0.709 A  
HETATM   32  C   UNL     1     -13.247  14.744  71.840  1.00  0.00    -0.436 A  
HETATM   33  C   UNL     1     -12.494  14.829  70.670  1.00  0.00    -0.407 A  
HETATM   34  C   UNL     1     -12.047  13.666  70.040  1.00  0.00    -0.417 A  
ENDBRANCH  28  29
ENDBRANCH  27  28
ENDBRANCH  24  27
ENDBRANCH  23  24
ENDBRANCH  22  23
ENDBRANCH  19  22
ENDBRANCH  12  13
ENDBRANCH  11  12
ENDBRANCH   9  10
ENDBRANCH   8   9
ENDBRANCH   7   8
ENDBRANCH   5   7
ENDBRANCH   4   5
ENDBRANCH   2   4
TORSDOF 14
ENDMDL
MODEL        6
REMARK 921   NORMALIZED FREE ENERGY PREDICTED BY IDOCK:   -6.38 KCAL/MOL
REMARK 922        TOTAL FREE ENERGY PREDICTED BY IDOCK:  -14.89 KCAL/MOL
REMARK 923 INTER-LIGAND FREE ENERGY PREDICTED BY IDOCK:  -11.74 KCAL/MOL
REMARK 924 INTRA-LIGAND FREE ENERGY PREDICTED BY IDOCK:   -3.15 KCAL/MOL
REMARK 927      BINDING AFFINITY PREDICTED BY RF-SCORE:    0.00 PKD
ROOT
HETATM    1  C   UNL     1     -10.244   6.654  71.878  1.00  0.00    -0.203 C  
HETATM    2  C   UNL     1     -11.089   7.508  70.939  1.00  0.00    -0.263 C  
HETATM    3  C   UNL     1     -10.900   7.070  69.493  1.00  0.00    -0.265 C  
ENDROOT
BRANCH   2   4
HETATM    4  O   UNL     1     -12.481   7.342  71.263  1.00  0.00    -0.337 OA 
BRANCH   4   5
HETATM    5  C   UNL     1     -13.138   8.489  71.605  1.00  0.00    -0.341 C  
HETATM    6  O   UNL     1     -14.338   8.576  71.831  1.00  0.00    -0.433 OA 
BRANCH   5   7
HETATM    7  C   UNL     1     -12.165   9.640  71.640  1.00  0.00    -0.484 C  
BRANCH   7   8
HETATM    8  C   UNL     1     -12.758  10.874  70.959  1.00  0.00    -0.505 C  
BRANCH   8   9
HETATM    9  C   UNL     1     -12.275  11.059  69.523  1.00  0.00    -0.352 C  
BRANCH   9  10
HETATM   10  C   UNL     1     -10.811  11.389  69.450  1.00  0.00    -0.214 C  
HETATM   11  C   UNL     1     -10.009  11.244  68.382  1.00  0.00    -0.201 C  
BRANCH  11  12
HETATM   12  C   UNL     1     -10.405  10.745  67.022  1.00  0.00    -0.275 C  
BRANCH  12  13
HETATM   13  C   UNL     1     -10.336  11.773  65.879  1.00  0.00    -0.280 C  
HETATM   14  C   UNL     1      -9.651  11.169  64.638  1.00  0.00    -0.250 C  
HETATM   15  C   UNL     1      -9.989  12.160  63.540  1.00  0.00    -0.341 C  
HETATM   16  O   UNL     1     -10.220   9.909  64.283  1.00  0.00    -0.404 OA 
HETATM   17  C   UNL     1     -11.452  12.496  63.811  1.00  0.00    -0.469 C  
HETATM   18  H   UNL     1      -9.798   9.537  63.518  1.00  0.00     0.000 HD 
HETATM   19  C   UNL     1     -11.699  12.259  65.324  1.00  0.00    -0.413 C  
HETATM   20  O   UNL     1     -12.301  11.628  63.062  1.00  0.00    -0.970 OA 
HETATM   21  H   UNL     1     -13.212  11.837  63.231  1.00  0.00     0.000 HD 
BRANCH  19  22
HETATM   22  C   UNL     1     -12.211  13.538  66.013  1.00  0.00    -0.493 C  
BRANCH  22  23
HETATM   23  C   UNL     1     -11.236  14.699  65.797  1.00  0.00    -0.336 C  
BRANCH  23  24
HETATM   24  C   UNL     1     -10.654  15.288  67.088  1.00  0.00    -0.302 C  
HETATM   25  O   UNL     1     -10.608  16.712  66.998  1.00  0.00    -0.311 OA 
HETATM   26  H   UNL     1     -10.248  17.077  67.797  1.00  0.00     0.000 HD 
BRANCH  24  27
HETATM   27  C   UNL     1     -11.523  14.938  68.305  1.00  0.00    -0.343 C  
BRANCH  27  28
HETATM   28  C   UNL     1     -10.867  15.317  69.633  1.00  0.00    -0.294 C  
BRANCH  28  29
HETATM   29  C   UNL     1     -11.794  15.124  70.802  1.00  0.00    -0.371 A  
HETATM   30  C   UNL     1     -11.334  15.348  72.107  1.00  0.00    -0.447 A  
HETATM   31  C   UNL     1     -12.189  15.176  73.195  1.00  0.00    -0.521 A  
HETATM   32  C   UNL     1     -13.507  14.774  72.988  1.00  0.00    -0.473 A  
HETATM   33  C   UNL     1     -13.970  14.539  71.693  1.00  0.00    -0.527 A  
HETATM   34  C   UNL     1     -13.115  14.712  70.603  1.00  0.00    -0.323 A  
ENDBRANCH  28  29
ENDBRANCH  27  28
ENDBRANCH  24  27
ENDBRANCH  23  24
ENDBRANCH  22  23
ENDBRANCH  19  22
ENDBRANCH  12  13
ENDBRANCH  11  12
ENDBRANCH   9  10
ENDBRANCH   8   9
ENDBRANCH   7   8
ENDBRANCH   5   7
ENDBRANCH   4   5
ENDBRANCH   2   4
TORSDOF 14
ENDMDL
MODEL        7
REMARK 921   NORMALIZED FREE ENERGY PREDICTED BY IDOCK:   -6.27 KCAL/MOL
REMARK 922        TOTAL FREE ENERGY PREDICTED BY IDOCK:  -14.69 KCAL/MOL
REMARK 923 INTER-LIGAND FREE ENERGY PREDICTED BY IDOCK:  -11.94 KCAL/MOL
REMARK 924 INTRA-LIGAND FREE ENERGY PREDICTED BY IDOCK:   -2.75 KCAL/MOL
REMARK 927      BINDING AFFINITY PREDICTED BY RF-SCORE:    0.00 PKD
ROOT
HETATM    1  C   UNL     1     -13.798   9.049  72.160  1.00  0.00    -0.526 C  
HETATM    2  C   UNL     1     -12.529   9.433  71.408  1.00  0.00    -0.352 C  
HETATM    3  C   UNL     1     -12.547  10.909  71.034  1.00  0.00    -0.517 C  
ENDROOT
BRANCH   2   4
HETATM    4  O   UNL     1     -11.385   9.215  72.255  1.00  0.00    -0.263 OA 
BRANCH   4   5
HETATM    5  C   UNL     1     -10.984   7.915  72.365  1.00  0.00    -0.325 C  
HETATM    6  O   UNL     1     -10.892   7.289  73.413  1.00  0.00    -0.374 OA 
BRANCH   5   7
HETATM    7  C   UNL     1     -10.647   7.371  71.000  1.00  0.00    -0.234 C  
BRANCH   7   8
HETATM    8  C   UNL     1      -9.394   8.045  70.439  1.00  0.00    -0.158 C  
BRANCH   8   9
HETATM    9  C   UNL     1      -9.632   8.737  69.100  1.00  0.00    -0.162 C  
BRANCH   9  10
HETATM   10  C   UNL     1      -9.419  10.222  69.178  1.00  0.00    -0.225 C  
HETATM   11  C   UNL     1      -9.911  11.149  68.338  1.00  0.00    -0.193 C  
BRANCH  11  12
HETATM   12  C   UNL     1     -10.802  10.904  67.154  1.00  0.00    -0.337 C  
BRANCH  12  13
HETATM   13  C   UNL     1     -10.625  11.865  65.965  1.00  0.00    -0.304 C  
HETATM   14  C   UNL     1      -9.822  11.197  64.834  1.00  0.00    -0.266 C  
HETATM   15  C   UNL     1     -10.054  12.120  63.653  1.00  0.00    -0.410 C  
HETATM   16  O   UNL     1     -10.351   9.914  64.498  1.00  0.00    -0.317 OA 
HETATM   17  C   UNL     1     -11.537  12.460  63.760  1.00  0.00    -0.473 C  
HETATM   18  H   UNL     1      -9.856   9.502  63.800  1.00  0.00     0.000 HD 
HETATM   19  C   UNL     1     -11.929  12.308  65.254  1.00  0.00    -0.391 C  
HETATM   20  O   UNL     1     -12.307  11.544  62.985  1.00  0.00    -0.975 OA 
HETATM   21  H   UNL     1     -13.231  11.756  63.052  1.00  0.00     0.000 HD 
BRANCH  19  22
HETATM   22  C   UNL     1     -12.508  13.621  65.815  1.00  0.00    -0.524 C  
BRANCH  22  23
HETATM   23  C   UNL     1     -11.424  14.699  65.904  1.00  0.00    -0.338 C  
BRANCH  23  24
HETATM   24  C   UNL     1     -10.912  14.969  67.324  1.00  0.00    -0.326 C  
HETATM   25  O   UNL     1     -10.843  16.376  67.559  1.00  0.00    -0.315 OA 
HETATM   26  H   UNL     1     -10.526  16.544  68.438  1.00  0.00     0.000 HD 
BRANCH  24  27
HETATM   27  C   UNL     1     -11.855  14.378  68.382  1.00  0.00    -0.354 C  
BRANCH  27  28
HETATM   28  C   UNL     1     -11.201  14.253  69.758  1.00  0.00    -0.230 C  
BRANCH  28  29
HETATM   29  C   UNL     1     -12.070  14.807  70.854  1.00  0.00    -0.387 A  
HETATM   30  C   UNL     1     -13.466  14.726  70.753  1.00  0.00    -0.233 A  
HETATM   31  C   UNL     1     -14.277  15.232  71.767  1.00  0.00    -0.669 A  
HETATM   32  C   UNL     1     -13.701  15.829  72.886  1.00  0.00    -0.631 A  
HETATM   33  C   UNL     1     -12.313  15.923  72.991  1.00  0.00    -0.605 A  
HETATM   34  C   UNL     1     -11.500  15.416  71.977  1.00  0.00    -0.521 A  
ENDBRANCH  28  29
ENDBRANCH  27  28
ENDBRANCH  24  27
ENDBRANCH  23  24
ENDBRANCH  22  23
ENDBRANCH  19  22
ENDBRANCH  12  13
ENDBRANCH  11  12
ENDBRANCH   9  10
ENDBRANCH   8   9
ENDBRANCH   7   8
ENDBRANCH   5   7
ENDBRANCH   4   5
ENDBRANCH   2   4
TORSDOF 14
ENDMDL
MODEL        8
REMARK 921   NORMALIZED FREE ENERGY PREDICTED BY IDOCK:   -6.14 KCAL/MOL
REMARK 922        TOTAL FREE ENERGY PREDICTED BY IDOCK:  -14.46 KCAL/MOL
REMARK 923 INTER-LIGAND FREE ENERGY PREDICTED BY IDOCK:  -11.53 KCAL/MOL
REMARK 924 INTRA-LIGAND FREE ENERGY PREDICTED BY IDOCK:   -2.93 KCAL/MOL
REMARK 927      BINDING AFFINITY PREDICTED BY RF-SCORE:    0.00 PKD
ROOT
HETATM    1  C   UNL     1     -12.241  12.908  63.376  1.00  0.00    -0.574 C  
HETATM    2  C   UNL     1     -11.240  12.493  64.448  1.00  0.00    -0.339 C  
HETATM    3  C   UNL     1     -10.588  11.163  64.093  1.00  0.00    -0.436 C  
ENDROOT
BRANCH   2   4
HETATM    4  O   UNL     1     -10.194  13.479  64.533  1.00  0.00    -0.396 OA 
BRANCH   4   5
HETATM    5  C   UNL     1     -10.479  14.561  65.313  1.00  0.00    -0.390 C  
HETATM    6  O   UNL     1     -10.351  15.731  64.974  1.00  0.00    -0.468 OA 
BRANCH   5   7
HETATM    7  C   UNL     1     -10.956  14.101  66.666  1.00  0.00    -0.303 C  
BRANCH   7   8
HETATM    8  C   UNL     1      -9.773  13.821  67.595  1.00  0.00    -0.227 C  
BRANCH   8   9
HETATM    9  C   UNL     1      -9.702  12.368  68.056  1.00  0.00    -0.210 C  
BRANCH   9  10
HETATM   10  C   UNL     1     -10.986  11.627  67.812  1.00  0.00    -0.287 C  
HETATM   11  C   UNL     1     -11.192  10.307  67.963  1.00  0.00    -0.303 C  
BRANCH  11  12
HETATM   12  C   UNL     1     -10.192   9.290  68.433  1.00  0.00    -0.231 C  
BRANCH  12  13
HETATM   13  C   UNL     1     -10.735   8.184  69.353  1.00  0.00    -0.164 C  
HETATM   14  C   UNL     1     -10.635   6.805  68.674  1.00  0.00    -0.227 C  
HETATM   15  C   UNL     1     -10.863   5.837  69.820  1.00  0.00    -0.419 C  
HETATM   16  O   UNL     1      -9.326   6.568  68.153  1.00  0.00    -0.113 OA 
HETATM   17  C   UNL     1     -10.058   6.450  70.961  1.00  0.00    -0.182 C  
HETATM   18  H   UNL     1      -9.265   5.718  67.734  1.00  0.00     0.000 HD 
HETATM   19  C   UNL     1      -9.968   7.975  70.684  1.00  0.00    -0.198 C  
HETATM   20  O   UNL     1      -8.740   5.905  70.980  1.00  0.00    -0.132 OA 
HETATM   21  H   UNL     1      -8.239   6.287  71.691  1.00  0.00     0.000 HD 
BRANCH  19  22
HETATM   22  C   UNL     1     -10.551   8.790  71.853  1.00  0.00    -0.425 C  
BRANCH  22  23
HETATM   23  C   UNL     1     -11.857   8.166  72.352  1.00  0.00    -0.448 C  
BRANCH  23  24
HETATM   24  C   UNL     1     -13.116   8.978  72.024  1.00  0.00    -0.414 C  
HETATM   25  O   UNL     1     -13.951   9.073  73.178  1.00  0.00    -1.130 OA 
HETATM   26  H   UNL     1     -14.730   9.577  72.975  1.00  0.00     0.000 HD 
BRANCH  24  27
HETATM   27  C   UNL     1     -12.762  10.412  71.600  1.00  0.00    -0.560 C  
BRANCH  27  28
HETATM   28  C   UNL     1     -13.625  11.467  72.292  1.00  0.00     0.052 C  
BRANCH  28  29
HETATM   29  C   UNL     1     -13.266  12.865  71.868  1.00  0.00    -0.521 A  
HETATM   30  C   UNL     1     -13.913  13.963  72.450  1.00  0.00    -0.633 A  
HETATM   31  C   UNL     1     -13.582  15.261  72.066  1.00  0.00    -0.571 A  
HETATM   32  C   UNL     1     -12.606  15.471  71.094  1.00  0.00    -0.509 A  
HETATM   33  C   UNL     1     -11.964  14.384  70.502  1.00  0.00    -0.395 A  
HETATM   34  C   UNL     1     -12.294  13.084  70.887  1.00  0.00    -0.376 A  
ENDBRANCH  28  29
ENDBRANCH  27  28
ENDBRANCH  24  27
ENDBRANCH  23  24
ENDBRANCH  22  23
ENDBRANCH  19  22
ENDBRANCH  12  13
ENDBRANCH  11  12
ENDBRANCH   9  10
ENDBRANCH   8   9
ENDBRANCH   7   8
ENDBRANCH   5   7
ENDBRANCH   4   5
ENDBRANCH   2   4
TORSDOF 14
ENDMDL
MODEL        9
REMARK 921   NORMALIZED FREE ENERGY PREDICTED BY IDOCK:   -6.14 KCAL/MOL
REMARK 922        TOTAL FREE ENERGY PREDICTED BY IDOCK:  -14.45 KCAL/MOL
REMARK 923 INTER-LIGAND FREE ENERGY PREDICTED BY IDOCK:  -11.93 KCAL/MOL
REMARK 924 INTRA-LIGAND FREE ENERGY PREDICTED BY IDOCK:   -2.53 KCAL/MOL
REMARK 927      BINDING AFFINITY PREDICTED BY RF-SCORE:    0.00 PKD
ROOT
HETATM    1  C   UNL     1      -8.108  19.521  68.428  1.00  0.00    -0.377 C  
HETATM    2  C   UNL     1      -8.449  19.254  66.966  1.00  0.00    -0.284 C  
HETATM    3  C   UNL     1      -7.255  19.552  66.069  1.00  0.00    -0.301 C  
ENDROOT
BRANCH   2   4
HETATM    4  O   UNL     1      -8.782  17.864  66.798  1.00  0.00    -0.239 OA 
BRANCH   4   5
HETATM    5  C   UNL     1     -10.001  17.623  66.234  1.00  0.00    -0.318 C  
HETATM    6  O   UNL     1     -10.560  18.348  65.420  1.00  0.00    -0.595 OA 
BRANCH   5   7
HETATM    7  C   UNL     1     -10.569  16.339  66.782  1.00  0.00    -0.257 C  
BRANCH   7   8
HETATM    8  C   UNL     1     -10.346  15.184  65.804  1.00  0.00    -0.359 C  
BRANCH   8   9
HETATM    9  C   UNL     1     -11.485  15.017  64.802  1.00  0.00    -0.403 C  
BRANCH   9  10
HETATM   10  C   UNL     1     -12.402  13.882  65.162  1.00  0.00    -0.471 C  
HETATM   11  C   UNL     1     -12.349  12.626  64.688  1.00  0.00    -0.546 C  
BRANCH  11  12
HETATM   12  C   UNL     1     -11.347  12.075  63.714  1.00  0.00    -0.526 C  
BRANCH  12  13
HETATM   13  C   UNL     1     -10.507  10.886  64.210  1.00  0.00    -0.405 C  
HETATM   14  C   UNL     1      -9.483  10.454  63.143  1.00  0.00    -0.327 C  
HETATM   15  C   UNL     1      -8.540   9.551  63.914  1.00  0.00    -0.226 C  
HETATM   16  O   UNL     1      -8.729  11.564  62.657  1.00  0.00    -0.576 OA 
HETATM   17  C   UNL     1      -8.355  10.287  65.237  1.00  0.00    -0.163 C  
HETATM   18  H   UNL     1      -8.097  11.298  61.998  1.00  0.00     0.000 HD 
HETATM   19  C   UNL     1      -9.623  11.154  65.454  1.00  0.00    -0.266 C  
HETATM   20  O   UNL     1      -7.215  11.142  65.167  1.00  0.00    -0.264 OA 
HETATM   21  H   UNL     1      -7.100  11.600  65.992  1.00  0.00     0.000 HD 
BRANCH  19  22
HETATM   22  C   UNL     1     -10.321  10.800  66.780  1.00  0.00    -0.294 C  
BRANCH  22  23
HETATM   23  C   UNL     1     -10.307  11.995  67.738  1.00  0.00    -0.210 C  
BRANCH  23  24
HETATM   24  C   UNL     1     -11.552  12.114  68.625  1.00  0.00    -0.321 C  
HETATM   25  O   UNL     1     -11.266  11.625  69.936  1.00  0.00    -0.457 OA 
HETATM   26  H   UNL     1     -12.037  11.699  70.486  1.00  0.00     0.000 HD 
BRANCH  24  27
HETATM   27  C   UNL     1     -11.996  13.577  68.774  1.00  0.00    -0.374 C  
BRANCH  27  28
HETATM   28  C   UNL     1     -11.180  14.344  69.815  1.00  0.00    -0.251 C  
BRANCH  28  29
HETATM   29  C   UNL     1     -12.032  14.847  70.949  1.00  0.00    -0.374 A  
HETATM   30  C   UNL     1     -13.423  14.686  70.906  1.00  0.00    -0.293 A  
HETATM   31  C   UNL     1     -14.218  15.146  71.955  1.00  0.00    -0.673 A  
HETATM   32  C   UNL     1     -13.630  15.773  73.051  1.00  0.00    -0.638 A  
HETATM   33  C   UNL     1     -12.247  15.946  73.097  1.00  0.00    -0.622 A  
HETATM   34  C   UNL     1     -11.450  15.486  72.048  1.00  0.00    -0.515 A  
ENDBRANCH  28  29
ENDBRANCH  27  28
ENDBRANCH  24  27
ENDBRANCH  23  24
ENDBRANCH  22  23
ENDBRANCH  19  22
ENDBRANCH  12  13
ENDBRANCH  11  12
ENDBRANCH   9  10
ENDBRANCH   8   9
ENDBRANCH   7   8
ENDBRANCH   5   7
ENDBRANCH   4   5
ENDBRANCH   2   4
TORSDOF 14
ENDMDL
MODEL       10
REMARK 921   NORMALIZED FREE ENERGY PREDICTED BY IDOCK:   -6.08 KCAL/MOL
REMARK 922        TOTAL FREE ENERGY PREDICTED BY IDOCK:  -14.35 KCAL/MOL
REMARK 923 INTER-LIGAND FREE ENERGY PREDICTED BY IDOCK:  -11.68 KCAL/MOL
REMARK 924 INTRA-LIGAND FREE ENERGY PREDICTED BY IDOCK:   -2.66 KCAL/MOL
REMARK 927      BINDING AFFINITY PREDICTED BY RF-SCORE:    0.00 PKD
ROOT
HETATM    1  C   UNL     1     -14.293   8.444  71.922  1.00  0.00    -0.561 C  
HETATM    2  C   UNL     1     -13.031   9.215  71.550  1.00  0.00    -0.346 C  
HETATM    3  C   UNL     1     -13.162  10.683  71.933  1.00  0.00    -0.528 C  
ENDROOT
BRANCH   2   4
HETATM    4  O   UNL     1     -11.910   8.677  72.276  1.00  0.00    -0.367 OA 
BRANCH   4   5
HETATM    5  C   UNL     1     -10.725   8.685  71.600  1.00  0.00    -0.303 C  
HETATM    6  O   UNL     1      -9.646   9.026  72.068  1.00  0.00    -0.306 OA 
BRANCH   5   7
HETATM    7  C   UNL     1     -10.947   8.232  70.180  1.00  0.00    -0.222 C  
BRANCH   7   8
HETATM    8  C   UNL     1     -10.222   9.152  69.195  1.00  0.00    -0.215 C  
BRANCH   8   9
HETATM    9  C   UNL     1     -10.127   8.569  67.787  1.00  0.00    -0.266 C  
BRANCH   9  10
HETATM   10  C   UNL     1      -8.826   8.908  67.115  1.00  0.00    -0.133 C  
HETATM   11  C   UNL     1      -8.672   9.487  65.912  1.00  0.00    -0.168 C  
BRANCH  11  12
HETATM   12  C   UNL     1      -9.765   9.945  64.990  1.00  0.00    -0.359 C  
BRANCH  12  13
HETATM   13  C   UNL     1     -10.149  11.432  65.083  1.00  0.00    -0.319 C  
HETATM   14  C   UNL     1     -10.498  11.998  63.694  1.00  0.00    -0.454 C  
HETATM   15  C   UNL     1     -11.178  13.315  64.018  1.00  0.00    -0.374 C  
HETATM   16  O   UNL     1     -11.442  11.173  63.011  1.00  0.00    -0.812 OA 
HETATM   17  C   UNL     1     -12.066  12.967  65.208  1.00  0.00    -0.453 C  
HETATM   18  H   UNL     1     -11.658  11.522  62.154  1.00  0.00     0.000 HD 
HETATM   19  C   UNL     1     -11.414  11.752  65.919  1.00  0.00    -0.273 C  
HETATM   20  O   UNL     1     -13.367  12.595  64.756  1.00  0.00    -0.787 OA 
HETATM   21  H   UNL     1     -13.920  12.379  65.498  1.00  0.00     0.000 HD 
BRANCH  19  22
HETATM   22  C   UNL     1     -11.101  12.070  67.393  1.00  0.00    -0.337 C  
BRANCH  22  23
HETATM   23  C   UNL     1      -9.686  12.636  67.538  1.00  0.00    -0.196 C  
BRANCH  23  24
HETATM   24  C   UNL     1      -9.624  14.051  68.125  1.00  0.00    -0.220 C  
HETATM   25  O   UNL     1      -8.542  14.150  69.051  1.00  0.00    -0.350 OA 
HETATM   26  H   UNL     1      -8.503  15.026  69.414  1.00  0.00     0.000 HD 
BRANCH  24  27
HETATM   27  C   UNL     1      -9.381  15.101  67.030  1.00  0.00    -0.244 C  
BRANCH  27  28
HETATM   28  C   UNL     1     -10.610  15.968  66.755  1.00  0.00    -0.297 C  
BRANCH  28  29
HETATM   29  C   UNL     1     -10.388  17.408  67.133  1.00  0.00    -0.325 A  
HETATM   30  C   UNL     1     -10.455  18.409  66.155  1.00  0.00    -0.422 A  
HETATM   31  C   UNL     1     -10.255  19.745  66.499  1.00  0.00    -0.606 A  
HETATM   32  C   UNL     1      -9.982  20.090  67.821  1.00  0.00    -0.560 A  
HETATM   33  C   UNL     1      -9.904  19.099  68.799  1.00  0.00    -0.502 A  
HETATM   34  C   UNL     1     -10.104  17.761  68.456  1.00  0.00    -0.377 A  
ENDBRANCH  28  29
ENDBRANCH  27  28
ENDBRANCH  24  27
ENDBRANCH  23  24
ENDBRANCH  22  23
ENDBRANCH  19  22
ENDBRANCH  12  13
ENDBRANCH  11  12
ENDBRANCH   9  10
ENDBRANCH   8   9
ENDBRANCH   7   8
ENDBRANCH   5   7
ENDBRANCH   4   5
ENDBRANCH   2   4
TORSDOF 14
ENDMDL
MODEL       11
REMARK 921   NORMALIZED FREE ENERGY PREDICTED BY IDOCK:   -6.06 KCAL/MOL
REMARK 922        TOTAL FREE ENERGY PREDICTED BY IDOCK:  -14.32 KCAL/MOL
REMARK 923 INTER-LIGAND FREE ENERGY PREDICTED BY IDOCK:  -11.85 KCAL/MOL
REMARK 924 INTRA-LIGAND FREE ENERGY PREDICTED BY IDOCK:   -2.47 KCAL/MOL
REMARK 927      BINDING AFFINITY PREDICTED BY RF-SCORE:    0.00 PKD
ROOT
HETATM    1  C   UNL     1     -10.837  15.791  65.190  1.00  0.00    -0.444 C  
HETATM    2  C   UNL     1     -11.351  14.361  65.308  1.00  0.00    -0.346 C  
HETATM    3  C   UNL     1     -12.286  14.219  66.502  1.00  0.00    -0.419 C  
ENDROOT
BRANCH   2   4
HETATM    4  O   UNL     1     -12.103  14.023  64.127  1.00  0.00    -0.463 OA 
BRANCH   4   5
HETATM    5  C   UNL     1     -11.999  12.724  63.725  1.00  0.00    -0.510 C  
HETATM    6  O   UNL     1     -12.934  12.013  63.377  1.00  0.00    -0.772 OA 
BRANCH   5   7
HETATM    7  C   UNL     1     -10.559  12.284  63.794  1.00  0.00    -0.488 C  
BRANCH   7   8
HETATM    8  C   UNL     1     -10.445  10.888  64.410  1.00  0.00    -0.403 C  
BRANCH   8   9
HETATM    9  C   UNL     1     -10.524  10.896  65.934  1.00  0.00    -0.285 C  
BRANCH   9  10
HETATM   10  C   UNL     1      -9.414  11.691  66.561  1.00  0.00    -0.219 C  
HETATM   11  C   UNL     1      -9.147  11.800  67.873  1.00  0.00    -0.181 C  
BRANCH  11  12
HETATM   12  C   UNL     1      -9.883  11.130  68.998  1.00  0.00    -0.132 C  
BRANCH  12  13
HETATM   13  C   UNL     1      -9.392   9.725  69.386  1.00  0.00    -0.212 C  
HETATM   14  C   UNL     1      -7.854   9.684  69.467  1.00  0.00    -0.117 C  
HETATM   15  C   UNL     1      -7.580   8.378  70.189  1.00  0.00    -0.070 C  
HETATM   16  O   UNL     1      -7.340  10.746  70.272  1.00  0.00    -0.452 OA 
HETATM   17  C   UNL     1      -8.640   8.356  71.285  1.00  0.00    -0.161 C  
HETATM   18  H   UNL     1      -6.392  10.721  70.322  1.00  0.00     0.000 HD 
HETATM   19  C   UNL     1      -9.829   9.218  70.783  1.00  0.00    -0.350 C  
HETATM   20  O   UNL     1      -8.122   8.935  72.481  1.00  0.00    -0.381 OA 
HETATM   21  H   UNL     1      -8.782   8.921  73.164  1.00  0.00     0.000 HD 
BRANCH  19  22
HETATM   22  C   UNL     1     -11.135   8.402  70.749  1.00  0.00    -0.286 C  
BRANCH  22  23
HETATM   23  C   UNL     1     -11.996   8.702  71.980  1.00  0.00    -0.442 C  
BRANCH  23  24
HETATM   24  C   UNL     1     -13.347   9.356  71.667  1.00  0.00    -0.404 C  
HETATM   25  O   UNL     1     -14.142   9.425  72.850  1.00  0.00    -0.874 OA 
HETATM   26  H   UNL     1     -14.979   9.831  72.657  1.00  0.00     0.000 HD 
BRANCH  24  27
HETATM   27  C   UNL     1     -13.168  10.793  71.155  1.00  0.00    -0.266 C  
BRANCH  27  28
HETATM   28  C   UNL     1     -13.529  11.846  72.203  1.00  0.00    -0.300 C  
BRANCH  28  29
HETATM   29  C   UNL     1     -13.194  13.241  71.747  1.00  0.00    -0.495 A  
HETATM   30  C   UNL     1     -13.696  14.347  72.446  1.00  0.00    -0.590 A  
HETATM   31  C   UNL     1     -13.386  15.642  72.033  1.00  0.00    -0.543 A  
HETATM   32  C   UNL     1     -12.578  15.841  70.916  1.00  0.00    -0.437 A  
HETATM   33  C   UNL     1     -12.082  14.746  70.209  1.00  0.00    -0.380 A  
HETATM   34  C   UNL     1     -12.391  13.449  70.622  1.00  0.00    -0.423 A  
ENDBRANCH  28  29
ENDBRANCH  27  28
ENDBRANCH  24  27
ENDBRANCH  23  24
ENDBRANCH  22  23
ENDBRANCH  19  22
ENDBRANCH  12  13
ENDBRANCH  11  12
ENDBRANCH   9  10
ENDBRANCH   8   9
ENDBRANCH   7   8
ENDBRANCH   5   7
ENDBRANCH   4   5
ENDBRANCH   2   4
TORSDOF 14
ENDMDL
MODEL       12
REMARK 921   NORMALIZED FREE ENERGY PREDICTED BY IDOCK:   -6.00 KCAL/MOL
REMARK 922        TOTAL FREE ENERGY PREDICTED BY IDOCK:  -14.21 KCAL/MOL
REMARK 923 INTER-LIGAND FREE ENERGY PREDICTED BY IDOCK:  -11.49 KCAL/MOL
REMARK 924 INTRA-LIGAND FREE ENERGY PREDICTED BY IDOCK:   -2.72 KCAL/MOL
REMARK 927      BINDING AFFINITY PREDICTED BY RF-SCORE:    0.00 PKD
ROOT
HETATM    1  C   UNL     1     -10.615   7.054  70.900  1.00  0.00    -0.238 C  
HETATM    2  C   UNL     1     -11.298   7.669  72.117  1.00  0.00    -0.293 C  
HETATM    3  C   UNL     1     -10.537   7.330  73.392  1.00  0.00    -0.435 C  
ENDROOT
BRANCH   2   4
HETATM    4  O   UNL     1     -11.308   9.103  71.987  1.00  0.00    -0.366 OA 
BRANCH   4   5
HETATM    5  C   UNL     1     -12.545   9.665  71.857  1.00  0.00    -0.396 C  
HETATM    6  O   UNL     1     -13.505   9.437  72.582  1.00  0.00    -0.413 OA 
BRANCH   5   7
HETATM    7  C   UNL     1     -12.558  10.593  70.669  1.00  0.00    -0.454 C  
BRANCH   7   8
HETATM    8  C   UNL     1     -11.167  10.693  70.041  1.00  0.00    -0.382 C  
BRANCH   8   9
HETATM    9  C   UNL     1     -11.198  11.145  68.583  1.00  0.00    -0.314 C  
BRANCH   9  10
HETATM   10  C   UNL     1      -9.823  11.393  68.031  1.00  0.00    -0.191 C  
HETATM   11  C   UNL     1      -9.468  11.404  66.735  1.00  0.00    -0.197 C  
BRANCH  11  12
HETATM   12  C   UNL     1     -10.373  11.196  65.555  1.00  0.00    -0.326 C  
BRANCH  12  13
HETATM   13  C   UNL     1     -10.652  12.438  64.691  1.00  0.00    -0.339 C  
HETATM   14  C   UNL     1     -11.799  12.170  63.698  1.00  0.00    -0.516 C  
HETATM   15  C   UNL     1     -12.164  13.559  63.209  1.00  0.00    -0.214 C  
HETATM   16  O   UNL     1     -12.943  11.620  64.351  1.00  0.00    -0.125 OA 
HETATM   17  C   UNL     1     -12.118  14.401  64.479  1.00  0.00    -0.481 C  
HETATM   18  H   UNL     1     -13.651  11.455  63.739  1.00  0.00     0.000 HD 
HETATM   19  C   UNL     1     -11.137  13.697  65.454  1.00  0.00    -0.304 C  
HETATM   20  O   UNL     1     -13.410  14.453  65.081  1.00  0.00    -0.542 OA 
HETATM   21  H   UNL     1     -13.381  14.977  65.872  1.00  0.00     0.000 HD 
BRANCH  19  22
HETATM   22  C   UNL     1      -9.987  14.637  65.864  1.00  0.00    -0.352 C  
BRANCH  22  23
HETATM   23  C   UNL     1     -10.522  15.846  66.636  1.00  0.00    -0.306 C  
BRANCH  23  24
HETATM   24  C   UNL     1      -9.796  16.129  67.956  1.00  0.00    -0.231 C  
HETATM   25  O   UNL     1     -10.207  17.393  68.478  1.00  0.00    -0.324 OA 
HETATM   26  H   UNL     1      -9.758  17.568  69.297  1.00  0.00     0.000 HD 
BRANCH  24  27
HETATM   27  C   UNL     1     -10.131  15.069  69.018  1.00  0.00    -0.241 C  
BRANCH  27  28
HETATM   28  C   UNL     1     -11.633  14.821  69.157  1.00  0.00    -0.330 C  
BRANCH  28  29
HETATM   29  C   UNL     1     -12.094  14.903  70.587  1.00  0.00    -0.366 A  
HETATM   30  C   UNL     1     -12.975  13.939  71.097  1.00  0.00    -0.388 A  
HETATM   31  C   UNL     1     -13.402  14.006  72.422  1.00  0.00    -0.617 A  
HETATM   32  C   UNL     1     -12.957  15.038  73.245  1.00  0.00    -0.642 A  
HETATM   33  C   UNL     1     -12.088  16.006  72.744  1.00  0.00    -0.635 A  
HETATM   34  C   UNL     1     -11.659  15.941  71.417  1.00  0.00    -0.529 A  
ENDBRANCH  28  29
ENDBRANCH  27  28
ENDBRANCH  24  27
ENDBRANCH  23  24
ENDBRANCH  22  23
ENDBRANCH  19  22
ENDBRANCH  12  13
ENDBRANCH  11  12
ENDBRANCH   9  10
ENDBRANCH   8   9
ENDBRANCH   7   8
ENDBRANCH   5   7
ENDBRANCH   4   5
ENDBRANCH   2   4
TORSDOF 14
ENDMDL
MODEL       13
REMARK 921   NORMALIZED FREE ENERGY PREDICTED BY IDOCK:   -5.99 KCAL/MOL
REMARK 922        TOTAL FREE ENERGY PREDICTED BY IDOCK:  -14.18 KCAL/MOL
REMARK 923 INTER-LIGAND FREE ENERGY PREDICTED BY IDOCK:  -11.99 KCAL/MOL
REMARK 924 INTRA-LIGAND FREE ENERGY PREDICTED BY IDOCK:   -2.19 KCAL/MOL
REMARK 927      BINDING AFFINITY PREDICTED BY RF-SCORE:    0.00 PKD
ROOT
HETATM    1  C   UNL     1      -6.381  18.286  68.717  1.00  0.00    -0.221 C  
HETATM    2  C   UNL     1      -7.143  19.558  69.072  1.00  0.00    -0.364 C  
HETATM    3  C   UNL     1      -6.548  20.217  70.309  1.00  0.00    -0.190 C  
ENDROOT
BRANCH   2   4
HETATM    4  O   UNL     1      -7.037  20.499  67.987  1.00  0.00    -0.291 OA 
BRANCH   4   5
HETATM    5  C   UNL     1      -7.925  20.311  66.968  1.00  0.00    -0.324 C  
HETATM    6  O   UNL     1      -7.626  20.068  65.805  1.00  0.00    -0.331 OA 
BRANCH   5   7
HETATM    7  C   UNL     1      -9.332  20.470  67.484  1.00  0.00    -0.482 C  
BRANCH   7   8
HETATM    8  C   UNL     1     -10.293  19.540  66.740  1.00  0.00    -0.570 C  
BRANCH   8   9
HETATM    9  C   UNL     1     -10.600  18.256  67.507  1.00  0.00    -0.432 C  
BRANCH   9  10
HETATM   10  C   UNL     1      -9.555  17.198  67.291  1.00  0.00    -0.245 C  
HETATM   11  C   UNL     1      -9.551  16.257  66.332  1.00  0.00    -0.316 C  
BRANCH  11  12
HETATM   12  C   UNL     1     -10.577  16.073  65.251  1.00  0.00    -0.424 C  
BRANCH  12  13
HETATM   13  C   UNL     1     -11.535  14.881  65.424  1.00  0.00    -0.320 C  
HETATM   14  C   UNL     1     -11.415  13.903  64.241  1.00  0.00    -0.318 C  
HETATM   15  C   UNL     1     -12.130  12.663  64.742  1.00  0.00    -0.495 C  
HETATM   16  O   UNL     1     -10.055  13.552  63.983  1.00  0.00    -0.749 OA 
HETATM   17  C   UNL     1     -11.656  12.546  66.187  1.00  0.00    -0.395 C  
HETATM   18  H   UNL     1      -9.981  12.949  63.253  1.00  0.00     0.000 HD 
HETATM   19  C   UNL     1     -11.271  13.975  66.654  1.00  0.00    -0.330 C  
HETATM   20  O   UNL     1     -10.503  11.710  66.259  1.00  0.00    -0.230 OA 
HETATM   21  H   UNL     1     -10.208  11.637  67.159  1.00  0.00     0.000 HD 
BRANCH  19  22
HETATM   22  C   UNL     1     -12.078  14.393  67.898  1.00  0.00    -0.280 C  
BRANCH  22  23
HETATM   23  C   UNL     1     -11.261  14.177  69.174  1.00  0.00    -0.307 C  
BRANCH  23  24
HETATM   24  C   UNL     1     -12.077  14.239  70.470  1.00  0.00    -0.343 C  
HETATM   25  O   UNL     1     -13.172  15.143  70.316  1.00  0.00    -0.648 OA 
HETATM   26  H   UNL     1     -13.678  15.181  71.118  1.00  0.00     0.000 HD 
BRANCH  24  27
HETATM   27  C   UNL     1     -12.669  12.867  70.826  1.00  0.00    -0.229 C  
BRANCH  27  28
HETATM   28  C   UNL     1     -11.988  11.715  70.086  1.00  0.00    -0.441 C  
BRANCH  28  29
HETATM   29  C   UNL     1     -11.945  10.456  70.907  1.00  0.00    -0.478 A  
HETATM   30  C   UNL     1     -13.080  10.043  71.618  1.00  0.00    -0.547 A  
HETATM   31  C   UNL     1     -13.049   8.874  72.378  1.00  0.00    -0.476 A  
HETATM   32  C   UNL     1     -11.883   8.113  72.437  1.00  0.00    -0.448 A  
HETATM   33  C   UNL     1     -10.747   8.522  71.740  1.00  0.00    -0.373 A  
HETATM   34  C   UNL     1     -10.776   9.691  70.979  1.00  0.00    -0.393 A  
ENDBRANCH  28  29
ENDBRANCH  27  28
ENDBRANCH  24  27
ENDBRANCH  23  24
ENDBRANCH  22  23
ENDBRANCH  19  22
ENDBRANCH  12  13
ENDBRANCH  11  12
ENDBRANCH   9  10
ENDBRANCH   8   9
ENDBRANCH   7   8
ENDBRANCH   5   7
ENDBRANCH   4   5
ENDBRANCH   2   4
TORSDOF 14
ENDMDL
MODEL       14
REMARK 921   NORMALIZED FREE ENERGY PREDICTED BY IDOCK:   -5.97 KCAL/MOL
REMARK 922        TOTAL FREE ENERGY PREDICTED BY IDOCK:  -14.15 KCAL/MOL
REMARK 923 INTER-LIGAND FREE ENERGY PREDICTED BY IDOCK:  -11.30 KCAL/MOL
REMARK 924 INTRA-LIGAND FREE ENERGY PREDICTED BY IDOCK:   -2.85 KCAL/MOL
REMARK 927      BINDING AFFINITY PREDICTED BY RF-SCORE:    0.00 PKD
ROOT
HETATM    1  C   UNL     1     -10.480   6.794  73.077  1.00  0.00    -0.280 C  
HETATM    2  C   UNL     1     -11.106   7.441  71.847  1.00  0.00    -0.242 C  
HETATM    3  C   UNL     1     -11.501   6.385  70.822  1.00  0.00    -0.415 C  
ENDROOT
BRANCH   2   4
HETATM    4  O   UNL     1     -12.305   8.140  72.230  1.00  0.00    -0.333 OA 
BRANCH   4   5
HETATM    5  C   UNL     1     -12.544   9.298  71.548  1.00  0.00    -0.352 C  
HETATM    6  O   UNL     1     -13.652   9.736  71.264  1.00  0.00    -0.344 OA 
BRANCH   5   7
HETATM    7  C   UNL     1     -11.236   9.948  71.176  1.00  0.00    -0.404 C  
BRANCH   7   8
HETATM    8  C   UNL     1     -11.206  10.296  69.687  1.00  0.00    -0.322 C  
BRANCH   8   9
HETATM    9  C   UNL     1     -10.096   9.577  68.924  1.00  0.00    -0.199 C  
BRANCH   9  10
HETATM   10  C   UNL     1     -10.624   8.761  67.779  1.00  0.00    -0.256 C  
HETATM   11  C   UNL     1     -10.236   8.835  66.494  1.00  0.00    -0.314 C  
BRANCH  11  12
HETATM   12  C   UNL     1      -9.172   9.732  65.928  1.00  0.00    -0.236 C  
BRANCH  12  13
HETATM   13  C   UNL     1      -9.664  11.041  65.286  1.00  0.00    -0.286 C  
HETATM   14  C   UNL     1      -9.352  11.063  63.778  1.00  0.00    -0.226 C  
HETATM   15  C   UNL     1     -10.199  12.213  63.266  1.00  0.00    -0.341 C  
HETATM   16  O   UNL     1      -9.795   9.870  63.130  1.00  0.00    -0.515 OA 
HETATM   17  C   UNL     1     -11.517  12.035  64.012  1.00  0.00    -0.404 C  
HETATM   18  H   UNL     1      -9.602   9.884  62.200  1.00  0.00     0.000 HD 
HETATM   19  C   UNL     1     -11.194  11.282  65.330  1.00  0.00    -0.066 C  
HETATM   20  O   UNL     1     -12.416  11.244  63.237  1.00  0.00    -0.656 OA 
HETATM   21  H   UNL     1     -13.237  11.134  63.701  1.00  0.00     0.000 HD 
BRANCH  19  22
HETATM   22  C   UNL     1     -11.643  12.093  66.560  1.00  0.00    -0.425 C  
BRANCH  22  23
HETATM   23  C   UNL     1     -10.506  12.983  67.069  1.00  0.00    -0.249 C  
BRANCH  23  24
HETATM   24  C   UNL     1     -10.842  14.478  67.120  1.00  0.00    -0.296 C  
HETATM   25  O   UNL     1     -11.679  14.828  66.017  1.00  0.00    -0.337 OA 
HETATM   26  H   UNL     1     -11.888  15.754  66.049  1.00  0.00     0.000 HD 
BRANCH  24  27
HETATM   27  C   UNL     1     -11.609  14.837  68.402  1.00  0.00    -0.350 C  
BRANCH  27  28
HETATM   28  C   UNL     1     -11.324  13.873  69.554  1.00  0.00    -0.293 C  
BRANCH  28  29
HETATM   29  C   UNL     1     -11.896  14.359  70.858  1.00  0.00    -0.346 A  
HETATM   30  C   UNL     1     -12.874  13.604  71.520  1.00  0.00    -0.445 A  
HETATM   31  C   UNL     1     -13.405  14.045  72.731  1.00  0.00    -0.603 A  
HETATM   32  C   UNL     1     -12.968  15.245  73.286  1.00  0.00    -0.645 A  
HETATM   33  C   UNL     1     -12.003  16.008  72.630  1.00  0.00    -0.646 A  
HETATM   34  C   UNL     1     -11.469  15.567  71.418  1.00  0.00    -0.478 A  
ENDBRANCH  28  29
ENDBRANCH  27  28
ENDBRANCH  24  27
ENDBRANCH  23  24
ENDBRANCH  22  23
ENDBRANCH  19  22
ENDBRANCH  12  13
ENDBRANCH  11  12
ENDBRANCH   9  10
ENDBRANCH   8   9
ENDBRANCH   7   8
ENDBRANCH   5   7
ENDBRANCH   4   5
ENDBRANCH   2   4
TORSDOF 14
ENDMDL
MODEL       15
REMARK 921   NORMALIZED FREE ENERGY PREDICTED BY IDOCK:   -5.96 KCAL/MOL
REMARK 922        TOTAL FREE ENERGY PREDICTED BY IDOCK:  -14.12 KCAL/MOL
REMARK 923 INTER-LIGAND FREE ENERGY PREDICTED BY IDOCK:  -12.28 KCAL/MOL
REMARK 924 INTRA-LIGAND FREE ENERGY PREDICTED BY IDOCK:   -1.85 KCAL/MOL
REMARK 927      BINDING AFFINITY PREDICTED BY RF-SCORE:    0.00 PKD
ROOT
HETATM    1  C   UNL     1     -11.491  16.012  70.568  1.00  0.00    -0.409 C  
HETATM    2  C   UNL     1     -11.992  15.142  71.715  1.00  0.00    -0.382 C  
HETATM    3  C   UNL     1     -12.394  15.998  72.908  1.00  0.00    -0.609 C  
ENDROOT
BRANCH   2   4
HETATM    4  O   UNL     1     -13.160  14.415  71.290  1.00  0.00    -0.324 OA 
BRANCH   4   5
HETATM    5  C   UNL     1     -13.115  13.068  71.504  1.00  0.00    -0.310 C  
HETATM    6  O   UNL     1     -13.625  12.485  72.453  1.00  0.00    -0.521 OA 
BRANCH   5   7
HETATM    7  C   UNL     1     -12.322  12.406  70.407  1.00  0.00    -0.307 C  
BRANCH   7   8
HETATM    8  C   UNL     1     -12.282  10.889  70.604  1.00  0.00    -0.472 C  
BRANCH   8   9
HETATM    9  C   UNL     1     -11.522  10.160  69.499  1.00  0.00    -0.227 C  
BRANCH   9  10
HETATM   10  C   UNL     1     -10.143  10.719  69.287  1.00  0.00    -0.200 C  
HETATM   11  C   UNL     1      -9.464  10.763  68.129  1.00  0.00    -0.161 C  
BRANCH  11  12
HETATM   12  C   UNL     1      -9.945  10.286  66.788  1.00  0.00    -0.261 C  
BRANCH  12  13
HETATM   13  C   UNL     1      -9.919  11.324  65.653  1.00  0.00    -0.292 C  
HETATM   14  C   UNL     1      -9.316  10.721  64.370  1.00  0.00    -0.242 C  
HETATM   15  C   UNL     1      -9.695  11.730  63.302  1.00  0.00    -0.350 C  
HETATM   16  O   UNL     1      -9.929   9.476  64.035  1.00  0.00    -0.282 OA 
HETATM   17  C   UNL     1     -11.134  12.090  63.657  1.00  0.00    -0.452 C  
HETATM   18  H   UNL     1      -9.557   9.104  63.244  1.00  0.00     0.000 HD 
HETATM   19  C   UNL     1     -11.301  11.842  65.180  1.00  0.00    -0.328 C  
HETATM   20  O   UNL     1     -12.040  11.246  62.948  1.00  0.00    -0.879 OA 
HETATM   21  H   UNL     1     -12.936  11.471  63.169  1.00  0.00     0.000 HD 
BRANCH  19  22
HETATM   22  C   UNL     1     -11.749  13.123  65.908  1.00  0.00    -0.427 C  
BRANCH  22  23
HETATM   23  C   UNL     1     -12.221  14.181  64.906  1.00  0.00    -0.451 C  
BRANCH  23  24
HETATM   24  C   UNL     1     -11.214  15.309  64.652  1.00  0.00    -0.356 C  
HETATM   25  O   UNL     1     -11.831  16.354  63.900  1.00  0.00    -1.404 OA 
HETATM   26  H   UNL     1     -11.208  17.054  63.743  1.00  0.00     0.000 HD 
BRANCH  24  27
HETATM   27  C   UNL     1     -10.721  15.927  65.969  1.00  0.00    -0.289 C  
BRANCH  27  28
HETATM   28  C   UNL     1      -9.218  16.206  65.970  1.00  0.00    -0.363 C  
BRANCH  28  29
HETATM   29  C   UNL     1      -8.904  17.638  66.309  1.00  0.00    -0.209 A  
HETATM   30  C   UNL     1      -7.587  18.108  66.219  1.00  0.00    -0.299 A  
HETATM   31  C   UNL     1      -7.289  19.434  66.526  1.00  0.00    -0.251 A  
HETATM   32  C   UNL     1      -8.304  20.299  66.931  1.00  0.00    -0.348 A  
HETATM   33  C   UNL     1      -9.616  19.838  67.032  1.00  0.00    -0.490 A  
HETATM   34  C   UNL     1      -9.915  18.510  66.724  1.00  0.00    -0.381 A  
ENDBRANCH  28  29
ENDBRANCH  27  28
ENDBRANCH  24  27
ENDBRANCH  23  24
ENDBRANCH  22  23
ENDBRANCH  19  22
ENDBRANCH  12  13
ENDBRANCH  11  12
ENDBRANCH   9  10
ENDBRANCH   8   9
ENDBRANCH   7   8
ENDBRANCH   5   7
ENDBRANCH   4   5
ENDBRANCH   2   4
TORSDOF 14
ENDMDL
MODEL       16
REMARK 921   NORMALIZED FREE ENERGY PREDICTED BY IDOCK:   -5.95 KCAL/MOL
REMARK 922        TOTAL FREE ENERGY PREDICTED BY IDOCK:  -14.11 KCAL/MOL
REMARK 923 INTER-LIGAND FREE ENERGY PREDICTED BY IDOCK:  -12.23 KCAL/MOL
REMARK 924 INTRA-LIGAND FREE ENERGY PREDICTED BY IDOCK:   -1.87 KCAL/MOL
REMARK 927      BINDING AFFINITY PREDICTED BY RF-SCORE:    0.00 PKD
ROOT
HETATM    1  C   UNL     1     -13.389  10.113  71.989  1.00  0.00    -0.492 C  
HETATM    2  C   UNL     1     -12.379  10.199  70.850  1.00  0.00    -0.363 C  
HETATM    3  C   UNL     1     -12.176  11.645  70.416  1.00  0.00    -0.434 C  
ENDROOT
BRANCH   2   4
HETATM    4  O   UNL     1     -11.106   9.699  71.300  1.00  0.00    -0.346 OA 
BRANCH   4   5
HETATM    5  C   UNL     1     -11.121   8.422  71.779  1.00  0.00    -0.290 C  
HETATM    6  O   UNL     1     -10.852   8.093  72.927  1.00  0.00    -0.357 OA 
BRANCH   5   7
HETATM    7  C   UNL     1     -11.498   7.469  70.673  1.00  0.00    -0.291 C  
BRANCH   7   8
HETATM    8  C   UNL     1     -10.288   7.152  69.792  1.00  0.00    -0.224 C  
BRANCH   8   9
HETATM    9  C   UNL     1     -10.331   7.853  68.437  1.00  0.00    -0.235 C  
BRANCH   9  10
HETATM   10  C   UNL     1      -9.312   8.952  68.329  1.00  0.00    -0.149 C  
HETATM   11  C   UNL     1      -9.481  10.148  67.739  1.00  0.00    -0.160 C  
BRANCH  11  12
HETATM   12  C   UNL     1     -10.732  10.656  67.083  1.00  0.00    -0.327 C  
BRANCH  12  13
HETATM   13  C   UNL     1     -10.531  11.645  65.921  1.00  0.00    -0.300 C  
HETATM   14  C   UNL     1      -9.730  10.994  64.778  1.00  0.00    -0.262 C  
HETATM   15  C   UNL     1      -9.939  11.951  63.620  1.00  0.00    -0.404 C  
HETATM   16  O   UNL     1     -10.276   9.728  64.406  1.00  0.00    -0.348 OA 
HETATM   17  C   UNL     1     -11.418  12.310  63.725  1.00  0.00    -0.466 C  
HETATM   18  H   UNL     1      -9.781   9.327  63.701  1.00  0.00     0.000 HD 
HETATM   19  C   UNL     1     -11.823  12.126  65.212  1.00  0.00    -0.356 C  
HETATM   20  O   UNL     1     -12.196  11.426  62.921  1.00  0.00    -0.940 OA 
HETATM   21  H   UNL     1     -13.117  11.650  62.987  1.00  0.00     0.000 HD 
BRANCH  19  22
HETATM   22  C   UNL     1     -12.387  13.432  65.803  1.00  0.00    -0.513 C  
BRANCH  22  23
HETATM   23  C   UNL     1     -12.382  14.548  64.754  1.00  0.00    -0.403 C  
BRANCH  23  24
HETATM   24  C   UNL     1     -11.201  15.520  64.866  1.00  0.00    -0.389 C  
HETATM   25  O   UNL     1     -11.486  16.720  64.147  1.00  0.00    -1.369 OA 
HETATM   26  H   UNL     1     -10.755  17.322  64.216  1.00  0.00     0.000 HD 
BRANCH  24  27
HETATM   27  C   UNL     1     -10.938  15.917  66.326  1.00  0.00    -0.112 C  
BRANCH  27  28
HETATM   28  C   UNL     1      -9.532  16.475  66.547  1.00  0.00    -0.296 C  
BRANCH  28  29
HETATM   29  C   UNL     1      -9.540  17.960  66.786  1.00  0.00    -0.305 A  
HETATM   30  C   UNL     1      -8.414  18.730  66.461  1.00  0.00    -0.310 A  
HETATM   31  C   UNL     1      -8.416  20.107  66.675  1.00  0.00    -0.343 A  
HETATM   32  C   UNL     1      -9.539  20.725  67.221  1.00  0.00    -0.494 A  
HETATM   33  C   UNL     1     -10.660  19.965  67.557  1.00  0.00    -0.492 A  
HETATM   34  C   UNL     1     -10.660  18.586  67.343  1.00  0.00    -0.463 A  
ENDBRANCH  28  29
ENDBRANCH  27  28
ENDBRANCH  24  27
ENDBRANCH  23  24
ENDBRANCH  22  23
ENDBRANCH  19  22
ENDBRANCH  12  13
ENDBRANCH  11  12
ENDBRANCH   9  10
ENDBRANCH   8   9
ENDBRANCH   7   8
ENDBRANCH   5   7
ENDBRANCH   4   5
ENDBRANCH   2   4
TORSDOF 14
ENDMDL
MODEL       17
REMARK 921   NORMALIZED FREE ENERGY PREDICTED BY IDOCK:   -5.94 KCAL/MOL
REMARK 922        TOTAL FREE ENERGY PREDICTED BY IDOCK:  -14.10 KCAL/MOL
REMARK 923 INTER-LIGAND FREE ENERGY PREDICTED BY IDOCK:  -11.41 KCAL/MOL
REMARK 924 INTRA-LIGAND FREE ENERGY PREDICTED BY IDOCK:   -2.69 KCAL/MOL
REMARK 927      BINDING AFFINITY PREDICTED BY RF-SCORE:    0.00 PKD
ROOT
HETATM    1  C   UNL     1     -11.722  16.179  71.581  1.00  0.00    -0.558 C  
HETATM    2  C   UNL     1     -12.089  14.985  72.455  1.00  0.00    -0.343 C  
HETATM    3  C   UNL     1     -12.433  15.435  73.869  1.00  0.00    -0.763 C  
ENDROOT
BRANCH   2   4
HETATM    4  O   UNL     1     -13.253  14.334  71.913  1.00  0.00    -0.331 OA 
BRANCH   4   5
HETATM    5  C   UNL     1     -13.156  12.979  71.791  1.00  0.00    -0.373 C  
HETATM    6  O   UNL     1     -13.659  12.162  72.552  1.00  0.00    -0.277 OA 
BRANCH   5   7
HETATM    7  C   UNL     1     -12.314  12.636  70.589  1.00  0.00    -0.375 C  
BRANCH   7   8
HETATM    8  C   UNL     1     -12.216  11.120  70.408  1.00  0.00    -0.457 C  
BRANCH   8   9
HETATM    9  C   UNL     1     -11.291  10.710  69.265  1.00  0.00    -0.346 C  
BRANCH   9  10
HETATM   10  C   UNL     1     -10.614   9.393  69.520  1.00  0.00    -0.237 C  
HETATM   11  C   UNL     1     -10.276   8.473  68.601  1.00  0.00    -0.217 C  
BRANCH  11  12
HETATM   12  C   UNL     1     -10.478   8.571  67.116  1.00  0.00    -0.370 C  
BRANCH  12  13
HETATM   13  C   UNL     1      -9.349   9.255  66.325  1.00  0.00    -0.257 C  
HETATM   14  C   UNL     1      -8.278   8.233  65.901  1.00  0.00    -0.119 C  
HETATM   15  C   UNL     1      -7.470   8.988  64.863  1.00  0.00    -0.105 C  
HETATM   16  O   UNL     1      -8.859   7.095  65.262  1.00  0.00    -0.367 OA 
HETATM   17  C   UNL     1      -8.536   9.713  64.050  1.00  0.00    -0.200 C  
HETATM   18  H   UNL     1      -8.198   6.464  65.001  1.00  0.00     0.000 HD 
HETATM   19  C   UNL     1      -9.764   9.905  64.980  1.00  0.00    -0.359 C  
HETATM   20  O   UNL     1      -8.924   8.919  62.930  1.00  0.00    -0.432 OA 
HETATM   21  H   UNL     1      -9.588   9.372  62.424  1.00  0.00     0.000 HD 
BRANCH  19  22
HETATM   22  C   UNL     1     -10.134  11.393  65.116  1.00  0.00    -0.319 C  
BRANCH  22  23
HETATM   23  C   UNL     1     -10.452  12.001  63.747  1.00  0.00    -0.469 C  
BRANCH  23  24
HETATM   24  C   UNL     1     -11.875  12.557  63.613  1.00  0.00    -0.530 C  
HETATM   25  O   UNL     1     -12.729  11.576  63.024  1.00  0.00    -0.915 OA 
HETATM   26  H   UNL     1     -13.611  11.920  62.941  1.00  0.00     0.000 HD 
BRANCH  24  27
HETATM   27  C   UNL     1     -12.470  12.911  64.985  1.00  0.00    -0.553 C  
BRANCH  27  28
HETATM   28  C   UNL     1     -12.457  14.413  65.268  1.00  0.00    -0.359 C  
BRANCH  28  29
HETATM   29  C   UNL     1     -11.308  14.817  66.152  1.00  0.00    -0.330 A  
HETATM   30  C   UNL     1     -10.339  15.712  65.679  1.00  0.00    -0.408 A  
HETATM   31  C   UNL     1      -9.275  16.094  66.494  1.00  0.00    -0.303 A  
HETATM   32  C   UNL     1      -9.167  15.580  67.784  1.00  0.00    -0.179 A  
HETATM   33  C   UNL     1     -10.120  14.681  68.259  1.00  0.00    -0.228 A  
HETATM   34  C   UNL     1     -11.187  14.298  67.445  1.00  0.00    -0.330 A  
ENDBRANCH  28  29
ENDBRANCH  27  28
ENDBRANCH  24  27
ENDBRANCH  23  24
ENDBRANCH  22  23
ENDBRANCH  19  22
ENDBRANCH  12  13
ENDBRANCH  11  12
ENDBRANCH   9  10
ENDBRANCH   8   9
ENDBRANCH   7   8
ENDBRANCH   5   7
ENDBRANCH   4   5
ENDBRANCH   2   4
TORSDOF 14
ENDMDL
MODEL       18
REMARK 921   NORMALIZED FREE ENERGY PREDICTED BY IDOCK:   -5.94 KCAL/MOL
REMARK 922        TOTAL FREE ENERGY PREDICTED BY IDOCK:  -14.09 KCAL/MOL
REMARK 923 INTER-LIGAND FREE ENERGY PREDICTED BY IDOCK:  -11.52 KCAL/MOL
REMARK 924 INTRA-LIGAND FREE ENERGY PREDICTED BY IDOCK:   -2.58 KCAL/MOL
REMARK 927      BINDING AFFINITY PREDICTED BY RF-SCORE:    0.00 PKD
ROOT
HETATM    1  C   UNL     1     -11.445   6.413  69.560  1.00  0.00    -0.412 C  
HETATM    2  C   UNL     1     -11.632   6.752  71.034  1.00  0.00    -0.339 C  
HETATM    3  C   UNL     1     -10.873   5.768  71.916  1.00  0.00    -0.309 C  
ENDROOT
BRANCH   2   4
HETATM    4  O   UNL     1     -11.101   8.065  71.295  1.00  0.00    -0.239 OA 
BRANCH   4   5
HETATM    5  C   UNL     1     -11.945   9.098  71.009  1.00  0.00    -0.282 C  
HETATM    6  O   UNL     1     -13.147   9.117  71.244  1.00  0.00    -0.311 OA 
BRANCH   5   7
HETATM    7  C   UNL     1     -11.179  10.209  70.338  1.00  0.00    -0.402 C  
BRANCH   7   8
HETATM    8  C   UNL     1      -9.713   9.817  70.140  1.00  0.00    -0.299 C  
BRANCH   8   9
HETATM    9  C   UNL     1      -9.256   9.915  68.687  1.00  0.00    -0.139 C  
BRANCH   9  10
HETATM   10  C   UNL     1     -10.182   9.196  67.746  1.00  0.00    -0.278 C  
HETATM   11  C   UNL     1     -10.310   9.412  66.426  1.00  0.00    -0.237 C  
BRANCH  11  12
HETATM   12  C   UNL     1      -9.539  10.399  65.598  1.00  0.00    -0.281 C  
BRANCH  12  13
HETATM   13  C   UNL     1     -10.150  11.806  65.482  1.00  0.00    -0.285 C  
HETATM   14  C   UNL     1     -10.321  12.212  64.006  1.00  0.00    -0.385 C  
HETATM   15  C   UNL     1     -11.235  13.419  64.082  1.00  0.00    -0.379 C  
HETATM   16  O   UNL     1     -10.992  11.199  63.256  1.00  0.00    -0.753 OA 
HETATM   17  C   UNL     1     -12.264  13.013  65.132  1.00  0.00    -0.459 C  
HETATM   18  H   UNL     1     -11.096  11.449  62.345  1.00  0.00     0.000 HD 
HETATM   19  C   UNL     1     -11.580  11.972  66.058  1.00  0.00    -0.371 C  
HETATM   20  O   UNL     1     -13.391  12.405  64.505  1.00  0.00    -0.800 OA 
HETATM   21  H   UNL     1     -14.032  12.152  65.160  1.00  0.00     0.000 HD 
BRANCH  19  22
HETATM   22  C   UNL     1     -11.591  12.437  67.526  1.00  0.00    -0.431 C  
BRANCH  22  23
HETATM   23  C   UNL     1     -11.443  13.958  67.615  1.00  0.00    -0.354 C  
BRANCH  23  24
HETATM   24  C   UNL     1     -10.093  14.435  68.164  1.00  0.00    -0.226 C  
HETATM   25  O   UNL     1      -9.262  13.312  68.458  1.00  0.00    -0.310 OA 
HETATM   26  H   UNL     1      -8.425  13.606  68.797  1.00  0.00     0.000 HD 
BRANCH  24  27
HETATM   27  C   UNL     1      -9.344  15.298  67.138  1.00  0.00    -0.227 C  
BRANCH  27  28
HETATM   28  C   UNL     1     -10.264  16.262  66.387  1.00  0.00    -0.322 C  
BRANCH  28  29
HETATM   29  C   UNL     1     -10.115  17.680  66.865  1.00  0.00    -0.331 A  
HETATM   30  C   UNL     1      -9.603  17.940  68.144  1.00  0.00    -0.306 A  
HETATM   31  C   UNL     1      -9.457  19.253  68.591  1.00  0.00    -0.463 A  
HETATM   32  C   UNL     1      -9.827  20.314  67.768  1.00  0.00    -0.534 A  
HETATM   33  C   UNL     1     -10.347  20.064  66.498  1.00  0.00    -0.572 A  
HETATM   34  C   UNL     1     -10.493  18.751  66.048  1.00  0.00    -0.483 A  
ENDBRANCH  28  29
ENDBRANCH  27  28
ENDBRANCH  24  27
ENDBRANCH  23  24
ENDBRANCH  22  23
ENDBRANCH  19  22
ENDBRANCH  12  13
ENDBRANCH  11  12
ENDBRANCH   9  10
ENDBRANCH   8   9
ENDBRANCH   7   8
ENDBRANCH   5   7
ENDBRANCH   4   5
ENDBRANCH   2   4
TORSDOF 14
ENDMDL
MODEL       19
REMARK 921   NORMALIZED FREE ENERGY PREDICTED BY IDOCK:   -5.92 KCAL/MOL
REMARK 922        TOTAL FREE ENERGY PREDICTED BY IDOCK:  -14.06 KCAL/MOL
REMARK 923 INTER-LIGAND FREE ENERGY PREDICTED BY IDOCK:  -12.16 KCAL/MOL
REMARK 924 INTRA-LIGAND FREE ENERGY PREDICTED BY IDOCK:   -1.91 KCAL/MOL
REMARK 927      BINDING AFFINITY PREDICTED BY RF-SCORE:    0.00 PKD
ROOT
HETATM    1  C   UNL     1      -9.930   5.026  70.017  1.00  0.00    -0.324 C  
HETATM    2  C   UNL     1     -10.588   6.364  69.701  1.00  0.00    -0.254 C  
HETATM    3  C   UNL     1     -11.225   6.340  68.318  1.00  0.00    -0.251 C  
ENDROOT
BRANCH   2   4
HETATM    4  O   UNL     1     -11.635   6.621  70.656  1.00  0.00    -0.338 OA 
BRANCH   4   5
HETATM    5  C   UNL     1     -11.211   7.059  71.877  1.00  0.00    -0.249 C  
HETATM    6  O   UNL     1     -11.252   6.411  72.915  1.00  0.00    -0.244 OA 
BRANCH   5   7
HETATM    7  C   UNL     1     -10.705   8.474  71.761  1.00  0.00    -0.373 C  
BRANCH   7   8
HETATM    8  C   UNL     1     -11.867   9.459  71.627  1.00  0.00    -0.464 C  
BRANCH   8   9
HETATM    9  C   UNL     1     -11.673  10.467  70.497  1.00  0.00    -0.434 C  
BRANCH   9  10
HETATM   10  C   UNL     1     -10.394  10.241  69.741  1.00  0.00    -0.287 C  
HETATM   11  C   UNL     1     -10.210  10.369  68.417  1.00  0.00    -0.186 C  
BRANCH  11  12
HETATM   12  C   UNL     1     -11.237  10.792  67.405  1.00  0.00    -0.315 C  
BRANCH  12  13
HETATM   13  C   UNL     1     -10.725  11.670  66.250  1.00  0.00    -0.317 C  
HETATM   14  C   UNL     1      -9.667  10.921  65.418  1.00  0.00    -0.238 C  
HETATM   15  C   UNL     1      -9.552  11.765  64.163  1.00  0.00    -0.095 C  
HETATM   16  O   UNL     1     -10.120   9.623  65.034  1.00  0.00    -0.379 OA 
HETATM   17  C   UNL     1     -11.001  12.122  63.848  1.00  0.00    -0.402 C  
HETATM   18  H   UNL     1      -9.467   9.161  64.521  1.00  0.00     0.000 HD 
HETATM   19  C   UNL     1     -11.781  12.074  65.190  1.00  0.00    -0.315 C  
HETATM   20  O   UNL     1     -11.560  11.162  62.954  1.00  0.00    -0.784 OA 
HETATM   21  H   UNL     1     -12.462  11.385  62.758  1.00  0.00     0.000 HD 
BRANCH  19  22
HETATM   22  C   UNL     1     -12.455  13.425  65.492  1.00  0.00    -0.534 C  
BRANCH  22  23
HETATM   23  C   UNL     1     -12.293  14.389  64.313  1.00  0.00    -0.402 C  
BRANCH  23  24
HETATM   24  C   UNL     1     -11.145  15.394  64.467  1.00  0.00    -0.256 C  
HETATM   25  O   UNL     1     -11.525  16.658  63.921  1.00  0.00    -1.604 OA 
HETATM   26  H   UNL     1     -10.814  17.280  64.017  1.00  0.00     0.000 HD 
BRANCH  24  27
HETATM   27  C   UNL     1     -10.797  15.625  65.946  1.00  0.00    -0.297 C  
BRANCH  27  28
HETATM   28  C   UNL     1      -9.395  16.201  66.144  1.00  0.00    -0.372 C  
BRANCH  28  29
HETATM   29  C   UNL     1      -9.426  17.640  66.580  1.00  0.00    -0.288 A  
HETATM   30  C   UNL     1      -8.245  18.395  66.594  1.00  0.00    -0.283 A  
HETATM   31  C   UNL     1      -8.268  19.731  66.993  1.00  0.00    -0.340 A  
HETATM   32  C   UNL     1      -9.468  20.320  67.385  1.00  0.00    -0.547 A  
HETATM   33  C   UNL     1     -10.646  19.574  67.383  1.00  0.00    -0.607 A  
HETATM   34  C   UNL     1     -10.625  18.236  66.984  1.00  0.00    -0.375 A  
ENDBRANCH  28  29
ENDBRANCH  27  28
ENDBRANCH  24  27
ENDBRANCH  23  24
ENDBRANCH  22  23
ENDBRANCH  19  22
ENDBRANCH  12  13
ENDBRANCH  11  12
ENDBRANCH   9  10
ENDBRANCH   8   9
ENDBRANCH   7   8
ENDBRANCH   5   7
ENDBRANCH   4   5
ENDBRANCH   2   4
TORSDOF 14
ENDMDL
MODEL       20
REMARK 921   NORMALIZED FREE ENERGY PREDICTED BY IDOCK:   -5.92 KCAL/MOL
REMARK 922        TOTAL FREE ENERGY PREDICTED BY IDOCK:  -14.05 KCAL/MOL
REMARK 923 INTER-LIGAND FREE ENERGY PREDICTED BY IDOCK:  -10.93 KCAL/MOL
REMARK 924 INTRA-LIGAND FREE ENERGY PREDICTED BY IDOCK:   -3.12 KCAL/MOL
REMARK 927      BINDING AFFINITY PREDICTED BY RF-SCORE:    0.00 PKD
ROOT
HETATM    1  C   UNL     1     -12.163  12.685  63.483  1.00  0.00    -0.638 C  
HETATM    2  C   UNL     1     -11.995  13.885  64.409  1.00  0.00    -0.450 C  
HETATM    3  C   UNL     1     -12.655  13.624  65.757  1.00  0.00    -0.511 C  
ENDROOT
BRANCH   2   4
HETATM    4  O   UNL     1     -10.594  14.111  64.651  1.00  0.00    -0.420 OA 
BRANCH   4   5
HETATM    5  C   UNL     1     -10.275  15.366  65.082  1.00  0.00    -0.325 C  
HETATM    6  O   UNL     1     -10.795  16.403  64.689  1.00  0.00    -0.717 OA 
BRANCH   5   7
HETATM    7  C   UNL     1      -9.168  15.286  66.103  1.00  0.00    -0.345 C  
BRANCH   7   8
HETATM    8  C   UNL     1      -9.737  15.084  67.508  1.00  0.00    -0.215 C  
BRANCH   8   9
HETATM    9  C   UNL     1      -9.731  13.625  67.955  1.00  0.00    -0.226 C  
BRANCH   9  10
HETATM   10  C   UNL     1      -8.554  12.865  67.413  1.00  0.00    -0.195 C  
HETATM   11  C   UNL     1      -8.591  11.710  66.728  1.00  0.00    -0.180 C  
BRANCH  11  12
HETATM   12  C   UNL     1      -9.817  10.939  66.333  1.00  0.00    -0.249 C  
BRANCH  12  13
HETATM   13  C   UNL     1     -10.216   9.781  67.264  1.00  0.00    -0.289 C  
HETATM   14  C   UNL     1     -10.334   8.461  66.479  1.00  0.00    -0.129 C  
HETATM   15  C   UNL     1     -10.370   7.410  67.572  1.00  0.00    -0.320 C  
HETATM   16  O   UNL     1      -9.177   8.219  65.677  1.00  0.00    -0.372 OA 
HETATM   17  C   UNL     1      -9.314   7.895  68.559  1.00  0.00    -0.141 C  
HETATM   18  H   UNL     1      -9.250   7.405  65.193  1.00  0.00     0.000 HD 
HETATM   19  C   UNL     1      -9.201   9.433  68.383  1.00  0.00    -0.127 C  
HETATM   20  O   UNL     1      -8.052   7.301  68.259  1.00  0.00    -0.121 OA 
HETATM   21  H   UNL     1      -7.394   7.604  68.873  1.00  0.00     0.000 HD 
BRANCH  19  22
HETATM   22  C   UNL     1      -9.483  10.169  69.706  1.00  0.00    -0.201 C  
BRANCH  22  23
HETATM   23  C   UNL     1     -10.053   9.207  70.752  1.00  0.00    -0.333 C  
BRANCH  23  24
HETATM   24  C   UNL     1     -11.583   9.212  70.853  1.00  0.00    -0.291 C  
HETATM   25  O   UNL     1     -11.984   9.011  72.208  1.00  0.00    -0.338 OA 
HETATM   26  H   UNL     1     -12.932   9.014  72.271  1.00  0.00     0.000 HD 
BRANCH  24  27
HETATM   27  C   UNL     1     -12.170  10.557  70.400  1.00  0.00    -0.415 C  
BRANCH  27  28
HETATM   28  C   UNL     1     -13.072  11.198  71.456  1.00  0.00    -0.489 C  
BRANCH  28  29
HETATM   29  C   UNL     1     -13.118  12.697  71.333  1.00  0.00    -0.308 A  
HETATM   30  C   UNL     1     -13.891  13.451  72.225  1.00  0.00    -0.671 A  
HETATM   31  C   UNL     1     -13.935  14.841  72.120  1.00  0.00    -0.590 A  
HETATM   32  C   UNL     1     -13.210  15.485  71.120  1.00  0.00    -0.576 A  
HETATM   33  C   UNL     1     -12.446  14.742  70.221  1.00  0.00    -0.393 A  
HETATM   34  C   UNL     1     -12.401  13.351  70.326  1.00  0.00    -0.354 A  
ENDBRANCH  28  29
ENDBRANCH  27  28
ENDBRANCH  24  27
ENDBRANCH  23  24
ENDBRANCH  22  23
ENDBRANCH  19  22
ENDBRANCH  12  13
ENDBRANCH  11  12
ENDBRANCH   9  10
ENDBRANCH   8   9
ENDBRANCH   7   8
ENDBRANCH   5   7
ENDBRANCH   4   5
ENDBRANCH   2   4
TORSDOF 14
ENDMDL
MODEL       21
REMARK 921   NORMALIZED FREE ENERGY PREDICTED BY IDOCK:   -5.91 KCAL/MOL
REMARK 922        TOTAL FREE ENERGY PREDICTED BY IDOCK:  -14.04 KCAL/MOL
REMARK 923 INTER-LIGAND FREE ENERGY PREDICTED BY IDOCK:  -10.55 KCAL/MOL
REMARK 924 INTRA-LIGAND FREE ENERGY PREDICTED BY IDOCK:   -3.50 KCAL/MOL
REMARK 927      BINDING AFFINITY PREDICTED BY RF-SCORE:    0.00 PKD
ROOT
HETATM    1  C   UNL     1      -9.835   4.583  69.074  1.00  0.00    -0.202 C  
HETATM    2  C   UNL     1     -10.353   5.999  68.850  1.00  0.00    -0.218 C  
HETATM    3  C   UNL     1     -10.689   6.226  67.382  1.00  0.00    -0.409 C  
ENDROOT
BRANCH   2   4
HETATM    4  O   UNL     1     -11.563   6.193  69.607  1.00  0.00    -0.407 OA 
BRANCH   4   5
HETATM    5  C   UNL     1     -11.591   7.319  70.377  1.00  0.00    -0.219 C  
HETATM    6  O   UNL     1     -10.678   8.128  70.482  1.00  0.00    -0.217 OA 
BRANCH   5   7
HETATM    7  C   UNL     1     -12.911   7.407  71.099  1.00  0.00    -0.290 C  
BRANCH   7   8
HETATM    8  C   UNL     1     -12.880   8.509  72.159  1.00  0.00    -0.413 C  
BRANCH   8   9
HETATM    9  C   UNL     1     -13.775   9.697  71.817  1.00  0.00    -0.349 C  
BRANCH   9  10
HETATM   10  C   UNL     1     -13.070  11.013  71.986  1.00  0.00    -0.449 C  
HETATM   11  C   UNL     1     -12.355  11.666  71.055  1.00  0.00    -0.405 C  
BRANCH  11  12
HETATM   12  C   UNL     1     -12.125  11.236  69.634  1.00  0.00    -0.391 C  
BRANCH  12  13
HETATM   13  C   UNL     1     -11.047  12.013  68.859  1.00  0.00    -0.298 C  
HETATM   14  C   UNL     1      -9.786  11.151  68.660  1.00  0.00    -0.198 C  
HETATM   15  C   UNL     1      -9.008  11.915  67.605  1.00  0.00    -0.169 C  
HETATM   16  O   UNL     1     -10.104   9.866  68.125  1.00  0.00    -0.154 OA 
HETATM   17  C   UNL     1     -10.088  12.349  66.620  1.00  0.00    -0.221 C  
HETATM   18  H   UNL     1      -9.327   9.335  68.002  1.00  0.00     0.000 HD 
HETATM   19  C   UNL     1     -11.420  12.427  67.413  1.00  0.00    -0.418 C  
HETATM   20  O   UNL     1     -10.224  11.380  65.582  1.00  0.00    -0.232 OA 
HETATM   21  H   UNL     1     -10.897  11.650  64.969  1.00  0.00     0.000 HD 
BRANCH  19  22
HETATM   22  C   UNL     1     -12.040  13.834  67.327  1.00  0.00    -0.393 C  
BRANCH  22  23
HETATM   23  C   UNL     1     -11.122  14.785  66.553  1.00  0.00    -0.334 C  
BRANCH  23  24
HETATM   24  C   UNL     1     -10.439  15.853  67.416  1.00  0.00    -0.306 C  
HETATM   25  O   UNL     1     -10.126  16.997  66.622  1.00  0.00    -0.284 OA 
HETATM   26  H   UNL     1      -9.703  17.658  67.156  1.00  0.00     0.000 HD 
BRANCH  24  27
HETATM   27  C   UNL     1     -11.359  16.327  68.552  1.00  0.00    -0.330 C  
BRANCH  27  28
HETATM   28  C   UNL     1     -10.749  16.120  69.938  1.00  0.00    -0.328 C  
BRANCH  28  29
HETATM   29  C   UNL     1     -11.762  15.641  70.941  1.00  0.00    -0.423 A  
HETATM   30  C   UNL     1     -11.417  15.543  72.296  1.00  0.00    -0.496 A  
HETATM   31  C   UNL     1     -12.353  15.105  73.232  1.00  0.00    -0.567 A  
HETATM   32  C   UNL     1     -13.638  14.756  72.820  1.00  0.00    -0.542 A  
HETATM   33  C   UNL     1     -13.987  14.841  71.473  1.00  0.00    -0.548 A  
HETATM   34  C   UNL     1     -13.051  15.280  70.535  1.00  0.00    -0.334 A  
ENDBRANCH  28  29
ENDBRANCH  27  28
ENDBRANCH  24  27
ENDBRANCH  23  24
ENDBRANCH  22  23
ENDBRANCH  19  22
ENDBRANCH  12  13
ENDBRANCH  11  12
ENDBRANCH   9  10
ENDBRANCH   8   9
ENDBRANCH   7   8
ENDBRANCH   5   7
ENDBRANCH   4   5
ENDBRANCH   2   4
TORSDOF 14
ENDMDL
MODEL       22
REMARK 921   NORMALIZED FREE ENERGY PREDICTED BY IDOCK:   -5.87 KCAL/MOL
REMARK 922        TOTAL FREE ENERGY PREDICTED BY IDOCK:  -13.97 KCAL/MOL
REMARK 923 INTER-LIGAND FREE ENERGY PREDICTED BY IDOCK:  -11.53 KCAL/MOL
REMARK 924 INTRA-LIGAND FREE ENERGY PREDICTED BY IDOCK:   -2.44 KCAL/MOL
REMARK 927      BINDING AFFINITY PREDICTED BY RF-SCORE:    0.00 PKD
ROOT
HETATM    1  C   UNL     1     -11.585  16.560  71.885  1.00  0.00    -0.211 C  
HETATM    2  C   UNL     1     -12.245  15.381  72.592  1.00  0.00    -0.416 C  
HETATM    3  C   UNL     1     -12.894  15.826  73.896  1.00  0.00    -0.676 C  
ENDROOT
BRANCH   2   4
HETATM    4  O   UNL     1     -13.283  14.840  71.754  1.00  0.00    -0.311 OA 
BRANCH   4   5
HETATM    5  C   UNL     1     -13.400  13.481  71.779  1.00  0.00    -0.397 C  
HETATM    6  O   UNL     1     -14.205  12.852  72.456  1.00  0.00    -0.526 OA 
BRANCH   5   7
HETATM    7  C   UNL     1     -12.372  12.865  70.865  1.00  0.00    -0.365 C  
BRANCH   7   8
HETATM    8  C   UNL     1     -12.225  13.685  69.582  1.00  0.00    -0.326 C  
BRANCH   8   9
HETATM    9  C   UNL     1     -11.795  12.847  68.380  1.00  0.00    -0.357 C  
BRANCH   9  10
HETATM   10  C   UNL     1     -10.697  11.879  68.720  1.00  0.00    -0.257 C  
HETATM   11  C   UNL     1     -10.218  10.901  67.933  1.00  0.00    -0.205 C  
BRANCH  11  12
HETATM   12  C   UNL     1     -10.657  10.578  66.534  1.00  0.00    -0.240 C  
BRANCH  12  13
HETATM   13  C   UNL     1      -9.675  10.959  65.412  1.00  0.00    -0.287 C  
HETATM   14  C   UNL     1      -8.564   9.902  65.272  1.00  0.00    -0.156 C  
HETATM   15  C   UNL     1      -7.930  10.241  63.936  1.00  0.00    -0.126 C  
HETATM   16  O   UNL     1      -9.100   8.582  65.181  1.00  0.00    -0.412 OA 
HETATM   17  C   UNL     1      -9.131  10.553  63.049  1.00  0.00    -0.275 C  
HETATM   18  H   UNL     1      -8.415   7.930  65.095  1.00  0.00     0.000 HD 
HETATM   19  C   UNL     1     -10.274  11.028  63.985  1.00  0.00    -0.420 C  
HETATM   20  O   UNL     1      -9.553   9.376  62.364  1.00  0.00    -0.570 OA 
HETATM   21  H   UNL     1     -10.301   9.570  61.811  1.00  0.00     0.000 HD 
BRANCH  19  22
HETATM   22  C   UNL     1     -10.760  12.438  63.600  1.00  0.00    -0.497 C  
BRANCH  22  23
HETATM   23  C   UNL     1     -12.157  12.705  64.168  1.00  0.00    -0.518 C  
BRANCH  23  24
HETATM   24  C   UNL     1     -12.373  14.134  64.679  1.00  0.00    -0.410 C  
HETATM   25  O   UNL     1     -13.409  14.151  65.661  1.00  0.00    -0.697 OA 
HETATM   26  H   UNL     1     -13.543  15.036  65.978  1.00  0.00     0.000 HD 
BRANCH  24  27
HETATM   27  C   UNL     1     -11.105  14.688  65.347  1.00  0.00    -0.349 C  
BRANCH  27  28
HETATM   28  C   UNL     1     -10.830  16.147  64.983  1.00  0.00    -0.380 C  
BRANCH  28  29
HETATM   29  C   UNL     1     -10.573  16.999  66.196  1.00  0.00    -0.194 A  
HETATM   30  C   UNL     1     -10.455  18.389  66.065  1.00  0.00    -0.400 A  
HETATM   31  C   UNL     1     -10.223  19.185  67.186  1.00  0.00    -0.489 A  
HETATM   32  C   UNL     1     -10.101  18.598  68.443  1.00  0.00    -0.426 A  
HETATM   33  C   UNL     1     -10.208  17.214  68.581  1.00  0.00    -0.336 A  
HETATM   34  C   UNL     1     -10.441  16.416  67.460  1.00  0.00    -0.304 A  
ENDBRANCH  28  29
ENDBRANCH  27  28
ENDBRANCH  24  27
ENDBRANCH  23  24
ENDBRANCH  22  23
ENDBRANCH  19  22
ENDBRANCH  12  13
ENDBRANCH  11  12
ENDBRANCH   9  10
ENDBRANCH   8   9
ENDBRANCH   7   8
ENDBRANCH   5   7
ENDBRANCH   4   5
ENDBRANCH   2   4
TORSDOF 14
ENDMDL
MODEL       23
REMARK 921   NORMALIZED FREE ENERGY PREDICTED BY IDOCK:   -5.86 KCAL/MOL
REMARK 922        TOTAL FREE ENERGY PREDICTED BY IDOCK:  -13.95 KCAL/MOL
REMARK 923 INTER-LIGAND FREE ENERGY PREDICTED BY IDOCK:  -11.32 KCAL/MOL
REMARK 924 INTRA-LIGAND FREE ENERGY PREDICTED BY IDOCK:   -2.63 KCAL/MOL
REMARK 927      BINDING AFFINITY PREDICTED BY RF-SCORE:    0.00 PKD
ROOT
HETATM    1  C   UNL     1     -10.285  11.886  64.265  1.00  0.00    -0.346 C  
HETATM    2  C   UNL     1     -11.616  12.564  64.573  1.00  0.00    -0.348 C  
HETATM    3  C   UNL     1     -12.673  12.169  63.550  1.00  0.00    -0.553 C  
ENDROOT
BRANCH   2   4
HETATM    4  O   UNL     1     -12.083  12.137  65.866  1.00  0.00    -0.594 OA 
BRANCH   4   5
HETATM    5  C   UNL     1     -11.788  12.981  66.897  1.00  0.00    -0.380 C  
HETATM    6  O   UNL     1     -12.210  14.124  67.019  1.00  0.00    -0.432 OA 
BRANCH   5   7
HETATM    7  C   UNL     1     -10.844  12.301  67.855  1.00  0.00    -0.252 C  
BRANCH   7   8
HETATM    8  C   UNL     1     -11.155  10.807  67.958  1.00  0.00    -0.359 C  
BRANCH   8   9
HETATM    9  C   UNL     1     -10.021   9.921  67.451  1.00  0.00    -0.235 C  
BRANCH   9  10
HETATM   10  C   UNL     1     -10.524   8.658  66.810  1.00  0.00    -0.298 C  
HETATM   11  C   UNL     1     -10.292   7.401  67.224  1.00  0.00    -0.356 C  
BRANCH  11  12
HETATM   12  C   UNL     1      -9.502   6.984  68.432  1.00  0.00    -0.133 C  
BRANCH  12  13
HETATM   13  C   UNL     1     -10.299   6.823  69.738  1.00  0.00    -0.226 C  
HETATM   14  C   UNL     1     -10.227   5.373  70.250  1.00  0.00    -0.267 C  
HETATM   15  C   UNL     1     -10.738   5.483  71.674  1.00  0.00    -0.296 C  
HETATM   16  O   UNL     1      -8.881   4.899  70.303  1.00  0.00    -0.099 OA 
HETATM   17  C   UNL     1     -10.077   6.757  72.186  1.00  0.00    -0.181 C  
HETATM   18  H   UNL     1      -8.837   4.004  70.619  1.00  0.00     0.000 HD 
HETATM   19  C   UNL     1      -9.789   7.647  70.947  1.00  0.00    -0.179 C  
HETATM   20  O   UNL     1      -8.842   6.445  72.828  1.00  0.00    -0.126 OA 
HETATM   21  H   UNL     1      -8.430   7.240  73.147  1.00  0.00     0.000 HD 
BRANCH  19  22
HETATM   22  C   UNL     1     -10.473   9.021  71.076  1.00  0.00    -0.339 C  
BRANCH  22  23
HETATM   23  C   UNL     1     -11.616   8.966  72.093  1.00  0.00    -0.400 C  
BRANCH  23  24
HETATM   24  C   UNL     1     -12.876   9.734  71.676  1.00  0.00    -0.421 C  
HETATM   25  O   UNL     1     -13.791   9.801  72.769  1.00  0.00    -0.671 OA 
HETATM   26  H   UNL     1     -14.572  10.277  72.511  1.00  0.00     0.000 HD 
BRANCH  24  27
HETATM   27  C   UNL     1     -12.543  11.178  71.272  1.00  0.00    -0.503 C  
BRANCH  27  28
HETATM   28  C   UNL     1     -13.503  12.201  71.880  1.00  0.00    -0.318 C  
BRANCH  28  29
HETATM   29  C   UNL     1     -12.928  13.592  71.881  1.00  0.00    -0.431 A  
HETATM   30  C   UNL     1     -12.103  14.011  70.828  1.00  0.00    -0.417 A  
HETATM   31  C   UNL     1     -11.571  15.299  70.820  1.00  0.00    -0.371 A  
HETATM   32  C   UNL     1     -11.854  16.176  71.865  1.00  0.00    -0.605 A  
HETATM   33  C   UNL     1     -12.665  15.764  72.922  1.00  0.00    -0.572 A  
HETATM   34  C   UNL     1     -13.199  14.474  72.931  1.00  0.00    -0.612 A  
ENDBRANCH  28  29
ENDBRANCH  27  28
ENDBRANCH  24  27
ENDBRANCH  23  24
ENDBRANCH  22  23
ENDBRANCH  19  22
ENDBRANCH  12  13
ENDBRANCH  11  12
ENDBRANCH   9  10
ENDBRANCH   8   9
ENDBRANCH   7   8
ENDBRANCH   5   7
ENDBRANCH   4   5
ENDBRANCH   2   4
TORSDOF 14
ENDMDL
MODEL       24
REMARK 921   NORMALIZED FREE ENERGY PREDICTED BY IDOCK:   -5.85 KCAL/MOL
REMARK 922        TOTAL FREE ENERGY PREDICTED BY IDOCK:  -13.92 KCAL/MOL
REMARK 923 INTER-LIGAND FREE ENERGY PREDICTED BY IDOCK:  -11.42 KCAL/MOL
REMARK 924 INTRA-LIGAND FREE ENERGY PREDICTED BY IDOCK:   -2.51 KCAL/MOL
REMARK 927      BINDING AFFINITY PREDICTED BY RF-SCORE:    0.00 PKD
ROOT
HETATM    1  C   UNL     1     -11.553  16.296  71.359  1.00  0.00    -0.424 C  
HETATM    2  C   UNL     1     -11.984  15.061  72.142  1.00  0.00    -0.375 C  
HETATM    3  C   UNL     1     -12.503  15.448  73.520  1.00  0.00    -0.666 C  
ENDROOT
BRANCH   2   4
HETATM    4  O   UNL     1     -13.057  14.401  71.445  1.00  0.00    -0.316 OA 
BRANCH   4   5
HETATM    5  C   UNL     1     -13.103  13.046  71.600  1.00  0.00    -0.347 C  
HETATM    6  O   UNL     1     -13.768  12.452  72.439  1.00  0.00    -0.423 OA 
BRANCH   5   7
HETATM    7  C   UNL     1     -12.192  12.389  70.595  1.00  0.00    -0.368 C  
BRANCH   7   8
HETATM    8  C   UNL     1     -12.138  10.876  70.817  1.00  0.00    -0.469 C  
BRANCH   8   9
HETATM    9  C   UNL     1     -11.522  10.119  69.643  1.00  0.00    -0.256 C  
BRANCH   9  10
HETATM   10  C   UNL     1     -10.160  10.638  69.278  1.00  0.00    -0.227 C  
HETATM   11  C   UNL     1      -9.655  10.764  68.040  1.00  0.00    -0.172 C  
BRANCH  11  12
HETATM   12  C   UNL     1     -10.349  10.437  66.749  1.00  0.00    -0.294 C  
BRANCH  12  13
HETATM   13  C   UNL     1     -10.256  11.502  65.643  1.00  0.00    -0.292 C  
HETATM   14  C   UNL     1      -9.487  10.961  64.423  1.00  0.00    -0.247 C  
HETATM   15  C   UNL     1      -9.801  11.975  63.339  1.00  0.00    -0.306 C  
HETATM   16  O   UNL     1      -9.993   9.695  63.999  1.00  0.00    -0.378 OA 
HETATM   17  C   UNL     1     -11.287  12.254  63.541  1.00  0.00    -0.470 C  
HETATM   18  H   UNL     1      -9.519   9.362  63.247  1.00  0.00     0.000 HD 
HETATM   19  C   UNL     1     -11.604  11.961  65.031  1.00  0.00    -0.277 C  
HETATM   20  O   UNL     1     -12.065  11.383  62.722  1.00  0.00    -0.791 OA 
HETATM   21  H   UNL     1     -12.990  11.557  62.848  1.00  0.00     0.000 HD 
BRANCH  19  22
HETATM   22  C   UNL     1     -12.195  13.200  65.730  1.00  0.00    -0.514 C  
BRANCH  22  23
HETATM   23  C   UNL     1     -12.275  14.383  64.762  1.00  0.00    -0.458 C  
BRANCH  23  24
HETATM   24  C   UNL     1     -11.107  15.371  64.866  1.00  0.00    -0.423 C  
HETATM   25  O   UNL     1     -11.425  16.579  64.176  1.00  0.00    -1.346 OA 
HETATM   26  H   UNL     1     -10.702  17.191  64.242  1.00  0.00     0.000 HD 
BRANCH  24  27
HETATM   27  C   UNL     1     -10.819  15.745  66.328  1.00  0.00    -0.232 C  
BRANCH  27  28
HETATM   28  C   UNL     1      -9.482  16.465  66.506  1.00  0.00    -0.296 C  
BRANCH  28  29
HETATM   29  C   UNL     1      -8.452  15.597  67.177  1.00  0.00    -0.234 A  
HETATM   30  C   UNL     1      -8.848  14.439  67.860  1.00  0.00    -0.179 A  
HETATM   31  C   UNL     1      -7.898  13.628  68.480  1.00  0.00    -0.131 A  
HETATM   32  C   UNL     1      -6.549  13.970  68.425  1.00  0.00    -0.106 A  
HETATM   33  C   UNL     1      -6.148  15.125  67.756  1.00  0.00    -0.164 A  
HETATM   34  C   UNL     1      -7.097  15.938  67.135  1.00  0.00    -0.240 A  
ENDBRANCH  28  29
ENDBRANCH  27  28
ENDBRANCH  24  27
ENDBRANCH  23  24
ENDBRANCH  22  23
ENDBRANCH  19  22
ENDBRANCH  12  13
ENDBRANCH  11  12
ENDBRANCH   9  10
ENDBRANCH   8   9
ENDBRANCH   7   8
ENDBRANCH   5   7
ENDBRANCH   4   5
ENDBRANCH   2   4
TORSDOF 14
ENDMDL
MODEL       25
REMARK 921   NORMALIZED FREE ENERGY PREDICTED BY IDOCK:   -5.82 KCAL/MOL
REMARK 922        TOTAL FREE ENERGY PREDICTED BY IDOCK:  -13.88 KCAL/MOL
REMARK 923 INTER-LIGAND FREE ENERGY PREDICTED BY IDOCK:  -11.28 KCAL/MOL
REMARK 924 INTRA-LIGAND FREE ENERGY PREDICTED BY IDOCK:   -2.61 KCAL/MOL
REMARK 927      BINDING AFFINITY PREDICTED BY RF-SCORE:    0.00 PKD
ROOT
HETATM    1  C   UNL     1      -9.934  10.306  64.790  1.00  0.00    -0.392 C  
HETATM    2  C   UNL     1     -10.050  11.372  63.706  1.00  0.00    -0.362 C  
HETATM    3  C   UNL     1      -9.082  11.091  62.565  1.00  0.00    -0.362 C  
ENDROOT
BRANCH   2   4
HETATM    4  O   UNL     1     -11.382  11.355  63.159  1.00  0.00    -0.176 OA 
BRANCH   4   5
HETATM    5  C   UNL     1     -12.241  12.268  63.697  1.00  0.00    -0.567 C  
HETATM    6  O   UNL     1     -13.410  12.052  63.992  1.00  0.00    -0.703 OA 
BRANCH   5   7
HETATM    7  C   UNL     1     -11.542  13.594  63.853  1.00  0.00    -0.294 C  
BRANCH   7   8
HETATM    8  C   UNL     1     -12.225  14.448  64.923  1.00  0.00    -0.440 C  
BRANCH   8   9
HETATM    9  C   UNL     1     -11.263  14.942  66.001  1.00  0.00    -0.327 C  
BRANCH   9  10
HETATM   10  C   UNL     1     -10.333  16.007  65.493  1.00  0.00    -0.415 C  
HETATM   11  C   UNL     1      -9.205  16.437  66.084  1.00  0.00    -0.365 C  
BRANCH  11  12
HETATM   12  C   UNL     1      -8.616  15.929  67.369  1.00  0.00    -0.189 C  
BRANCH  12  13
HETATM   13  C   UNL     1      -7.735  14.673  67.257  1.00  0.00    -0.198 C  
HETATM   14  C   UNL     1      -6.304  14.960  67.750  1.00  0.00    -0.155 C  
HETATM   15  C   UNL     1      -5.707  13.574  67.906  1.00  0.00    -0.125 C  
HETATM   16  O   UNL     1      -6.304  15.584  69.034  1.00  0.00    -0.106 OA 
HETATM   17  C   UNL     1      -6.841  12.774  68.539  1.00  0.00    -0.094 C  
HETATM   18  H   UNL     1      -5.422  15.761  69.338  1.00  0.00     0.000 HD 
HETATM   19  C   UNL     1      -8.168  13.464  68.125  1.00  0.00    -0.160 C  
HETATM   20  O   UNL     1      -6.727  12.803  69.960  1.00  0.00    -0.354 OA 
HETATM   21  H   UNL     1      -7.433  12.304  70.354  1.00  0.00     0.000 HD 
BRANCH  19  22
HETATM   22  C   UNL     1      -9.097  12.487  67.382  1.00  0.00    -0.185 C  
BRANCH  22  23
HETATM   23  C   UNL     1      -9.972  11.710  68.370  1.00  0.00    -0.201 C  
BRANCH  23  24
HETATM   24  C   UNL     1     -11.464  12.055  68.306  1.00  0.00    -0.303 C  
HETATM   25  O   UNL     1     -12.231  10.870  68.093  1.00  0.00    -0.781 OA 
HETATM   26  H   UNL     1     -13.156  11.084  68.054  1.00  0.00     0.000 HD 
BRANCH  24  27
HETATM   27  C   UNL     1     -11.951  12.681  69.622  1.00  0.00    -0.352 C  
BRANCH  27  28
HETATM   28  C   UNL     1     -12.089  14.201  69.542  1.00  0.00    -0.388 C  
BRANCH  28  29
HETATM   29  C   UNL     1     -12.496  14.806  70.858  1.00  0.00    -0.396 A  
HETATM   30  C   UNL     1     -13.849  14.847  71.223  1.00  0.00    -0.500 A  
HETATM   31  C   UNL     1     -14.233  15.401  72.443  1.00  0.00    -0.584 A  
HETATM   32  C   UNL     1     -13.270  15.924  73.304  1.00  0.00    -0.698 A  
HETATM   33  C   UNL     1     -11.923  15.896  72.945  1.00  0.00    -0.609 A  
HETATM   34  C   UNL     1     -11.537  15.341  71.724  1.00  0.00    -0.498 A  
ENDBRANCH  28  29
ENDBRANCH  27  28
ENDBRANCH  24  27
ENDBRANCH  23  24
ENDBRANCH  22  23
ENDBRANCH  19  22
ENDBRANCH  12  13
ENDBRANCH  11  12
ENDBRANCH   9  10
ENDBRANCH   8   9
ENDBRANCH   7   8
ENDBRANCH   5   7
ENDBRANCH   4   5
ENDBRANCH   2   4
TORSDOF 14
ENDMDL
MODEL       26
REMARK 921   NORMALIZED FREE ENERGY PREDICTED BY IDOCK:   -5.82 KCAL/MOL
REMARK 922        TOTAL FREE ENERGY PREDICTED BY IDOCK:  -13.88 KCAL/MOL
REMARK 923 INTER-LIGAND FREE ENERGY PREDICTED BY IDOCK:  -11.20 KCAL/MOL
REMARK 924 INTRA-LIGAND FREE ENERGY PREDICTED BY IDOCK:   -2.68 KCAL/MOL
REMARK 927      BINDING AFFINITY PREDICTED BY RF-SCORE:    0.00 PKD
ROOT
HETATM    1  C   UNL     1      -7.624  19.208  67.650  1.00  0.00    -0.266 C  
HETATM    2  C   UNL     1      -7.761  18.125  66.586  1.00  0.00    -0.236 C  
HETATM    3  C   UNL     1      -6.421  17.449  66.328  1.00  0.00    -0.270 C  
ENDROOT
BRANCH   2   4
HETATM    4  O   UNL     1      -8.675  17.113  67.047  1.00  0.00    -0.212 OA 
BRANCH   4   5
HETATM    5  C   UNL     1      -9.957  17.243  66.599  1.00  0.00    -0.294 C  
HETATM    6  O   UNL     1     -10.321  17.087  65.440  1.00  0.00    -0.617 OA 
BRANCH   5   7
HETATM    7  C   UNL     1     -10.859  17.629  67.744  1.00  0.00    -0.241 C  
BRANCH   7   8
HETATM    8  C   UNL     1     -10.611  16.733  68.958  1.00  0.00    -0.343 C  
BRANCH   8   9
HETATM    9  C   UNL     1     -11.885  16.086  69.497  1.00  0.00    -0.243 C  
BRANCH   9  10
HETATM   10  C   UNL     1     -11.790  14.587  69.542  1.00  0.00    -0.374 C  
HETATM   11  C   UNL     1     -11.856  13.747  68.495  1.00  0.00    -0.406 C  
BRANCH  11  12
HETATM   12  C   UNL     1     -12.014  14.124  67.050  1.00  0.00    -0.471 C  
BRANCH  12  13
HETATM   13  C   UNL     1     -11.924  12.969  66.037  1.00  0.00    -0.498 C  
HETATM   14  C   UNL     1     -12.504  13.388  64.673  1.00  0.00    -0.331 C  
HETATM   15  C   UNL     1     -12.015  12.298  63.739  1.00  0.00    -0.609 C  
HETATM   16  O   UNL     1     -11.955  14.628  64.225  1.00  0.00    -0.595 OA 
HETATM   17  C   UNL     1     -10.574  12.074  64.187  1.00  0.00    -0.355 C  
HETATM   18  H   UNL     1     -12.313  14.886  63.384  1.00  0.00     0.000 HD 
HETATM   19  C   UNL     1     -10.492  12.497  65.678  1.00  0.00    -0.299 C  
HETATM   20  O   UNL     1      -9.691  12.895  63.424  1.00  0.00    -0.530 OA 
HETATM   21  H   UNL     1      -8.794  12.755  63.703  1.00  0.00     0.000 HD 
BRANCH  19  22
HETATM   22  C   UNL     1      -9.999  11.335  66.561  1.00  0.00    -0.247 C  
BRANCH  22  23
HETATM   23  C   UNL     1      -8.789  11.763  67.397  1.00  0.00    -0.164 C  
BRANCH  23  24
HETATM   24  C   UNL     1      -8.223  10.665  68.304  1.00  0.00    -0.120 C  
HETATM   25  O   UNL     1      -7.695  11.242  69.499  1.00  0.00    -0.362 OA 
HETATM   26  H   UNL     1      -7.344  10.562  70.061  1.00  0.00     0.000 HD 
BRANCH  24  27
HETATM   27  C   UNL     1      -9.313   9.668  68.725  1.00  0.00    -0.148 C  
BRANCH  27  28
HETATM   28  C   UNL     1      -9.332   9.408  70.231  1.00  0.00    -0.294 C  
BRANCH  28  29
HETATM   29  C   UNL     1     -10.689   9.647  70.834  1.00  0.00    -0.402 A  
HETATM   30  C   UNL     1     -11.467  10.732  70.405  1.00  0.00    -0.397 A  
HETATM   31  C   UNL     1     -12.727  10.957  70.956  1.00  0.00    -0.505 A  
HETATM   32  C   UNL     1     -13.218  10.104  71.942  1.00  0.00    -0.557 A  
HETATM   33  C   UNL     1     -12.448   9.028  72.381  1.00  0.00    -0.375 A  
HETATM   34  C   UNL     1     -11.185   8.801  71.831  1.00  0.00    -0.438 A  
ENDBRANCH  28  29
ENDBRANCH  27  28
ENDBRANCH  24  27
ENDBRANCH  23  24
ENDBRANCH  22  23
ENDBRANCH  19  22
ENDBRANCH  12  13
ENDBRANCH  11  12
ENDBRANCH   9  10
ENDBRANCH   8   9
ENDBRANCH   7   8
ENDBRANCH   5   7
ENDBRANCH   4   5
ENDBRANCH   2   4
TORSDOF 14
ENDMDL
MODEL       27
REMARK 921   NORMALIZED FREE ENERGY PREDICTED BY IDOCK:   -5.78 KCAL/MOL
REMARK 922        TOTAL FREE ENERGY PREDICTED BY IDOCK:  -13.81 KCAL/MOL
REMARK 923 INTER-LIGAND FREE ENERGY PREDICTED BY IDOCK:  -10.66 KCAL/MOL
REMARK 924 INTRA-LIGAND FREE ENERGY PREDICTED BY IDOCK:   -3.16 KCAL/MOL
REMARK 927      BINDING AFFINITY PREDICTED BY RF-SCORE:    0.00 PKD
ROOT
HETATM    1  C   UNL     1     -10.015   4.627  71.032  1.00  0.00    -0.270 C  
HETATM    2  C   UNL     1      -9.472   5.940  71.587  1.00  0.00    -0.149 C  
HETATM    3  C   UNL     1      -8.240   6.386  70.810  1.00  0.00    -0.125 C  
ENDROOT
BRANCH   2   4
HETATM    4  O   UNL     1     -10.469   6.969  71.445  1.00  0.00    -0.209 OA 
BRANCH   4   5
HETATM    5  C   UNL     1     -10.807   7.611  72.601  1.00  0.00    -0.340 C  
HETATM    6  O   UNL     1     -10.616   7.181  73.732  1.00  0.00    -0.377 OA 
BRANCH   5   7
HETATM    7  C   UNL     1     -11.475   8.923  72.276  1.00  0.00    -0.307 C  
BRANCH   7   8
HETATM    8  C   UNL     1     -12.961   8.718  71.977  1.00  0.00    -0.437 C  
BRANCH   8   9
HETATM    9  C   UNL     1     -13.588   9.887  71.222  1.00  0.00    -0.265 C  
BRANCH   9  10
HETATM   10  C   UNL     1     -12.696  11.096  71.196  1.00  0.00    -0.510 C  
HETATM   11  C   UNL     1     -11.994  11.553  70.145  1.00  0.00    -0.452 C  
BRANCH  11  12
HETATM   12  C   UNL     1     -11.967  10.970  68.762  1.00  0.00    -0.295 C  
BRANCH  12  13
HETATM   13  C   UNL     1     -10.576  10.624  68.202  1.00  0.00    -0.237 C  
HETATM   14  C   UNL     1     -10.002   9.373  68.893  1.00  0.00    -0.179 C  
HETATM   15  C   UNL     1      -8.842   8.984  67.996  1.00  0.00    -0.129 C  
HETATM   16  O   UNL     1     -10.937   8.295  68.894  1.00  0.00    -0.429 OA 
HETATM   17  C   UNL     1      -9.405   9.180  66.592  1.00  0.00    -0.177 C  
HETATM   18  H   UNL     1     -10.583   7.523  69.321  1.00  0.00     0.000 HD 
HETATM   19  C   UNL     1     -10.528  10.246  66.699  1.00  0.00    -0.260 C  
HETATM   20  O   UNL     1      -9.969   7.960  66.115  1.00  0.00    -0.466 OA 
HETATM   21  H   UNL     1     -10.320   8.083  65.241  1.00  0.00     0.000 HD 
BRANCH  19  22
HETATM   22  C   UNL     1     -10.244  11.450  65.782  1.00  0.00    -0.295 C  
BRANCH  22  23
HETATM   23  C   UNL     1     -10.639  11.136  64.336  1.00  0.00    -0.411 C  
BRANCH  23  24
HETATM   24  C   UNL     1     -11.651  12.114  63.727  1.00  0.00    -0.470 C  
HETATM   25  O   UNL     1     -12.547  11.414  62.863  1.00  0.00    -0.970 OA 
HETATM   26  H   UNL     1     -13.174  12.020  62.486  1.00  0.00     0.000 HD 
BRANCH  24  27
HETATM   27  C   UNL     1     -12.503  12.787  64.814  1.00  0.00    -0.539 C  
BRANCH  27  28
HETATM   28  C   UNL     1     -12.323  14.305  64.856  1.00  0.00    -0.435 C  
BRANCH  28  29
HETATM   29  C   UNL     1     -11.324  14.731  65.897  1.00  0.00    -0.331 A  
HETATM   30  C   UNL     1     -11.626  14.592  67.259  1.00  0.00    -0.405 A  
HETATM   31  C   UNL     1     -10.704  14.980  68.229  1.00  0.00    -0.253 A  
HETATM   32  C   UNL     1      -9.476  15.516  67.846  1.00  0.00    -0.201 A  
HETATM   33  C   UNL     1      -9.171  15.668  66.494  1.00  0.00    -0.325 A  
HETATM   34  C   UNL     1     -10.093  15.279  65.522  1.00  0.00    -0.408 A  
ENDBRANCH  28  29
ENDBRANCH  27  28
ENDBRANCH  24  27
ENDBRANCH  23  24
ENDBRANCH  22  23
ENDBRANCH  19  22
ENDBRANCH  12  13
ENDBRANCH  11  12
ENDBRANCH   9  10
ENDBRANCH   8   9
ENDBRANCH   7   8
ENDBRANCH   5   7
ENDBRANCH   4   5
ENDBRANCH   2   4
TORSDOF 14
ENDMDL
MODEL       28
REMARK 921   NORMALIZED FREE ENERGY PREDICTED BY IDOCK:   -5.78 KCAL/MOL
REMARK 922        TOTAL FREE ENERGY PREDICTED BY IDOCK:  -13.79 KCAL/MOL
REMARK 923 INTER-LIGAND FREE ENERGY PREDICTED BY IDOCK:  -10.85 KCAL/MOL
REMARK 924 INTRA-LIGAND FREE ENERGY PREDICTED BY IDOCK:   -2.94 KCAL/MOL
REMARK 927      BINDING AFFINITY PREDICTED BY RF-SCORE:    0.00 PKD
ROOT
HETATM    1  C   UNL     1     -11.967  13.584  65.610  1.00  0.00    -0.429 C  
HETATM    2  C   UNL     1     -11.754  12.249  64.904  1.00  0.00    -0.352 C  
HETATM    3  C   UNL     1     -12.378  12.266  63.515  1.00  0.00    -0.670 C  
ENDROOT
BRANCH   2   4
HETATM    4  O   UNL     1     -10.343  12.013  64.742  1.00  0.00    -0.262 OA 
BRANCH   4   5
HETATM    5  C   UNL     1      -9.843  10.972  65.469  1.00  0.00    -0.243 C  
HETATM    6  O   UNL     1     -10.278   9.827  65.459  1.00  0.00    -0.256 OA 
BRANCH   5   7
HETATM    7  C   UNL     1      -8.683  11.448  66.305  1.00  0.00    -0.173 C  
BRANCH   7   8
HETATM    8  C   UNL     1      -9.121  11.703  67.749  1.00  0.00    -0.175 C  
BRANCH   8   9
HETATM    9  C   UNL     1      -9.161  13.186  68.111  1.00  0.00    -0.215 C  
BRANCH   9  10
HETATM   10  C   UNL     1      -8.592  14.056  67.026  1.00  0.00    -0.193 C  
HETATM   11  C   UNL     1      -8.043  15.272  67.178  1.00  0.00    -0.248 C  
BRANCH  11  12
HETATM   12  C   UNL     1      -7.855  16.018  68.468  1.00  0.00    -0.160 C  
BRANCH  12  13
HETATM   13  C   UNL     1      -8.913  17.086  68.791  1.00  0.00    -0.249 C  
HETATM   14  C   UNL     1      -8.362  18.501  68.533  1.00  0.00    -0.334 C  
HETATM   15  C   UNL     1      -9.608  19.366  68.552  1.00  0.00    -0.472 C  
HETATM   16  O   UNL     1      -7.773  18.609  67.237  1.00  0.00    -0.228 OA 
HETATM   17  C   UNL     1     -10.624  18.533  67.779  1.00  0.00    -0.385 C  
HETATM   18  H   UNL     1      -7.432  19.482  67.079  1.00  0.00     0.000 HD 
HETATM   19  C   UNL     1     -10.198  17.048  67.925  1.00  0.00    -0.317 C  
HETATM   20  O   UNL     1     -10.599  18.888  66.397  1.00  0.00    -0.410 OA 
HETATM   21  H   UNL     1     -11.232  18.368  65.916  1.00  0.00     0.000 HD 
BRANCH  19  22
HETATM   22  C   UNL     1     -11.324  16.204  68.550  1.00  0.00    -0.359 C  
BRANCH  22  23
HETATM   23  C   UNL     1     -11.128  16.071  70.063  1.00  0.00    -0.362 C  
BRANCH  23  24
HETATM   24  C   UNL     1     -12.204  15.241  70.773  1.00  0.00    -0.360 C  
HETATM   25  O   UNL     1     -13.498  15.776  70.494  1.00  0.00    -0.776 OA 
HETATM   26  H   UNL     1     -14.164  15.261  70.933  1.00  0.00     0.000 HD 
BRANCH  24  27
HETATM   27  C   UNL     1     -12.200  13.784  70.285  1.00  0.00    -0.429 C  
BRANCH  27  28
HETATM   28  C   UNL     1     -12.968  12.843  71.214  1.00  0.00    -0.317 C  
BRANCH  28  29
HETATM   29  C   UNL     1     -12.520  11.414  71.075  1.00  0.00    -0.486 A  
HETATM   30  C   UNL     1     -11.570  11.067  70.104  1.00  0.00    -0.421 A  
HETATM   31  C   UNL     1     -11.147   9.746  69.973  1.00  0.00    -0.311 A  
HETATM   32  C   UNL     1     -11.673   8.760  70.806  1.00  0.00    -0.253 A  
HETATM   33  C   UNL     1     -12.626   9.095  71.767  1.00  0.00    -0.446 A  
HETATM   34  C   UNL     1     -13.050  10.418  71.901  1.00  0.00    -0.563 A  
ENDBRANCH  28  29
ENDBRANCH  27  28
ENDBRANCH  24  27
ENDBRANCH  23  24
ENDBRANCH  22  23
ENDBRANCH  19  22
ENDBRANCH  12  13
ENDBRANCH  11  12
ENDBRANCH   9  10
ENDBRANCH   8   9
ENDBRANCH   7   8
ENDBRANCH   5   7
ENDBRANCH   4   5
ENDBRANCH   2   4
TORSDOF 14
ENDMDL
MODEL       29
REMARK 921   NORMALIZED FREE ENERGY PREDICTED BY IDOCK:   -5.77 KCAL/MOL
REMARK 922        TOTAL FREE ENERGY PREDICTED BY IDOCK:  -13.79 KCAL/MOL
REMARK 923 INTER-LIGAND FREE ENERGY PREDICTED BY IDOCK:  -11.08 KCAL/MOL
REMARK 924 INTRA-LIGAND FREE ENERGY PREDICTED BY IDOCK:   -2.71 KCAL/MOL
REMARK 927      BINDING AFFINITY PREDICTED BY RF-SCORE:    0.00 PKD
ROOT
HETATM    1  C   UNL     1     -10.659  16.902  67.554  1.00  0.00    -0.307 C  
HETATM    2  C   UNL     1     -10.031  16.764  66.171  1.00  0.00    -0.327 C  
HETATM    3  C   UNL     1      -8.511  16.738  66.268  1.00  0.00    -0.342 C  
ENDROOT
BRANCH   2   4
HETATM    4  O   UNL     1     -10.449  15.521  65.577  1.00  0.00    -0.329 OA 
BRANCH   4   5
HETATM    5  C   UNL     1     -11.383  15.636  64.588  1.00  0.00    -0.349 C  
HETATM    6  O   UNL     1     -11.596  16.647  63.931  1.00  0.00    -1.204 OA 
BRANCH   5   7
HETATM    7  C   UNL     1     -12.130  14.335  64.442  1.00  0.00    -0.490 C  
BRANCH   7   8
HETATM    8  C   UNL     1     -11.271  13.158  64.908  1.00  0.00    -0.333 C  
BRANCH   8   9
HETATM    9  C   UNL     1     -10.527  12.469  63.767  1.00  0.00    -0.451 C  
BRANCH   9  10
HETATM   10  C   UNL     1     -10.584  10.971  63.869  1.00  0.00    -0.382 C  
HETATM   11  C   UNL     1      -9.650  10.167  64.405  1.00  0.00    -0.366 C  
BRANCH  11  12
HETATM   12  C   UNL     1      -8.358  10.592  65.040  1.00  0.00    -0.140 C  
BRANCH  12  13
HETATM   13  C   UNL     1      -8.281  10.458  66.571  1.00  0.00    -0.131 C  
HETATM   14  C   UNL     1      -6.896  10.885  67.091  1.00  0.00    -0.093 C  
HETATM   15  C   UNL     1      -7.118  11.032  68.585  1.00  0.00    -0.080 C  
HETATM   16  O   UNL     1      -6.510  12.160  66.578  1.00  0.00    -0.438 OA 
HETATM   17  C   UNL     1      -8.474  11.723  68.671  1.00  0.00    -0.068 C  
HETATM   18  H   UNL     1      -5.655  12.423  66.899  1.00  0.00     0.000 HD 
HETATM   19  C   UNL     1      -9.251  11.359  67.377  1.00  0.00    -0.164 C  
HETATM   20  O   UNL     1      -8.301  13.138  68.724  1.00  0.00    -0.344 OA 
HETATM   21  H   UNL     1      -9.147  13.568  68.777  1.00  0.00     0.000 HD 
BRANCH  19  22
HETATM   22  C   UNL     1     -10.588  10.669  67.704  1.00  0.00    -0.288 C  
BRANCH  22  23
HETATM   23  C   UNL     1     -10.375   9.503  68.675  1.00  0.00    -0.229 C  
BRANCH  23  24
HETATM   24  C   UNL     1     -11.334   9.488  69.871  1.00  0.00    -0.126 C  
HETATM   25  O   UNL     1     -10.596   9.573  71.090  1.00  0.00    -0.319 OA 
HETATM   26  H   UNL     1     -11.191   9.564  71.831  1.00  0.00     0.000 HD 
BRANCH  24  27
HETATM   27  C   UNL     1     -12.292  10.688  69.835  1.00  0.00    -0.304 C  
BRANCH  27  28
HETATM   28  C   UNL     1     -12.686  11.177  71.230  1.00  0.00    -0.531 C  
BRANCH  28  29
HETATM   29  C   UNL     1     -12.805  12.675  71.296  1.00  0.00    -0.344 A  
HETATM   30  C   UNL     1     -13.645  13.271  72.247  1.00  0.00    -0.703 A  
HETATM   31  C   UNL     1     -13.756  14.659  72.318  1.00  0.00    -0.565 A  
HETATM   32  C   UNL     1     -13.035  15.460  71.436  1.00  0.00    -0.532 A  
HETATM   33  C   UNL     1     -12.205  14.876  70.480  1.00  0.00    -0.388 A  
HETATM   34  C   UNL     1     -12.092  13.486  70.409  1.00  0.00    -0.415 A  
ENDBRANCH  28  29
ENDBRANCH  27  28
ENDBRANCH  24  27
ENDBRANCH  23  24
ENDBRANCH  22  23
ENDBRANCH  19  22
ENDBRANCH  12  13
ENDBRANCH  11  12
ENDBRANCH   9  10
ENDBRANCH   8   9
ENDBRANCH   7   8
ENDBRANCH   5   7
ENDBRANCH   4   5
ENDBRANCH   2   4
TORSDOF 14
ENDMDL
MODEL       30
REMARK 921   NORMALIZED FREE ENERGY PREDICTED BY IDOCK:   -5.77 KCAL/MOL
REMARK 922        TOTAL FREE ENERGY PREDICTED BY IDOCK:  -13.78 KCAL/MOL
REMARK 923 INTER-LIGAND FREE ENERGY PREDICTED BY IDOCK:  -11.15 KCAL/MOL
REMARK 924 INTRA-LIGAND FREE ENERGY PREDICTED BY IDOCK:   -2.63 KCAL/MOL
REMARK 927      BINDING AFFINITY PREDICTED BY RF-SCORE:    0.00 PKD
ROOT
HETATM    1  C   UNL     1     -10.381  17.095  66.058  1.00  0.00    -0.317 C  
HETATM    2  C   UNL     1     -10.040  18.036  67.208  1.00  0.00    -0.342 C  
HETATM    3  C   UNL     1     -10.876  19.306  67.133  1.00  0.00    -0.543 C  
ENDROOT
BRANCH   2   4
HETATM    4  O   UNL     1     -10.342  17.392  68.460  1.00  0.00    -0.337 OA 
BRANCH   4   5
HETATM    5  C   UNL     1      -9.376  16.548  68.926  1.00  0.00    -0.256 C  
HETATM    6  O   UNL     1      -8.173  16.779  68.924  1.00  0.00    -0.244 OA 
BRANCH   5   7
HETATM    7  C   UNL     1     -10.011  15.275  69.423  1.00  0.00    -0.257 C  
BRANCH   7   8
HETATM    8  C   UNL     1     -11.535  15.402  69.454  1.00  0.00    -0.335 C  
BRANCH   8   9
HETATM    9  C   UNL     1     -12.248  14.059  69.583  1.00  0.00    -0.383 C  
BRANCH   9  10
HETATM   10  C   UNL     1     -12.533  13.698  71.014  1.00  0.00    -0.456 C  
HETATM   11  C   UNL     1     -12.795  12.471  71.495  1.00  0.00    -0.367 C  
BRANCH  11  12
HETATM   12  C   UNL     1     -12.833  11.189  70.713  1.00  0.00    -0.322 C  
BRANCH  12  13
HETATM   13  C   UNL     1     -12.151   9.976  71.370  1.00  0.00    -0.498 C  
HETATM   14  C   UNL     1     -13.196   9.010  71.957  1.00  0.00    -0.429 C  
HETATM   15  C   UNL     1     -12.392   7.751  72.224  1.00  0.00    -0.260 C  
HETATM   16  O   UNL     1     -14.211   8.688  71.005  1.00  0.00    -0.627 OA 
HETATM   17  C   UNL     1     -11.505   7.634  70.989  1.00  0.00    -0.276 C  
HETATM   18  H   UNL     1     -14.856   8.092  71.367  1.00  0.00     0.000 HD 
HETATM   19  C   UNL     1     -11.328   9.068  70.421  1.00  0.00    -0.242 C  
HETATM   20  O   UNL     1     -12.141   6.822  70.004  1.00  0.00    -0.650 OA 
HETATM   21  H   UNL     1     -11.588   6.749  69.235  1.00  0.00     0.000 HD 
BRANCH  19  22
HETATM   22  C   UNL     1      -9.841   9.459  70.348  1.00  0.00    -0.313 C  
BRANCH  22  23
HETATM   23  C   UNL     1      -9.186   8.872  69.094  1.00  0.00    -0.144 C  
BRANCH  23  24
HETATM   24  C   UNL     1      -8.941   9.887  67.971  1.00  0.00    -0.121 C  
HETATM   25  O   UNL     1      -7.879   9.436  67.128  1.00  0.00    -0.098 OA 
HETATM   26  H   UNL     1      -7.728  10.064  66.432  1.00  0.00     0.000 HD 
BRANCH  24  27
HETATM   27  C   UNL     1     -10.185  10.052  67.084  1.00  0.00    -0.284 C  
BRANCH  27  28
HETATM   28  C   UNL     1     -10.994  11.303  67.422  1.00  0.00    -0.337 C  
BRANCH  28  29
HETATM   29  C   UNL     1     -11.397  12.071  66.193  1.00  0.00    -0.407 A  
HETATM   30  C   UNL     1     -11.040  11.600  64.922  1.00  0.00    -0.317 A  
HETATM   31  C   UNL     1     -11.414  12.303  63.778  1.00  0.00    -0.545 A  
HETATM   32  C   UNL     1     -12.142  13.485  63.896  1.00  0.00    -0.493 A  
HETATM   33  C   UNL     1     -12.494  13.967  65.156  1.00  0.00    -0.479 A  
HETATM   34  C   UNL     1     -12.120  13.263  66.302  1.00  0.00    -0.472 A  
ENDBRANCH  28  29
ENDBRANCH  27  28
ENDBRANCH  24  27
ENDBRANCH  23  24
ENDBRANCH  22  23
ENDBRANCH  19  22
ENDBRANCH  12  13
ENDBRANCH  11  12
ENDBRANCH   9  10
ENDBRANCH   8   9
ENDBRANCH   7   8
ENDBRANCH   5   7
ENDBRANCH   4   5
ENDBRANCH   2   4
TORSDOF 14
ENDMDL
MODEL       31
REMARK 921   NORMALIZED FREE ENERGY PREDICTED BY IDOCK:   -5.76 KCAL/MOL
REMARK 922        TOTAL FREE ENERGY PREDICTED BY IDOCK:  -13.76 KCAL/MOL
REMARK 923 INTER-LIGAND FREE ENERGY PREDICTED BY IDOCK:  -10.66 KCAL/MOL
REMARK 924 INTRA-LIGAND FREE ENERGY PREDICTED BY IDOCK:   -3.10 KCAL/MOL
REMARK 927      BINDING AFFINITY PREDICTED BY RF-SCORE:    0.00 PKD
ROOT
HETATM    1  C   UNL     1      -6.636   9.544  66.298  1.00  0.00    -0.071 C  
HETATM    2  C   UNL     1      -7.450   9.198  65.056  1.00  0.00    -0.105 C  
HETATM    3  C   UNL     1      -6.741   8.139  64.223  1.00  0.00    -0.066 C  
ENDROOT
BRANCH   2   4
HETATM    4  O   UNL     1      -8.723   8.657  65.453  1.00  0.00    -0.173 OA 
BRANCH   4   5
HETATM    5  C   UNL     1      -9.705   9.580  65.666  1.00  0.00    -0.290 C  
HETATM    6  O   UNL     1      -9.958  10.526  64.931  1.00  0.00    -0.289 OA 
BRANCH   5   7
HETATM    7  C   UNL     1     -10.421   9.272  66.956  1.00  0.00    -0.303 C  
BRANCH   7   8
HETATM    8  C   UNL     1     -10.537  10.524  67.827  1.00  0.00    -0.285 C  
BRANCH   8   9
HETATM    9  C   UNL     1      -9.362  10.700  68.786  1.00  0.00    -0.183 C  
BRANCH   9  10
HETATM   10  C   UNL     1      -8.791   9.386  69.237  1.00  0.00    -0.150 C  
HETATM   11  C   UNL     1      -9.102   8.720  70.362  1.00  0.00    -0.198 C  
BRANCH  11  12
HETATM   12  C   UNL     1     -10.106   9.130  71.400  1.00  0.00    -0.392 C  
BRANCH  12  13
HETATM   13  C   UNL     1     -11.580   8.852  71.061  1.00  0.00    -0.347 C  
HETATM   14  C   UNL     1     -12.019   7.478  71.603  1.00  0.00    -0.302 C  
HETATM   15  C   UNL     1     -13.531   7.532  71.502  1.00  0.00    -0.426 C  
HETATM   16  O   UNL     1     -11.677   7.321  72.980  1.00  0.00    -0.564 OA 
HETATM   17  C   UNL     1     -13.863   8.945  71.973  1.00  0.00    -0.456 C  
HETATM   18  H   UNL     1     -11.947   6.473  73.314  1.00  0.00     0.000 HD 
HETATM   19  C   UNL     1     -12.613   9.821  71.690  1.00  0.00    -0.509 C  
HETATM   20  O   UNL     1     -14.121   8.946  73.375  1.00  0.00    -1.256 OA 
HETATM   21  H   UNL     1     -14.328   9.825  73.668  1.00  0.00     0.000 HD 
BRANCH  19  22
HETATM   22  C   UNL     1     -12.961  11.011  70.776  1.00  0.00    -0.263 C  
BRANCH  22  23
HETATM   23  C   UNL     1     -13.004  12.316  71.576  1.00  0.00    -0.390 C  
BRANCH  23  24
HETATM   24  C   UNL     1     -12.627  13.566  70.772  1.00  0.00    -0.309 C  
HETATM   25  O   UNL     1     -11.871  14.462  71.588  1.00  0.00    -0.394 OA 
HETATM   26  H   UNL     1     -11.637  15.236  71.090  1.00  0.00     0.000 HD 
BRANCH  24  27
HETATM   27  C   UNL     1     -11.753  13.210  69.560  1.00  0.00    -0.382 C  
BRANCH  27  28
HETATM   28  C   UNL     1     -11.337  14.436  68.746  1.00  0.00    -0.299 C  
BRANCH  28  29
HETATM   29  C   UNL     1     -11.386  14.180  67.264  1.00  0.00    -0.349 A  
HETATM   30  C   UNL     1     -10.381  14.689  66.430  1.00  0.00    -0.293 A  
HETATM   31  C   UNL     1     -10.418  14.452  65.057  1.00  0.00    -0.454 A  
HETATM   32  C   UNL     1     -11.460  13.709  64.507  1.00  0.00    -0.401 A  
HETATM   33  C   UNL     1     -12.469  13.207  65.328  1.00  0.00    -0.550 A  
HETATM   34  C   UNL     1     -12.434  13.443  66.703  1.00  0.00    -0.212 A  
ENDBRANCH  28  29
ENDBRANCH  27  28
ENDBRANCH  24  27
ENDBRANCH  23  24
ENDBRANCH  22  23
ENDBRANCH  19  22
ENDBRANCH  12  13
ENDBRANCH  11  12
ENDBRANCH   9  10
ENDBRANCH   8   9
ENDBRANCH   7   8
ENDBRANCH   5   7
ENDBRANCH   4   5
ENDBRANCH   2   4
TORSDOF 14
ENDMDL
MODEL       32
REMARK 921   NORMALIZED FREE ENERGY PREDICTED BY IDOCK:   -5.75 KCAL/MOL
REMARK 922        TOTAL FREE ENERGY PREDICTED BY IDOCK:  -13.75 KCAL/MOL
REMARK 923 INTER-LIGAND FREE ENERGY PREDICTED BY IDOCK:  -10.82 KCAL/MOL
REMARK 924 INTRA-LIGAND FREE ENERGY PREDICTED BY IDOCK:   -2.93 KCAL/MOL
REMARK 927      BINDING AFFINITY PREDICTED BY RF-SCORE:    0.00 PKD
ROOT
HETATM    1  C   UNL     1      -7.762   5.996  68.659  1.00  0.00    -0.095 C  
HETATM    2  C   UNL     1      -7.844   7.497  68.917  1.00  0.00    -0.124 C  
HETATM    3  C   UNL     1      -8.174   8.248  67.634  1.00  0.00    -0.127 C  
ENDROOT
BRANCH   2   4
HETATM    4  O   UNL     1      -8.898   7.764  69.860  1.00  0.00    -0.141 OA 
BRANCH   4   5
HETATM    5  C   UNL     1      -8.557   8.587  70.893  1.00  0.00    -0.158 C  
HETATM    6  O   UNL     1      -7.419   8.946  71.166  1.00  0.00    -0.095 OA 
BRANCH   5   7
HETATM    7  C   UNL     1      -9.793   8.972  71.665  1.00  0.00    -0.366 C  
BRANCH   7   8
HETATM    8  C   UNL     1     -10.955   9.276  70.717  1.00  0.00    -0.349 C  
BRANCH   8   9
HETATM    9  C   UNL     1     -10.833  10.636  70.035  1.00  0.00    -0.280 C  
BRANCH   9  10
HETATM   10  C   UNL     1     -11.895  10.851  68.994  1.00  0.00    -0.370 C  
HETATM   11  C   UNL     1     -11.699  11.142  67.697  1.00  0.00    -0.168 C  
BRANCH  11  12
HETATM   12  C   UNL     1     -10.377  11.291  66.999  1.00  0.00    -0.263 C  
BRANCH  12  13
HETATM   13  C   UNL     1     -10.392  12.098  65.689  1.00  0.00    -0.289 C  
HETATM   14  C   UNL     1      -9.787  11.279  64.534  1.00  0.00    -0.270 C  
HETATM   15  C   UNL     1     -10.204  12.059  63.301  1.00  0.00    -0.398 C  
HETATM   16  O   UNL     1     -10.369   9.978  64.448  1.00  0.00    -0.376 OA 
HETATM   17  C   UNL     1     -11.648  12.444  63.604  1.00  0.00    -0.499 C  
HETATM   18  H   UNL     1      -9.995   9.473  63.735  1.00  0.00     0.000 HD 
HETATM   19  C   UNL     1     -11.793  12.483  65.149  1.00  0.00    -0.450 C  
HETATM   20  O   UNL     1     -12.538  11.460  63.081  1.00  0.00    -0.835 OA 
HETATM   21  H   UNL     1     -13.438  11.700  63.269  1.00  0.00     0.000 HD 
BRANCH  19  22
HETATM   22  C   UNL     1     -12.268  13.866  65.630  1.00  0.00    -0.477 C  
BRANCH  22  23
HETATM   23  C   UNL     1     -11.103  14.860  65.663  1.00  0.00    -0.348 C  
BRANCH  23  24
HETATM   24  C   UNL     1     -10.740  15.369  67.063  1.00  0.00    -0.321 C  
HETATM   25  O   UNL     1     -10.764  16.796  67.085  1.00  0.00    -0.287 OA 
HETATM   26  H   UNL     1     -10.540  17.111  67.953  1.00  0.00     0.000 HD 
BRANCH  24  27
HETATM   27  C   UNL     1     -11.748  14.881  68.115  1.00  0.00    -0.344 C  
BRANCH  27  28
HETATM   28  C   UNL     1     -11.076  14.316  69.366  1.00  0.00    -0.283 C  
BRANCH  28  29
HETATM   29  C   UNL     1     -11.841  14.642  70.620  1.00  0.00    -0.367 A  
HETATM   30  C   UNL     1     -12.713  13.696  71.176  1.00  0.00    -0.432 A  
HETATM   31  C   UNL     1     -13.421  13.989  72.340  1.00  0.00    -0.639 A  
HETATM   32  C   UNL     1     -13.268  15.230  72.954  1.00  0.00    -0.610 A  
HETATM   33  C   UNL     1     -12.410  16.181  72.403  1.00  0.00    -0.554 A  
HETATM   34  C   UNL     1     -11.700  15.889  71.237  1.00  0.00    -0.504 A  
ENDBRANCH  28  29
ENDBRANCH  27  28
ENDBRANCH  24  27
ENDBRANCH  23  24
ENDBRANCH  22  23
ENDBRANCH  19  22
ENDBRANCH  12  13
ENDBRANCH  11  12
ENDBRANCH   9  10
ENDBRANCH   8   9
ENDBRANCH   7   8
ENDBRANCH   5   7
ENDBRANCH   4   5
ENDBRANCH   2   4
TORSDOF 14
ENDMDL
MODEL       33
REMARK 921   NORMALIZED FREE ENERGY PREDICTED BY IDOCK:   -5.73 KCAL/MOL
REMARK 922        TOTAL FREE ENERGY PREDICTED BY IDOCK:  -13.72 KCAL/MOL
REMARK 923 INTER-LIGAND FREE ENERGY PREDICTED BY IDOCK:  -10.99 KCAL/MOL
REMARK 924 INTRA-LIGAND FREE ENERGY PREDICTED BY IDOCK:   -2.73 KCAL/MOL
REMARK 927      BINDING AFFINITY PREDICTED BY RF-SCORE:    0.00 PKD
ROOT
HETATM    1  C   UNL     1     -10.527  19.796  66.181  1.00  0.00    -0.613 C  
HETATM    2  C   UNL     1      -9.693  18.683  66.805  1.00  0.00    -0.329 C  
HETATM    3  C   UNL     1      -8.979  19.179  68.056  1.00  0.00    -0.356 C  
ENDROOT
BRANCH   2   4
HETATM    4  O   UNL     1     -10.556  17.601  67.199  1.00  0.00    -0.339 OA 
BRANCH   4   5
HETATM    5  C   UNL     1      -9.948  16.384  67.305  1.00  0.00    -0.258 C  
HETATM    6  O   UNL     1      -9.719  15.796  68.354  1.00  0.00    -0.199 OA 
BRANCH   5   7
HETATM    7  C   UNL     1      -9.579  15.879  65.933  1.00  0.00    -0.378 C  
BRANCH   7   8
HETATM    8  C   UNL     1     -10.824  15.722  65.058  1.00  0.00    -0.461 C  
BRANCH   8   9
HETATM    9  C   UNL     1     -11.150  14.266  64.734  1.00  0.00    -0.398 C  
BRANCH   9  10
HETATM   10  C   UNL     1     -12.159  13.681  65.682  1.00  0.00    -0.457 C  
HETATM   11  C   UNL     1     -11.905  12.864  66.719  1.00  0.00    -0.452 C  
BRANCH  11  12
HETATM   12  C   UNL     1     -10.558  12.379  67.171  1.00  0.00    -0.247 C  
BRANCH  12  13
HETATM   13  C   UNL     1     -10.264  10.887  66.935  1.00  0.00    -0.272 C  
HETATM   14  C   UNL     1      -9.991  10.610  65.445  1.00  0.00    -0.281 C  
HETATM   15  C   UNL     1      -9.385   9.219  65.457  1.00  0.00    -0.303 C  
HETATM   16  O   UNL     1      -9.019  11.508  64.911  1.00  0.00    -0.405 OA 
HETATM   17  C   UNL     1      -8.442   9.260  66.655  1.00  0.00    -0.126 C  
HETATM   18  H   UNL     1      -8.851  11.337  63.991  1.00  0.00     0.000 HD 
HETATM   19  C   UNL     1      -8.996  10.330  67.632  1.00  0.00    -0.137 C  
HETATM   20  O   UNL     1      -7.134   9.647  66.237  1.00  0.00    -0.090 OA 
HETATM   21  H   UNL     1      -6.547   9.673  66.983  1.00  0.00     0.000 HD 
BRANCH  19  22
HETATM   22  C   UNL     1      -9.284   9.725  69.019  1.00  0.00    -0.165 C  
BRANCH  22  23
HETATM   23  C   UNL     1     -10.777   9.427  69.182  1.00  0.00    -0.216 C  
BRANCH  23  24
HETATM   24  C   UNL     1     -11.246   9.308  70.637  1.00  0.00    -0.276 C  
HETATM   25  O   UNL     1     -10.122   9.336  71.517  1.00  0.00    -0.317 OA 
HETATM   26  H   UNL     1     -10.412   9.263  72.418  1.00  0.00     0.000 HD 
BRANCH  24  27
HETATM   27  C   UNL     1     -12.158  10.480  71.030  1.00  0.00    -0.492 C  
BRANCH  27  28
HETATM   28  C   UNL     1     -11.794  11.782  70.317  1.00  0.00    -0.382 C  
BRANCH  28  29
HETATM   29  C   UNL     1     -12.481  12.976  70.923  1.00  0.00    -0.396 A  
HETATM   30  C   UNL     1     -13.386  12.803  71.979  1.00  0.00    -0.565 A  
HETATM   31  C   UNL     1     -14.022  13.905  72.549  1.00  0.00    -0.565 A  
HETATM   32  C   UNL     1     -13.764  15.185  72.065  1.00  0.00    -0.576 A  
HETATM   33  C   UNL     1     -12.872  15.365  71.007  1.00  0.00    -0.525 A  
HETATM   34  C   UNL     1     -12.234  14.263  70.436  1.00  0.00    -0.411 A  
ENDBRANCH  28  29
ENDBRANCH  27  28
ENDBRANCH  24  27
ENDBRANCH  23  24
ENDBRANCH  22  23
ENDBRANCH  19  22
ENDBRANCH  12  13
ENDBRANCH  11  12
ENDBRANCH   9  10
ENDBRANCH   8   9
ENDBRANCH   7   8
ENDBRANCH   5   7
ENDBRANCH   4   5
ENDBRANCH   2   4
TORSDOF 14
ENDMDL
MODEL       34
REMARK 921   NORMALIZED FREE ENERGY PREDICTED BY IDOCK:   -5.73 KCAL/MOL
REMARK 922        TOTAL FREE ENERGY PREDICTED BY IDOCK:  -13.71 KCAL/MOL
REMARK 923 INTER-LIGAND FREE ENERGY PREDICTED BY IDOCK:  -11.32 KCAL/MOL
REMARK 924 INTRA-LIGAND FREE ENERGY PREDICTED BY IDOCK:   -2.39 KCAL/MOL
REMARK 927      BINDING AFFINITY PREDICTED BY RF-SCORE:    0.00 PKD
ROOT
HETATM    1  C   UNL     1     -14.346   8.172  71.872  1.00  0.00    -0.566 C  
HETATM    2  C   UNL     1     -13.038   8.591  71.211  1.00  0.00    -0.143 C  
HETATM    3  C   UNL     1     -13.099  10.047  70.767  1.00  0.00    -0.316 C  
ENDROOT
BRANCH   2   4
HETATM    4  O   UNL     1     -11.962   8.473  72.160  1.00  0.00    -0.336 OA 
BRANCH   4   5
HETATM    5  C   UNL     1     -10.731   8.251  71.615  1.00  0.00    -0.256 C  
HETATM    6  O   UNL     1      -9.719   8.893  71.868  1.00  0.00    -0.307 OA 
BRANCH   5   7
HETATM    7  C   UNL     1     -10.807   7.109  70.635  1.00  0.00    -0.268 C  
BRANCH   7   8
HETATM    8  C   UNL     1      -9.895   7.361  69.432  1.00  0.00    -0.168 C  
BRANCH   8   9
HETATM    9  C   UNL     1     -10.391   8.487  68.528  1.00  0.00    -0.230 C  
BRANCH   9  10
HETATM   10  C   UNL     1      -9.318   9.497  68.231  1.00  0.00    -0.139 C  
HETATM   11  C   UNL     1      -9.466  10.650  67.558  1.00  0.00    -0.169 C  
BRANCH  11  12
HETATM   12  C   UNL     1     -10.740  11.194  66.977  1.00  0.00    -0.316 C  
BRANCH  12  13
HETATM   13  C   UNL     1     -10.595  12.028  65.693  1.00  0.00    -0.303 C  
HETATM   14  C   UNL     1      -9.888  11.218  64.589  1.00  0.00    -0.268 C  
HETATM   15  C   UNL     1     -10.153  12.035  63.338  1.00  0.00    -0.437 C  
HETATM   16  O   UNL     1     -10.488   9.935  64.410  1.00  0.00    -0.193 OA 
HETATM   17  C   UNL     1     -11.612  12.450  63.494  1.00  0.00    -0.497 C  
HETATM   18  H   UNL     1     -10.051   9.436  63.730  1.00  0.00     0.000 HD 
HETATM   19  C   UNL     1     -11.920  12.460  65.015  1.00  0.00    -0.458 C  
HETATM   20  O   UNL     1     -12.463  11.501  62.855  1.00  0.00    -0.964 OA 
HETATM   21  H   UNL     1     -13.372  11.760  62.952  1.00  0.00     0.000 HD 
BRANCH  19  22
HETATM   22  C   UNL     1     -12.412  13.845  65.475  1.00  0.00    -0.541 C  
BRANCH  22  23
HETATM   23  C   UNL     1     -12.078  14.915  64.432  1.00  0.00    -0.417 C  
BRANCH  23  24
HETATM   24  C   UNL     1     -10.827  15.743  64.748  1.00  0.00    -0.344 C  
HETATM   25  O   UNL     1     -11.150  17.134  64.756  1.00  0.00    -0.909 OA 
HETATM   26  H   UNL     1     -10.375  17.647  64.952  1.00  0.00     0.000 HD 
BRANCH  24  27
HETATM   27  C   UNL     1     -10.264  15.400  66.137  1.00  0.00    -0.324 C  
BRANCH  27  28
HETATM   28  C   UNL     1     -10.734  16.367  67.224  1.00  0.00    -0.257 C  
BRANCH  28  29
HETATM   29  C   UNL     1     -11.136  15.654  68.486  1.00  0.00    -0.322 A  
HETATM   30  C   UNL     1     -11.034  16.304  69.723  1.00  0.00    -0.354 A  
HETATM   31  C   UNL     1     -11.410  15.651  70.896  1.00  0.00    -0.417 A  
HETATM   32  C   UNL     1     -11.885  14.343  70.842  1.00  0.00    -0.346 A  
HETATM   33  C   UNL     1     -11.980  13.684  69.616  1.00  0.00    -0.402 A  
HETATM   34  C   UNL     1     -11.605  14.337  68.441  1.00  0.00    -0.354 A  
ENDBRANCH  28  29
ENDBRANCH  27  28
ENDBRANCH  24  27
ENDBRANCH  23  24
ENDBRANCH  22  23
ENDBRANCH  19  22
ENDBRANCH  12  13
ENDBRANCH  11  12
ENDBRANCH   9  10
ENDBRANCH   8   9
ENDBRANCH   7   8
ENDBRANCH   5   7
ENDBRANCH   4   5
ENDBRANCH   2   4
TORSDOF 14
ENDMDL
MODEL       35
REMARK 921   NORMALIZED FREE ENERGY PREDICTED BY IDOCK:   -5.73 KCAL/MOL
REMARK 922        TOTAL FREE ENERGY PREDICTED BY IDOCK:  -13.71 KCAL/MOL
REMARK 923 INTER-LIGAND FREE ENERGY PREDICTED BY IDOCK:  -11.06 KCAL/MOL
REMARK 924 INTRA-LIGAND FREE ENERGY PREDICTED BY IDOCK:   -2.65 KCAL/MOL
REMARK 927      BINDING AFFINITY PREDICTED BY RF-SCORE:    0.00 PKD
ROOT
HETATM    1  C   UNL     1     -13.141   9.257  72.135  1.00  0.00    -0.520 C  
HETATM    2  C   UNL     1     -11.912   8.474  71.685  1.00  0.00    -0.316 C  
HETATM    3  C   UNL     1     -11.217   7.829  72.877  1.00  0.00    -0.434 C  
ENDROOT
BRANCH   2   4
HETATM    4  O   UNL     1     -12.317   7.417  70.796  1.00  0.00    -0.242 OA 
BRANCH   4   5
HETATM    5  C   UNL     1     -11.336   6.944  69.974  1.00  0.00    -0.294 C  
HETATM    6  O   UNL     1     -11.057   5.763  69.811  1.00  0.00    -0.369 OA 
BRANCH   5   7
HETATM    7  C   UNL     1     -10.629   8.098  69.310  1.00  0.00    -0.191 C  
BRANCH   7   8
HETATM    8  C   UNL     1      -9.889   7.634  68.054  1.00  0.00    -0.188 C  
BRANCH   8   9
HETATM    9  C   UNL     1     -10.272   8.424  66.805  1.00  0.00    -0.376 C  
BRANCH   9  10
HETATM   10  C   UNL     1      -9.071   8.945  66.067  1.00  0.00    -0.265 C  
HETATM   11  C   UNL     1      -9.071   9.841  65.066  1.00  0.00    -0.280 C  
BRANCH  11  12
HETATM   12  C   UNL     1     -10.268  10.536  64.483  1.00  0.00    -0.355 C  
BRANCH  12  13
HETATM   13  C   UNL     1     -10.497  11.987  64.943  1.00  0.00    -0.325 C  
HETATM   14  C   UNL     1     -11.021  12.854  63.783  1.00  0.00    -0.352 C  
HETATM   15  C   UNL     1     -11.516  14.105  64.483  1.00  0.00    -0.380 C  
HETATM   16  O   UNL     1     -12.136  12.246  63.131  1.00  0.00    -0.710 OA 
HETATM   17  C   UNL     1     -12.222  13.558  65.720  1.00  0.00    -0.461 C  
HETATM   18  H   UNL     1     -12.459  12.781  62.416  1.00  0.00     0.000 HD 
HETATM   19  C   UNL     1     -11.572  12.186  66.042  1.00  0.00    -0.420 C  
HETATM   20  O   UNL     1     -13.608  13.361  65.447  1.00  0.00    -0.357 OA 
HETATM   21  H   UNL     1     -14.046  13.020  66.217  1.00  0.00     0.000 HD 
BRANCH  19  22
HETATM   22  C   UNL     1     -10.990  12.165  67.468  1.00  0.00    -0.304 C  
BRANCH  22  23
HETATM   23  C   UNL     1      -9.721  13.018  67.550  1.00  0.00    -0.206 C  
BRANCH  23  24
HETATM   24  C   UNL     1      -9.688  13.996  68.731  1.00  0.00    -0.121 C  
HETATM   25  O   UNL     1      -8.350  14.143  69.206  1.00  0.00    -0.353 OA 
HETATM   26  H   UNL     1      -8.329  14.748  69.938  1.00  0.00     0.000 HD 
BRANCH  24  27
HETATM   27  C   UNL     1     -10.179  15.391  68.318  1.00  0.00    -0.229 C  
BRANCH  27  28
HETATM   28  C   UNL     1     -11.649  15.631  68.662  1.00  0.00    -0.391 C  
BRANCH  28  29
HETATM   29  C   UNL     1     -11.967  15.266  70.087  1.00  0.00    -0.373 A  
HETATM   30  C   UNL     1     -12.752  14.140  70.364  1.00  0.00    -0.341 A  
HETATM   31  C   UNL     1     -13.047  13.792  71.682  1.00  0.00    -0.456 A  
HETATM   32  C   UNL     1     -12.563  14.571  72.731  1.00  0.00    -0.399 A  
HETATM   33  C   UNL     1     -11.789  15.700  72.464  1.00  0.00    -0.583 A  
HETATM   34  C   UNL     1     -11.493  16.048  71.145  1.00  0.00    -0.470 A  
ENDBRANCH  28  29
ENDBRANCH  27  28
ENDBRANCH  24  27
ENDBRANCH  23  24
ENDBRANCH  22  23
ENDBRANCH  19  22
ENDBRANCH  12  13
ENDBRANCH  11  12
ENDBRANCH   9  10
ENDBRANCH   8   9
ENDBRANCH   7   8
ENDBRANCH   5   7
ENDBRANCH   4   5
ENDBRANCH   2   4
TORSDOF 14
ENDMDL
MODEL       36
REMARK 921   NORMALIZED FREE ENERGY PREDICTED BY IDOCK:   -5.70 KCAL/MOL
REMARK 922        TOTAL FREE ENERGY PREDICTED BY IDOCK:  -13.66 KCAL/MOL
REMARK 923 INTER-LIGAND FREE ENERGY PREDICTED BY IDOCK:  -11.67 KCAL/MOL
REMARK 924 INTRA-LIGAND FREE ENERGY PREDICTED BY IDOCK:   -1.98 KCAL/MOL
REMARK 927      BINDING AFFINITY PREDICTED BY RF-SCORE:    0.00 PKD
ROOT
HETATM    1  C   UNL     1     -11.980   8.819  71.583  1.00  0.00    -0.399 C  
HETATM    2  C   UNL     1     -12.592   7.424  71.531  1.00  0.00    -0.367 C  
HETATM    3  C   UNL     1     -14.109   7.503  71.419  1.00  0.00    -0.496 C  
ENDROOT
BRANCH   2   4
HETATM    4  O   UNL     1     -12.108   6.731  70.366  1.00  0.00    -0.357 OA 
BRANCH   4   5
HETATM    5  C   UNL     1     -10.848   6.219  70.479  1.00  0.00    -0.288 C  
HETATM    6  O   UNL     1     -10.462   5.479  71.375  1.00  0.00    -0.226 OA 
BRANCH   5   7
HETATM    7  C   UNL     1      -9.993   6.719  69.343  1.00  0.00    -0.167 C  
BRANCH   7   8
HETATM    8  C   UNL     1     -10.746   6.632  68.014  1.00  0.00    -0.330 C  
BRANCH   8   9
HETATM    9  C   UNL     1     -10.642   7.905  67.179  1.00  0.00    -0.383 C  
BRANCH   9  10
HETATM   10  C   UNL     1      -9.235   8.428  67.107  1.00  0.00    -0.174 C  
HETATM   11  C   UNL     1      -8.730   9.246  66.168  1.00  0.00    -0.169 C  
BRANCH  11  12
HETATM   12  C   UNL     1      -9.467   9.836  65.001  1.00  0.00    -0.337 C  
BRANCH  12  13
HETATM   13  C   UNL     1      -9.938  11.291  65.164  1.00  0.00    -0.312 C  
HETATM   14  C   UNL     1     -10.227  11.933  63.795  1.00  0.00    -0.413 C  
HETATM   15  C   UNL     1     -10.998  13.188  64.156  1.00  0.00    -0.418 C  
HETATM   16  O   UNL     1     -11.079  11.110  62.996  1.00  0.00    -0.822 OA 
HETATM   17  C   UNL     1     -11.941  12.715  65.257  1.00  0.00    -0.439 C  
HETATM   18  H   UNL     1     -11.257  11.506  62.151  1.00  0.00     0.000 HD 
HETATM   19  C   UNL     1     -11.271  11.488  65.931  1.00  0.00    -0.239 C  
HETATM   20  O   UNL     1     -13.188  12.310  64.695  1.00  0.00    -0.763 OA 
HETATM   21  H   UNL     1     -13.775  12.016  65.381  1.00  0.00     0.000 HD 
BRANCH  19  22
HETATM   22  C   UNL     1     -11.072  11.721  67.441  1.00  0.00    -0.338 C  
BRANCH  22  23
HETATM   23  C   UNL     1     -11.904  12.913  67.921  1.00  0.00    -0.388 C  
BRANCH  23  24
HETATM   24  C   UNL     1     -11.095  14.010  68.625  1.00  0.00    -0.264 C  
HETATM   25  O   UNL     1      -9.731  13.607  68.750  1.00  0.00    -0.375 OA 
HETATM   26  H   UNL     1      -9.230  14.286  69.186  1.00  0.00     0.000 HD 
BRANCH  24  27
HETATM   27  C   UNL     1     -11.110  15.319  67.822  1.00  0.00    -0.318 C  
BRANCH  27  28
HETATM   28  C   UNL     1      -9.804  16.104  67.941  1.00  0.00    -0.235 C  
BRANCH  28  29
HETATM   29  C   UNL     1      -9.996  17.573  67.678  1.00  0.00    -0.309 A  
HETATM   30  C   UNL     1     -10.140  18.038  66.364  1.00  0.00    -0.384 A  
HETATM   31  C   UNL     1     -10.324  19.397  66.113  1.00  0.00    -0.595 A  
HETATM   32  C   UNL     1     -10.358  20.302  67.172  1.00  0.00    -0.419 A  
HETATM   33  C   UNL     1     -10.206  19.849  68.482  1.00  0.00    -0.529 A  
HETATM   34  C   UNL     1     -10.023  18.489  68.735  1.00  0.00    -0.417 A  
ENDBRANCH  28  29
ENDBRANCH  27  28
ENDBRANCH  24  27
ENDBRANCH  23  24
ENDBRANCH  22  23
ENDBRANCH  19  22
ENDBRANCH  12  13
ENDBRANCH  11  12
ENDBRANCH   9  10
ENDBRANCH   8   9
ENDBRANCH   7   8
ENDBRANCH   5   7
ENDBRANCH   4   5
ENDBRANCH   2   4
TORSDOF 14
ENDMDL
MODEL       37
REMARK 921   NORMALIZED FREE ENERGY PREDICTED BY IDOCK:   -5.69 KCAL/MOL
REMARK 922        TOTAL FREE ENERGY PREDICTED BY IDOCK:  -13.64 KCAL/MOL
REMARK 923 INTER-LIGAND FREE ENERGY PREDICTED BY IDOCK:  -11.47 KCAL/MOL
REMARK 924 INTRA-LIGAND FREE ENERGY PREDICTED BY IDOCK:   -2.17 KCAL/MOL
REMARK 927      BINDING AFFINITY PREDICTED BY RF-SCORE:    0.00 PKD
ROOT
HETATM    1  C   UNL     1     -12.855  11.094  71.392  1.00  0.00    -0.544 C  
HETATM    2  C   UNL     1     -12.363   9.673  71.642  1.00  0.00    -0.404 C  
HETATM    3  C   UNL     1     -13.535   8.729  71.879  1.00  0.00    -0.447 C  
ENDROOT
BRANCH   2   4
HETATM    4  O   UNL     1     -11.654   9.200  70.482  1.00  0.00    -0.263 OA 
BRANCH   4   5
HETATM    5  C   UNL     1     -10.351   8.858  70.698  1.00  0.00    -0.215 C  
HETATM    6  O   UNL     1      -9.671   9.225  71.649  1.00  0.00    -0.257 OA 
BRANCH   5   7
HETATM    7  C   UNL     1      -9.865   7.975  69.577  1.00  0.00    -0.181 C  
BRANCH   7   8
HETATM    8  C   UNL     1      -9.726   8.772  68.278  1.00  0.00    -0.175 C  
BRANCH   8   9
HETATM    9  C   UNL     1      -9.220  10.195  68.498  1.00  0.00    -0.144 C  
BRANCH   9  10
HETATM   10  C   UNL     1      -8.073  10.541  67.591  1.00  0.00    -0.107 C  
HETATM   11  C   UNL     1      -8.131  10.734  66.262  1.00  0.00    -0.159 C  
BRANCH  11  12
HETATM   12  C   UNL     1      -9.358  10.672  65.398  1.00  0.00    -0.250 C  
BRANCH  12  13
HETATM   13  C   UNL     1     -10.208  11.953  65.340  1.00  0.00    -0.300 C  
HETATM   14  C   UNL     1     -10.422  12.404  63.883  1.00  0.00    -0.439 C  
HETATM   15  C   UNL     1     -11.539  13.424  63.998  1.00  0.00    -0.429 C  
HETATM   16  O   UNL     1     -10.889  11.333  63.063  1.00  0.00    -0.778 OA 
HETATM   17  C   UNL     1     -12.497  12.784  64.997  1.00  0.00    -0.506 C  
HETATM   18  H   UNL     1     -11.021  11.612  62.164  1.00  0.00     0.000 HD 
HETATM   19  C   UNL     1     -11.654  11.830  65.884  1.00  0.00    -0.200 C  
HETATM   20  O   UNL     1     -13.486  12.022  64.308  1.00  0.00    -0.654 OA 
HETATM   21  H   UNL     1     -14.083  11.623  64.931  1.00  0.00     0.000 HD 
BRANCH  19  22
HETATM   22  C   UNL     1     -11.774  12.202  67.374  1.00  0.00    -0.374 C  
BRANCH  22  23
HETATM   23  C   UNL     1     -11.129  13.563  67.648  1.00  0.00    -0.290 C  
BRANCH  23  24
HETATM   24  C   UNL     1     -11.768  14.350  68.798  1.00  0.00    -0.337 C  
HETATM   25  O   UNL     1     -11.145  14.000  70.034  1.00  0.00    -0.467 OA 
HETATM   26  H   UNL     1     -11.540  14.488  70.747  1.00  0.00     0.000 HD 
BRANCH  24  27
HETATM   27  C   UNL     1     -11.585  15.864  68.611  1.00  0.00    -0.383 C  
BRANCH  27  28
HETATM   28  C   UNL     1     -10.777  16.215  67.362  1.00  0.00    -0.291 C  
BRANCH  28  29
HETATM   29  C   UNL     1     -10.463  17.685  67.281  1.00  0.00    -0.338 A  
HETATM   30  C   UNL     1     -10.106  18.391  68.438  1.00  0.00    -0.418 A  
HETATM   31  C   UNL     1      -9.809  19.751  68.369  1.00  0.00    -0.522 A  
HETATM   32  C   UNL     1      -9.872  20.417  67.147  1.00  0.00    -0.601 A  
HETATM   33  C   UNL     1     -10.237  19.724  65.993  1.00  0.00    -0.600 A  
HETATM   34  C   UNL     1     -10.534  18.362  66.059  1.00  0.00    -0.400 A  
ENDBRANCH  28  29
ENDBRANCH  27  28
ENDBRANCH  24  27
ENDBRANCH  23  24
ENDBRANCH  22  23
ENDBRANCH  19  22
ENDBRANCH  12  13
ENDBRANCH  11  12
ENDBRANCH   9  10
ENDBRANCH   8   9
ENDBRANCH   7   8
ENDBRANCH   5   7
ENDBRANCH   4   5
ENDBRANCH   2   4
TORSDOF 14
ENDMDL
MODEL       38
REMARK 921   NORMALIZED FREE ENERGY PREDICTED BY IDOCK:   -5.67 KCAL/MOL
REMARK 922        TOTAL FREE ENERGY PREDICTED BY IDOCK:  -13.60 KCAL/MOL
REMARK 923 INTER-LIGAND FREE ENERGY PREDICTED BY IDOCK:  -11.16 KCAL/MOL
REMARK 924 INTRA-LIGAND FREE ENERGY PREDICTED BY IDOCK:   -2.44 KCAL/MOL
REMARK 927      BINDING AFFINITY PREDICTED BY RF-SCORE:    0.00 PKD
ROOT
HETATM    1  C   UNL     1     -10.889  16.654  65.031  1.00  0.00    -0.190 C  
HETATM    2  C   UNL     1     -10.582  15.162  64.968  1.00  0.00    -0.413 C  
HETATM    3  C   UNL     1      -9.493  14.791  65.966  1.00  0.00    -0.299 C  
ENDROOT
BRANCH   2   4
HETATM    4  O   UNL     1     -11.762  14.415  65.317  1.00  0.00    -0.344 OA 
BRANCH   4   5
HETATM    5  C   UNL     1     -12.149  13.480  64.402  1.00  0.00    -0.420 C  
HETATM    6  O   UNL     1     -12.518  13.718  63.259  1.00  0.00    -0.819 OA 
BRANCH   5   7
HETATM    7  C   UNL     1     -12.074  12.106  65.017  1.00  0.00    -0.311 C  
BRANCH   7   8
HETATM    8  C   UNL     1     -10.742  11.431  64.681  1.00  0.00    -0.378 C  
BRANCH   8   9
HETATM    9  C   UNL     1     -10.159  10.638  65.848  1.00  0.00    -0.321 C  
BRANCH   9  10
HETATM   10  C   UNL     1      -9.483  11.521  66.858  1.00  0.00    -0.194 C  
HETATM   11  C   UNL     1      -9.350  11.280  68.174  1.00  0.00    -0.181 C  
BRANCH  11  12
HETATM   12  C   UNL     1      -9.825  10.065  68.916  1.00  0.00    -0.187 C  
BRANCH  12  13
HETATM   13  C   UNL     1     -10.623  10.330  70.205  1.00  0.00    -0.303 C  
HETATM   14  C   UNL     1     -11.886  11.160  69.908  1.00  0.00    -0.363 C  
HETATM   15  C   UNL     1     -12.702  11.015  71.178  1.00  0.00    -0.521 C  
HETATM   16  O   UNL     1     -12.643  10.602  68.834  1.00  0.00    -0.742 OA 
HETATM   17  C   UNL     1     -12.536   9.541  71.534  1.00  0.00    -0.376 C  
HETATM   18  H   UNL     1     -13.422  11.114  68.651  1.00  0.00     0.000 HD 
HETATM   19  C   UNL     1     -11.189   9.076  70.919  1.00  0.00    -0.348 C  
HETATM   20  O   UNL     1     -13.594   8.776  70.963  1.00  0.00    -0.547 OA 
HETATM   21  H   UNL     1     -13.490   7.858  71.185  1.00  0.00     0.000 HD 
BRANCH  19  22
HETATM   22  C   UNL     1     -10.245   8.518  72.000  1.00  0.00    -0.391 C  
BRANCH  22  23
HETATM   23  C   UNL     1     -11.031   7.742  73.060  1.00  0.00    -0.442 C  
BRANCH  23  24
HETATM   24  C   UNL     1     -10.654   6.260  73.172  1.00  0.00    -0.250 C  
HETATM   25  O   UNL     1     -11.797   5.444  72.910  1.00  0.00    -0.486 OA 
HETATM   26  H   UNL     1     -11.564   4.526  72.979  1.00  0.00     0.000 HD 
BRANCH  24  27
HETATM   27  C   UNL     1      -9.578   5.876  72.146  1.00  0.00    -0.164 C  
BRANCH  27  28
HETATM   28  C   UNL     1      -9.938   4.625  71.345  1.00  0.00    -0.267 C  
BRANCH  28  29
HETATM   29  C   UNL     1     -10.102   4.915  69.878  1.00  0.00    -0.332 A  
HETATM   30  C   UNL     1     -10.944   5.954  69.457  1.00  0.00    -0.438 A  
HETATM   31  C   UNL     1     -11.097   6.231  68.100  1.00  0.00    -0.364 A  
HETATM   32  C   UNL     1     -10.415   5.470  67.153  1.00  0.00    -0.321 A  
HETATM   33  C   UNL     1      -9.583   4.429  67.562  1.00  0.00    -0.213 A  
HETATM   34  C   UNL     1      -9.428   4.150  68.921  1.00  0.00    -0.238 A  
ENDBRANCH  28  29
ENDBRANCH  27  28
ENDBRANCH  24  27
ENDBRANCH  23  24
ENDBRANCH  22  23
ENDBRANCH  19  22
ENDBRANCH  12  13
ENDBRANCH  11  12
ENDBRANCH   9  10
ENDBRANCH   8   9
ENDBRANCH   7   8
ENDBRANCH   5   7
ENDBRANCH   4   5
ENDBRANCH   2   4
TORSDOF 14
ENDMDL
MODEL       39
REMARK 921   NORMALIZED FREE ENERGY PREDICTED BY IDOCK:   -5.67 KCAL/MOL
REMARK 922        TOTAL FREE ENERGY PREDICTED BY IDOCK:  -13.60 KCAL/MOL
REMARK 923 INTER-LIGAND FREE ENERGY PREDICTED BY IDOCK:  -11.22 KCAL/MOL
REMARK 924 INTRA-LIGAND FREE ENERGY PREDICTED BY IDOCK:   -2.38 KCAL/MOL
REMARK 927      BINDING AFFINITY PREDICTED BY RF-SCORE:    0.00 PKD
ROOT
HETATM    1  C   UNL     1     -11.733  15.405  64.344  1.00  0.00    -0.261 C  
HETATM    2  C   UNL     1     -10.707  14.386  64.827  1.00  0.00    -0.403 C  
HETATM    3  C   UNL     1     -10.003  14.882  66.084  1.00  0.00    -0.323 C  
ENDROOT
BRANCH   2   4
HETATM    4  O   UNL     1     -11.374  13.155  65.162  1.00  0.00    -0.291 OA 
BRANCH   4   5
HETATM    5  C   UNL     1     -11.592  12.310  64.113  1.00  0.00    -0.388 C  
HETATM    6  O   UNL     1     -12.668  12.139  63.554  1.00  0.00    -0.718 OA 
BRANCH   5   7
HETATM    7  C   UNL     1     -10.311  11.599  63.759  1.00  0.00    -0.445 C  
BRANCH   7   8
HETATM    8  C   UNL     1      -9.510  11.263  65.018  1.00  0.00    -0.237 C  
BRANCH   8   9
HETATM    9  C   UNL     1     -10.056  10.053  65.772  1.00  0.00    -0.320 C  
BRANCH   9  10
HETATM   10  C   UNL     1     -10.477  10.395  67.173  1.00  0.00    -0.311 C  
HETATM   11  C   UNL     1     -10.649   9.535  68.192  1.00  0.00    -0.265 C  
BRANCH  11  12
HETATM   12  C   UNL     1     -10.432   8.049  68.159  1.00  0.00    -0.222 C  
BRANCH  12  13
HETATM   13  C   UNL     1     -10.734   7.294  69.464  1.00  0.00    -0.244 C  
HETATM   14  C   UNL     1     -10.413   5.795  69.318  1.00  0.00    -0.287 C  
HETATM   15  C   UNL     1     -10.422   5.297  70.752  1.00  0.00    -0.298 C  
HETATM   16  O   UNL     1      -9.104   5.585  68.790  1.00  0.00    -0.116 OA 
HETATM   17  C   UNL     1      -9.699   6.405  71.510  1.00  0.00    -0.168 C  
HETATM   18  H   UNL     1      -8.906   4.660  68.699  1.00  0.00     0.000 HD 
HETATM   19  C   UNL     1      -9.894   7.713  70.698  1.00  0.00    -0.182 C  
HETATM   20  O   UNL     1      -8.305   6.114  71.592  1.00  0.00    -0.124 OA 
HETATM   21  H   UNL     1      -7.855   6.805  72.065  1.00  0.00     0.000 HD 
BRANCH  19  22
HETATM   22  C   UNL     1     -10.571   8.803  71.549  1.00  0.00    -0.379 C  
BRANCH  22  23
HETATM   23  C   UNL     1     -11.682   8.204  72.416  1.00  0.00    -0.461 C  
BRANCH  23  24
HETATM   24  C   UNL     1     -13.097   8.657  72.037  1.00  0.00    -0.381 C  
HETATM   25  O   UNL     1     -13.832   8.999  73.213  1.00  0.00    -1.159 OA 
HETATM   26  H   UNL     1     -14.708   9.280  72.979  1.00  0.00     0.000 HD 
BRANCH  24  27
HETATM   27  C   UNL     1     -13.066   9.906  71.143  1.00  0.00    -0.453 C  
BRANCH  27  28
HETATM   28  C   UNL     1     -13.227  11.206  71.932  1.00  0.00    -0.488 C  
BRANCH  28  29
HETATM   29  C   UNL     1     -12.726  12.402  71.167  1.00  0.00    -0.336 A  
HETATM   30  C   UNL     1     -12.022  12.224  69.969  1.00  0.00    -0.379 A  
HETATM   31  C   UNL     1     -11.560  13.327  69.253  1.00  0.00    -0.370 A  
HETATM   32  C   UNL     1     -11.792  14.615  69.732  1.00  0.00    -0.366 A  
HETATM   33  C   UNL     1     -12.483  14.800  70.929  1.00  0.00    -0.396 A  
HETATM   34  C   UNL     1     -12.947  13.697  71.646  1.00  0.00    -0.448 A  
ENDBRANCH  28  29
ENDBRANCH  27  28
ENDBRANCH  24  27
ENDBRANCH  23  24
ENDBRANCH  22  23
ENDBRANCH  19  22
ENDBRANCH  12  13
ENDBRANCH  11  12
ENDBRANCH   9  10
ENDBRANCH   8   9
ENDBRANCH   7   8
ENDBRANCH   5   7
ENDBRANCH   4   5
ENDBRANCH   2   4
TORSDOF 14
ENDMDL
MODEL       40
REMARK 921   NORMALIZED FREE ENERGY PREDICTED BY IDOCK:   -5.66 KCAL/MOL
REMARK 922        TOTAL FREE ENERGY PREDICTED BY IDOCK:  -13.58 KCAL/MOL
REMARK 923 INTER-LIGAND FREE ENERGY PREDICTED BY IDOCK:   -9.50 KCAL/MOL
REMARK 924 INTRA-LIGAND FREE ENERGY PREDICTED BY IDOCK:   -4.08 KCAL/MOL
REMARK 927      BINDING AFFINITY PREDICTED BY RF-SCORE:    0.00 PKD
ROOT
HETATM    1  C   UNL     1     -10.966   6.948  67.129  1.00  0.00    -0.427 C  
HETATM    2  C   UNL     1     -10.830   6.274  68.490  1.00  0.00    -0.323 C  
HETATM    3  C   UNL     1      -9.770   5.181  68.448  1.00  0.00    -0.200 C  
ENDROOT
BRANCH   2   4
HETATM    4  O   UNL     1     -10.412   7.246  69.467  1.00  0.00    -0.218 OA 
BRANCH   4   5
HETATM    5  C   UNL     1     -11.162   7.282  70.606  1.00  0.00    -0.274 C  
HETATM    6  O   UNL     1     -12.151   6.594  70.824  1.00  0.00    -0.385 OA 
BRANCH   5   7
HETATM    7  C   UNL     1     -10.601   8.314  71.550  1.00  0.00    -0.296 C  
BRANCH   7   8
HETATM    8  C   UNL     1     -10.578   9.696  70.895  1.00  0.00    -0.386 C  
BRANCH   8   9
HETATM    9  C   UNL     1     -11.917  10.089  70.275  1.00  0.00    -0.264 C  
BRANCH   9  10
HETATM   10  C   UNL     1     -11.875  11.448  69.636  1.00  0.00    -0.431 C  
HETATM   11  C   UNL     1     -11.573  11.724  68.356  1.00  0.00    -0.380 C  
BRANCH  11  12
HETATM   12  C   UNL     1     -11.237  10.733  67.279  1.00  0.00    -0.272 C  
BRANCH  12  13
HETATM   13  C   UNL     1      -9.923  10.981  66.518  1.00  0.00    -0.253 C  
HETATM   14  C   UNL     1      -8.708  10.791  67.445  1.00  0.00    -0.126 C  
HETATM   15  C   UNL     1      -7.542  10.717  66.477  1.00  0.00    -0.139 C  
HETATM   16  O   UNL     1      -8.772   9.551  68.150  1.00  0.00    -0.120 OA 
HETATM   17  C   UNL     1      -8.082   9.849  65.345  1.00  0.00    -0.137 C  
HETATM   18  H   UNL     1      -8.022   9.433  68.722  1.00  0.00     0.000 HD 
HETATM   19  C   UNL     1      -9.625  10.010  65.348  1.00  0.00    -0.342 C  
HETATM   20  O   UNL     1      -7.759   8.480  65.581  1.00  0.00    -0.090 OA 
HETATM   21  H   UNL     1      -8.096   7.940  64.876  1.00  0.00     0.000 HD 
BRANCH  19  22
HETATM   22  C   UNL     1     -10.135  10.526  63.989  1.00  0.00    -0.321 C  
BRANCH  22  23
HETATM   23  C   UNL     1     -10.159  12.057  63.964  1.00  0.00    -0.361 C  
BRANCH  23  24
HETATM   24  C   UNL     1     -11.500  12.665  63.537  1.00  0.00    -0.491 C  
HETATM   25  O   UNL     1     -12.431  11.627  63.228  1.00  0.00    -0.854 OA 
HETATM   26  H   UNL     1     -13.262  12.003  62.964  1.00  0.00     0.000 HD 
BRANCH  24  27
HETATM   27  C   UNL     1     -12.118  13.507  64.664  1.00  0.00    -0.450 C  
BRANCH  27  28
HETATM   28  C   UNL     1     -11.334  14.789  64.946  1.00  0.00    -0.411 C  
BRANCH  28  29
HETATM   29  C   UNL     1     -10.795  14.829  66.350  1.00  0.00    -0.322 A  
HETATM   30  C   UNL     1      -9.459  14.487  66.599  1.00  0.00    -0.301 A  
HETATM   31  C   UNL     1      -8.951  14.527  67.897  1.00  0.00    -0.187 A  
HETATM   32  C   UNL     1      -9.775  14.903  68.955  1.00  0.00    -0.212 A  
HETATM   33  C   UNL     1     -11.108  15.236  68.718  1.00  0.00    -0.273 A  
HETATM   34  C   UNL     1     -11.618  15.197  67.419  1.00  0.00    -0.251 A  
ENDBRANCH  28  29
ENDBRANCH  27  28
ENDBRANCH  24  27
ENDBRANCH  23  24
ENDBRANCH  22  23
ENDBRANCH  19  22
ENDBRANCH  12  13
ENDBRANCH  11  12
ENDBRANCH   9  10
ENDBRANCH   8   9
ENDBRANCH   7   8
ENDBRANCH   5   7
ENDBRANCH   4   5
ENDBRANCH   2   4
TORSDOF 14
ENDMDL
MODEL       41
REMARK 921   NORMALIZED FREE ENERGY PREDICTED BY IDOCK:   -5.66 KCAL/MOL
REMARK 922        TOTAL FREE ENERGY PREDICTED BY IDOCK:  -13.58 KCAL/MOL
REMARK 923 INTER-LIGAND FREE ENERGY PREDICTED BY IDOCK:  -11.25 KCAL/MOL
REMARK 924 INTRA-LIGAND FREE ENERGY PREDICTED BY IDOCK:   -2.33 KCAL/MOL
REMARK 927      BINDING AFFINITY PREDICTED BY RF-SCORE:    0.00 PKD
ROOT
HETATM    1  C   UNL     1     -11.476   5.703  72.372  1.00  0.00    -0.309 C  
HETATM    2  C   UNL     1     -10.804   6.458  71.231  1.00  0.00    -0.257 C  
HETATM    3  C   UNL     1     -10.756   5.602  69.972  1.00  0.00    -0.390 C  
ENDROOT
BRANCH   2   4
HETATM    4  O   UNL     1     -11.567   7.639  70.922  1.00  0.00    -0.281 OA 
BRANCH   4   5
HETATM    5  C   UNL     1     -11.222   8.753  71.630  1.00  0.00    -0.324 C  
HETATM    6  O   UNL     1     -10.079   9.160  71.798  1.00  0.00    -0.329 OA 
BRANCH   5   7
HETATM    7  C   UNL     1     -12.460   9.399  72.196  1.00  0.00    -0.396 C  
BRANCH   7   8
HETATM    8  C   UNL     1     -13.087  10.357  71.181  1.00  0.00    -0.474 C  
BRANCH   8   9
HETATM    9  C   UNL     1     -12.089  11.356  70.603  1.00  0.00    -0.469 C  
BRANCH   9  10
HETATM   10  C   UNL     1     -12.464  12.780  70.905  1.00  0.00    -0.373 C  
HETATM   11  C   UNL     1     -12.145  13.865  70.179  1.00  0.00    -0.418 C  
BRANCH  11  12
HETATM   12  C   UNL     1     -11.367  13.889  68.895  1.00  0.00    -0.319 C  
BRANCH  12  13
HETATM   13  C   UNL     1     -11.473  15.181  68.066  1.00  0.00    -0.355 C  
HETATM   14  C   UNL     1     -10.558  16.279  68.639  1.00  0.00    -0.297 C  
HETATM   15  C   UNL     1     -10.516  17.310  67.528  1.00  0.00    -0.356 C  
HETATM   16  O   UNL     1      -9.228  15.802  68.846  1.00  0.00    -0.197 OA 
HETATM   17  C   UNL     1     -10.389  16.461  66.268  1.00  0.00    -0.329 C  
HETATM   18  H   UNL     1      -8.664  16.479  69.200  1.00  0.00     0.000 HD 
HETATM   19  C   UNL     1     -11.011  15.076  66.590  1.00  0.00    -0.325 C  
HETATM   20  O   UNL     1      -9.014  16.285  65.932  1.00  0.00    -0.398 OA 
HETATM   21  H   UNL     1      -8.936  15.756  65.146  1.00  0.00     0.000 HD 
BRANCH  19  22
HETATM   22  C   UNL     1     -12.157  14.739  65.619  1.00  0.00    -0.114 C  
BRANCH  22  23
HETATM   23  C   UNL     1     -12.397  13.228  65.564  1.00  0.00    -0.533 C  
BRANCH  23  24
HETATM   24  C   UNL     1     -12.430  12.640  64.149  1.00  0.00    -0.403 C  
HETATM   25  O   UNL     1     -12.364  13.689  63.182  1.00  0.00    -1.045 OA 
HETATM   26  H   UNL     1     -12.384  13.325  62.305  1.00  0.00     0.000 HD 
BRANCH  24  27
HETATM   27  C   UNL     1     -11.228  11.716  63.898  1.00  0.00    -0.479 C  
BRANCH  27  28
HETATM   28  C   UNL     1     -10.166  11.811  64.994  1.00  0.00    -0.314 C  
BRANCH  28  29
HETATM   29  C   UNL     1     -10.150  10.593  65.878  1.00  0.00    -0.321 A  
HETATM   30  C   UNL     1      -9.592   9.395  65.412  1.00  0.00    -0.296 A  
HETATM   31  C   UNL     1      -9.569   8.265  66.228  1.00  0.00    -0.266 A  
HETATM   32  C   UNL     1     -10.108   8.322  67.511  1.00  0.00    -0.287 A  
HETATM   33  C   UNL     1     -10.675   9.507  67.979  1.00  0.00    -0.266 A  
HETATM   34  C   UNL     1     -10.698  10.640  67.164  1.00  0.00    -0.327 A  
ENDBRANCH  28  29
ENDBRANCH  27  28
ENDBRANCH  24  27
ENDBRANCH  23  24
ENDBRANCH  22  23
ENDBRANCH  19  22
ENDBRANCH  12  13
ENDBRANCH  11  12
ENDBRANCH   9  10
ENDBRANCH   8   9
ENDBRANCH   7   8
ENDBRANCH   5   7
ENDBRANCH   4   5
ENDBRANCH   2   4
TORSDOF 14
ENDMDL
MODEL       42
REMARK 921   NORMALIZED FREE ENERGY PREDICTED BY IDOCK:   -5.64 KCAL/MOL
REMARK 922        TOTAL FREE ENERGY PREDICTED BY IDOCK:  -13.55 KCAL/MOL
REMARK 923 INTER-LIGAND FREE ENERGY PREDICTED BY IDOCK:  -10.75 KCAL/MOL
REMARK 924 INTRA-LIGAND FREE ENERGY PREDICTED BY IDOCK:   -2.80 KCAL/MOL
REMARK 927      BINDING AFFINITY PREDICTED BY RF-SCORE:    0.00 PKD
ROOT
HETATM    1  C   UNL     1      -9.964   4.808  69.708  1.00  0.00    -0.308 C  
HETATM    2  C   UNL     1      -9.520   5.742  70.828  1.00  0.00    -0.165 C  
HETATM    3  C   UNL     1      -8.305   6.556  70.403  1.00  0.00    -0.127 C  
ENDROOT
BRANCH   2   4
HETATM    4  O   UNL     1     -10.580   6.670  71.127  1.00  0.00    -0.221 OA 
BRANCH   4   5
HETATM    5  C   UNL     1     -10.606   7.126  72.413  1.00  0.00    -0.226 C  
HETATM    6  O   UNL     1      -9.979   6.643  73.348  1.00  0.00    -0.175 OA 
BRANCH   5   7
HETATM    7  C   UNL     1     -11.543   8.302  72.516  1.00  0.00    -0.454 C  
BRANCH   7   8
HETATM    8  C   UNL     1     -12.803   8.069  71.680  1.00  0.00    -0.350 C  
BRANCH   8   9
HETATM    9  C   UNL     1     -13.645   9.329  71.499  1.00  0.00    -0.412 C  
BRANCH   9  10
HETATM   10  C   UNL     1     -12.830  10.585  71.627  1.00  0.00    -0.581 C  
HETATM   11  C   UNL     1     -12.228  11.256  70.630  1.00  0.00    -0.489 C  
BRANCH  11  12
HETATM   12  C   UNL     1     -12.259  10.911  69.169  1.00  0.00    -0.181 C  
BRANCH  12  13
HETATM   13  C   UNL     1     -10.893  10.832  68.465  1.00  0.00    -0.270 C  
HETATM   14  C   UNL     1     -10.076   9.634  68.984  1.00  0.00    -0.186 C  
HETATM   15  C   UNL     1      -8.964   9.504  67.960  1.00  0.00    -0.123 C  
HETATM   16  O   UNL     1     -10.838   8.427  68.959  1.00  0.00    -0.401 OA 
HETATM   17  C   UNL     1      -9.682   9.725  66.633  1.00  0.00    -0.201 C  
HETATM   18  H   UNL     1     -10.334   7.687  69.280  1.00  0.00     0.000 HD 
HETATM   19  C   UNL     1     -10.934  10.591  66.935  1.00  0.00    -0.199 C  
HETATM   20  O   UNL     1     -10.104   8.475  66.090  1.00  0.00    -0.456 OA 
HETATM   21  H   UNL     1     -10.551   8.613  65.264  1.00  0.00     0.000 HD 
BRANCH  19  22
HETATM   22  C   UNL     1     -10.921  11.895  66.116  1.00  0.00    -0.352 C  
BRANCH  22  23
HETATM   23  C   UNL     1     -10.425  13.067  66.968  1.00  0.00    -0.249 C  
BRANCH  23  24
HETATM   24  C   UNL     1     -11.406  14.241  67.067  1.00  0.00    -0.341 C  
HETATM   25  O   UNL     1     -12.480  14.059  66.143  1.00  0.00    -0.467 OA 
HETATM   26  H   UNL     1     -13.088  14.786  66.204  1.00  0.00     0.000 HD 
BRANCH  24  27
HETATM   27  C   UNL     1     -12.026  14.338  68.469  1.00  0.00    -0.352 C  
BRANCH  27  28
HETATM   28  C   UNL     1     -11.488  15.519  69.277  1.00  0.00    -0.349 C  
BRANCH  28  29
HETATM   29  C   UNL     1     -12.163  15.648  70.615  1.00  0.00    -0.446 A  
HETATM   30  C   UNL     1     -13.505  15.275  70.763  1.00  0.00    -0.359 A  
HETATM   31  C   UNL     1     -14.136  15.388  72.002  1.00  0.00    -0.647 A  
HETATM   32  C   UNL     1     -13.432  15.879  73.099  1.00  0.00    -0.650 A  
HETATM   33  C   UNL     1     -12.098  16.263  72.958  1.00  0.00    -0.629 A  
HETATM   34  C   UNL     1     -11.466  16.150  71.719  1.00  0.00    -0.386 A  
ENDBRANCH  28  29
ENDBRANCH  27  28
ENDBRANCH  24  27
ENDBRANCH  23  24
ENDBRANCH  22  23
ENDBRANCH  19  22
ENDBRANCH  12  13
ENDBRANCH  11  12
ENDBRANCH   9  10
ENDBRANCH   8   9
ENDBRANCH   7   8
ENDBRANCH   5   7
ENDBRANCH   4   5
ENDBRANCH   2   4
TORSDOF 14
ENDMDL
MODEL       43
REMARK 921   NORMALIZED FREE ENERGY PREDICTED BY IDOCK:   -5.64 KCAL/MOL
REMARK 922        TOTAL FREE ENERGY PREDICTED BY IDOCK:  -13.55 KCAL/MOL
REMARK 923 INTER-LIGAND FREE ENERGY PREDICTED BY IDOCK:  -10.23 KCAL/MOL
REMARK 924 INTRA-LIGAND FREE ENERGY PREDICTED BY IDOCK:   -3.32 KCAL/MOL
REMARK 927      BINDING AFFINITY PREDICTED BY RF-SCORE:    0.00 PKD
ROOT
HETATM    1  C   UNL     1     -12.892   9.829  71.764  1.00  0.00    -0.530 C  
HETATM    2  C   UNL     1     -11.794   8.789  71.573  1.00  0.00    -0.311 C  
HETATM    3  C   UNL     1     -10.471   9.458  71.224  1.00  0.00    -0.385 C  
ENDROOT
BRANCH   2   4
HETATM    4  O   UNL     1     -11.601   8.063  72.801  1.00  0.00    -0.405 OA 
BRANCH   4   5
HETATM    5  C   UNL     1     -11.007   6.842  72.667  1.00  0.00    -0.268 C  
HETATM    6  O   UNL     1     -10.191   6.362  73.444  1.00  0.00    -0.196 OA 
BRANCH   5   7
HETATM    7  C   UNL     1     -11.488   6.180  71.401  1.00  0.00    -0.317 C  
BRANCH   7   8
HETATM    8  C   UNL     1     -10.372   5.352  70.762  1.00  0.00    -0.322 C  
BRANCH   8   9
HETATM    9  C   UNL     1      -9.898   5.914  69.424  1.00  0.00    -0.207 C  
BRANCH   9  10
HETATM   10  C   UNL     1     -11.041   6.292  68.525  1.00  0.00    -0.397 C  
HETATM   11  C   UNL     1     -10.971   7.037  67.408  1.00  0.00    -0.336 C  
BRANCH  11  12
HETATM   12  C   UNL     1      -9.733   7.632  66.802  1.00  0.00    -0.290 C  
BRANCH  12  13
HETATM   13  C   UNL     1      -9.622   9.166  66.862  1.00  0.00    -0.233 C  
HETATM   14  C   UNL     1      -8.540   9.599  67.869  1.00  0.00    -0.122 C  
HETATM   15  C   UNL     1      -8.325  11.064  67.537  1.00  0.00    -0.118 C  
HETATM   16  O   UNL     1      -7.308   8.914  67.646  1.00  0.00    -0.083 OA 
HETATM   17  C   UNL     1      -8.337  11.082  66.012  1.00  0.00    -0.147 C  
HETATM   18  H   UNL     1      -6.640   9.181  68.267  1.00  0.00     0.000 HD 
HETATM   19  C   UNL     1      -9.179   9.863  65.551  1.00  0.00    -0.255 C  
HETATM   20  O   UNL     1      -7.009  10.944  65.510  1.00  0.00    -0.349 OA 
HETATM   21  H   UNL     1      -7.016  10.955  64.561  1.00  0.00     0.000 HD 
BRANCH  19  22
HETATM   22  C   UNL     1     -10.363  10.304  64.670  1.00  0.00    -0.050 C  
BRANCH  22  23
HETATM   23  C   UNL     1     -10.151  11.728  64.149  1.00  0.00    -0.344 C  
BRANCH  23  24
HETATM   24  C   UNL     1     -11.423  12.410  63.629  1.00  0.00    -0.489 C  
HETATM   25  O   UNL     1     -12.222  11.471  62.910  1.00  0.00    -0.942 OA 
HETATM   26  H   UNL     1     -13.010  11.893  62.589  1.00  0.00     0.000 HD 
BRANCH  24  27
HETATM   27  C   UNL     1     -12.282  12.947  64.784  1.00  0.00    -0.499 C  
BRANCH  27  28
HETATM   28  C   UNL     1     -11.525  13.925  65.684  1.00  0.00    -0.321 C  
BRANCH  28  29
HETATM   29  C   UNL     1     -11.664  13.581  67.142  1.00  0.00    -0.419 A  
HETATM   30  C   UNL     1     -11.766  12.241  67.540  1.00  0.00    -0.402 A  
HETATM   31  C   UNL     1     -11.890  11.915  68.890  1.00  0.00    -0.366 A  
HETATM   32  C   UNL     1     -11.917  12.924  69.850  1.00  0.00    -0.377 A  
HETATM   33  C   UNL     1     -11.825  14.260  69.462  1.00  0.00    -0.378 A  
HETATM   34  C   UNL     1     -11.701  14.588  68.111  1.00  0.00    -0.369 A  
ENDBRANCH  28  29
ENDBRANCH  27  28
ENDBRANCH  24  27
ENDBRANCH  23  24
ENDBRANCH  22  23
ENDBRANCH  19  22
ENDBRANCH  12  13
ENDBRANCH  11  12
ENDBRANCH   9  10
ENDBRANCH   8   9
ENDBRANCH   7   8
ENDBRANCH   5   7
ENDBRANCH   4   5
ENDBRANCH   2   4
TORSDOF 14
ENDMDL
MODEL       44
REMARK 921   NORMALIZED FREE ENERGY PREDICTED BY IDOCK:   -5.64 KCAL/MOL
REMARK 922        TOTAL FREE ENERGY PREDICTED BY IDOCK:  -13.55 KCAL/MOL
REMARK 923 INTER-LIGAND FREE ENERGY PREDICTED BY IDOCK:  -10.67 KCAL/MOL
REMARK 924 INTRA-LIGAND FREE ENERGY PREDICTED BY IDOCK:   -2.87 KCAL/MOL
REMARK 927      BINDING AFFINITY PREDICTED BY RF-SCORE:    0.00 PKD
ROOT
HETATM    1  C   UNL     1     -11.024   6.273  67.033  1.00  0.00    -0.442 C  
HETATM    2  C   UNL     1     -10.712   5.758  68.434  1.00  0.00    -0.209 C  
HETATM    3  C   UNL     1      -9.649   4.668  68.384  1.00  0.00    -0.212 C  
ENDROOT
BRANCH   2   4
HETATM    4  O   UNL     1     -10.191   6.835  69.235  1.00  0.00    -0.169 OA 
BRANCH   4   5
HETATM    5  C   UNL     1     -10.969   7.197  70.295  1.00  0.00    -0.263 C  
HETATM    6  O   UNL     1     -11.877   6.526  70.769  1.00  0.00    -0.373 OA 
BRANCH   5   7
HETATM    7  C   UNL     1     -10.557   8.562  70.784  1.00  0.00    -0.244 C  
BRANCH   7   8
HETATM    8  C   UNL     1     -11.579   9.116  71.779  1.00  0.00    -0.457 C  
BRANCH   8   9
HETATM    9  C   UNL     1     -12.361  10.309  71.235  1.00  0.00    -0.506 C  
BRANCH   9  10
HETATM   10  C   UNL     1     -12.017  10.614  69.804  1.00  0.00    -0.363 C  
HETATM   11  C   UNL     1     -11.888  11.833  69.252  1.00  0.00    -0.389 C  
BRANCH  11  12
HETATM   12  C   UNL     1     -12.035  13.154  69.950  1.00  0.00    -0.387 C  
BRANCH  12  13
HETATM   13  C   UNL     1     -12.027  14.400  69.046  1.00  0.00    -0.342 C  
HETATM   14  C   UNL     1     -11.187  15.528  69.674  1.00  0.00    -0.300 C  
HETATM   15  C   UNL     1     -10.998  16.499  68.524  1.00  0.00    -0.350 C  
HETATM   16  O   UNL     1      -9.898  15.065  70.074  1.00  0.00    -0.477 OA 
HETATM   17  C   UNL     1     -10.715  15.584  67.337  1.00  0.00    -0.301 C  
HETATM   18  H   UNL     1      -9.380  15.761  70.461  1.00  0.00     0.000 HD 
HETATM   19  C   UNL     1     -11.380  14.217  67.650  1.00  0.00    -0.344 C  
HETATM   20  O   UNL     1      -9.309  15.392  67.190  1.00  0.00    -0.205 OA 
HETATM   21  H   UNL     1      -9.133  14.822  66.451  1.00  0.00     0.000 HD 
BRANCH  19  22
HETATM   22  C   UNL     1     -12.394  13.827  66.559  1.00  0.00    -0.432 C  
BRANCH  22  23
HETATM   23  C   UNL     1     -11.794  14.024  65.164  1.00  0.00    -0.370 C  
BRANCH  23  24
HETATM   24  C   UNL     1     -12.440  13.168  64.068  1.00  0.00    -0.270 C  
HETATM   25  O   UNL     1     -12.455  13.885  62.833  1.00  0.00    -1.034 OA 
HETATM   26  H   UNL     1     -12.855  13.354  62.154  1.00  0.00     0.000 HD 
BRANCH  24  27
HETATM   27  C   UNL     1     -11.650  11.872  63.830  1.00  0.00    -0.515 C  
BRANCH  27  28
HETATM   28  C   UNL     1     -10.155  12.027  64.113  1.00  0.00    -0.340 C  
BRANCH  28  29
HETATM   29  C   UNL     1      -9.723  11.261  65.334  1.00  0.00    -0.271 A  
HETATM   30  C   UNL     1      -9.956   9.882  65.416  1.00  0.00    -0.349 A  
HETATM   31  C   UNL     1      -9.554   9.165  66.542  1.00  0.00    -0.289 A  
HETATM   32  C   UNL     1      -8.923   9.822  67.596  1.00  0.00    -0.133 A  
HETATM   33  C   UNL     1      -8.697  11.196  67.527  1.00  0.00    -0.129 A  
HETATM   34  C   UNL     1      -9.098  11.915  66.400  1.00  0.00    -0.208 A  
ENDBRANCH  28  29
ENDBRANCH  27  28
ENDBRANCH  24  27
ENDBRANCH  23  24
ENDBRANCH  22  23
ENDBRANCH  19  22
ENDBRANCH  12  13
ENDBRANCH  11  12
ENDBRANCH   9  10
ENDBRANCH   8   9
ENDBRANCH   7   8
ENDBRANCH   5   7
ENDBRANCH   4   5
ENDBRANCH   2   4
TORSDOF 14
ENDMDL
MODEL       45
REMARK 921   NORMALIZED FREE ENERGY PREDICTED BY IDOCK:   -5.63 KCAL/MOL
REMARK 922        TOTAL FREE ENERGY PREDICTED BY IDOCK:  -13.53 KCAL/MOL
REMARK 923 INTER-LIGAND FREE ENERGY PREDICTED BY IDOCK:  -11.10 KCAL/MOL
REMARK 924 INTRA-LIGAND FREE ENERGY PREDICTED BY IDOCK:   -2.44 KCAL/MOL
REMARK 927      BINDING AFFINITY PREDICTED BY RF-SCORE:    0.00 PKD
ROOT
HETATM    1  C   UNL     1     -12.604  11.813  63.202  1.00  0.00    -0.247 C  
HETATM    2  C   UNL     1     -11.359  11.882  64.079  1.00  0.00    -0.397 C  
HETATM    3  C   UNL     1     -10.173  11.222  63.386  1.00  0.00    -0.454 C  
ENDROOT
BRANCH   2   4
HETATM    4  O   UNL     1     -11.012  13.259  64.312  1.00  0.00    -0.378 OA 
BRANCH   4   5
HETATM    5  C   UNL     1     -12.034  14.047  64.757  1.00  0.00    -0.417 C  
HETATM    6  O   UNL     1     -12.620  14.891  64.091  1.00  0.00    -0.785 OA 
BRANCH   5   7
HETATM    7  C   UNL     1     -12.320  13.737  66.205  1.00  0.00    -0.496 C  
BRANCH   7   8
HETATM    8  C   UNL     1     -11.032  13.387  66.952  1.00  0.00    -0.295 C  
BRANCH   8   9
HETATM    9  C   UNL     1     -11.168  12.151  67.837  1.00  0.00    -0.329 C  
BRANCH   9  10
HETATM   10  C   UNL     1     -10.135  11.106  67.524  1.00  0.00    -0.210 C  
HETATM   11  C   UNL     1      -9.601  10.222  68.384  1.00  0.00    -0.155 C  
BRANCH  11  12
HETATM   12  C   UNL     1      -9.939  10.069  69.839  1.00  0.00    -0.280 C  
BRANCH  12  13
HETATM   13  C   UNL     1     -11.200   9.247  70.157  1.00  0.00    -0.237 C  
HETATM   14  C   UNL     1     -10.864   7.749  70.275  1.00  0.00    -0.249 C  
HETATM   15  C   UNL     1     -12.104   7.166  70.926  1.00  0.00    -0.368 C  
HETATM   16  O   UNL     1      -9.761   7.524  71.153  1.00  0.00    -0.164 OA 
HETATM   17  C   UNL     1     -12.457   8.198  71.992  1.00  0.00    -0.336 C  
HETATM   18  H   UNL     1      -9.553   6.599  71.226  1.00  0.00     0.000 HD 
HETATM   19  C   UNL     1     -11.887   9.559  71.511  1.00  0.00    -0.478 C  
HETATM   20  O   UNL     1     -11.844   7.852  73.232  1.00  0.00    -0.639 OA 
HETATM   21  H   UNL     1     -12.064   8.495  73.895  1.00  0.00     0.000 HD 
BRANCH  19  22
HETATM   22  C   UNL     1     -12.998  10.620  71.395  1.00  0.00    -0.545 C  
BRANCH  22  23
HETATM   23  C   UNL     1     -12.418  11.967  70.954  1.00  0.00    -0.384 C  
BRANCH  23  24
HETATM   24  C   UNL     1     -13.244  13.186  71.384  1.00  0.00    -0.207 C  
HETATM   25  O   UNL     1     -13.965  12.890  72.580  1.00  0.00    -0.727 OA 
HETATM   26  H   UNL     1     -14.476  13.645  72.847  1.00  0.00     0.000 HD 
BRANCH  24  27
HETATM   27  C   UNL     1     -12.344  14.395  71.683  1.00  0.00    -0.415 C  
BRANCH  27  28
HETATM   28  C   UNL     1     -12.572  15.559  70.719  1.00  0.00    -0.505 C  
BRANCH  28  29
HETATM   29  C   UNL     1     -11.376  15.817  69.844  1.00  0.00    -0.349 A  
HETATM   30  C   UNL     1     -11.514  16.567  68.668  1.00  0.00    -0.146 A  
HETATM   31  C   UNL     1     -10.409  16.814  67.855  1.00  0.00    -0.319 A  
HETATM   32  C   UNL     1      -9.159  16.309  68.208  1.00  0.00    -0.197 A  
HETATM   33  C   UNL     1      -9.014  15.553  69.370  1.00  0.00    -0.275 A  
HETATM   34  C   UNL     1     -10.120  15.305  70.185  1.00  0.00    -0.116 A  
ENDBRANCH  28  29
ENDBRANCH  27  28
ENDBRANCH  24  27
ENDBRANCH  23  24
ENDBRANCH  22  23
ENDBRANCH  19  22
ENDBRANCH  12  13
ENDBRANCH  11  12
ENDBRANCH   9  10
ENDBRANCH   8   9
ENDBRANCH   7   8
ENDBRANCH   5   7
ENDBRANCH   4   5
ENDBRANCH   2   4
TORSDOF 14
ENDMDL
MODEL       46
REMARK 921   NORMALIZED FREE ENERGY PREDICTED BY IDOCK:   -5.61 KCAL/MOL
REMARK 922        TOTAL FREE ENERGY PREDICTED BY IDOCK:  -13.50 KCAL/MOL
REMARK 923 INTER-LIGAND FREE ENERGY PREDICTED BY IDOCK:   -9.89 KCAL/MOL
REMARK 924 INTRA-LIGAND FREE ENERGY PREDICTED BY IDOCK:   -3.61 KCAL/MOL
REMARK 927      BINDING AFFINITY PREDICTED BY RF-SCORE:    0.00 PKD
ROOT
HETATM    1  C   UNL     1     -11.469   6.339  69.510  1.00  0.00    -0.387 C  
HETATM    2  C   UNL     1     -11.893   6.514  70.963  1.00  0.00    -0.330 C  
HETATM    3  C   UNL     1     -10.781   6.078  71.908  1.00  0.00    -0.282 C  
ENDROOT
BRANCH   2   4
HETATM    4  O   UNL     1     -12.159   7.905  71.221  1.00  0.00    -0.296 OA 
BRANCH   4   5
HETATM    5  C   UNL     1     -13.432   8.188  71.622  1.00  0.00    -0.332 C  
HETATM    6  O   UNL     1     -14.351   7.380  71.682  1.00  0.00    -0.438 OA 
BRANCH   5   7
HETATM    7  C   UNL     1     -13.545   9.653  71.959  1.00  0.00    -0.467 C  
BRANCH   7   8
HETATM    8  C   UNL     1     -12.379  10.441  71.359  1.00  0.00    -0.500 C  
BRANCH   8   9
HETATM    9  C   UNL     1     -12.822  11.481  70.333  1.00  0.00    -0.021 C  
BRANCH   9  10
HETATM   10  C   UNL     1     -12.041  12.760  70.441  1.00  0.00    -0.382 C  
HETATM   11  C   UNL     1     -11.776  13.625  69.447  1.00  0.00    -0.379 C  
BRANCH  11  12
HETATM   12  C   UNL     1     -12.224  13.515  68.018  1.00  0.00    -0.158 C  
BRANCH  12  13
HETATM   13  C   UNL     1     -11.120  13.640  66.953  1.00  0.00    -0.314 C  
HETATM   14  C   UNL     1     -11.577  13.030  65.615  1.00  0.00    -0.354 C  
HETATM   15  C   UNL     1     -10.550  13.552  64.628  1.00  0.00    -0.441 C  
HETATM   16  O   UNL     1     -12.856  13.526  65.219  1.00  0.00    -0.660 OA 
HETATM   17  C   UNL     1     -10.363  15.004  65.053  1.00  0.00    -0.357 C  
HETATM   18  H   UNL     1     -13.138  13.150  64.393  1.00  0.00     0.000 HD 
HETATM   19  C   UNL     1     -10.721  15.085  66.561  1.00  0.00    -0.312 C  
HETATM   20  O   UNL     1     -11.251  15.847  64.321  1.00  0.00    -0.840 OA 
HETATM   21  H   UNL     1     -11.134  16.752  64.586  1.00  0.00     0.000 HD 
BRANCH  19  22
HETATM   22  C   UNL     1      -9.540  15.631  67.386  1.00  0.00    -0.217 C  
BRANCH  22  23
HETATM   23  C   UNL     1      -8.317  14.720  67.254  1.00  0.00    -0.234 C  
BRANCH  23  24
HETATM   24  C   UNL     1      -7.756  14.212  68.588  1.00  0.00    -0.135 C  
HETATM   25  O   UNL     1      -8.665  14.514  69.647  1.00  0.00    -0.370 OA 
HETATM   26  H   UNL     1      -8.318  14.199  70.473  1.00  0.00     0.000 HD 
BRANCH  24  27
HETATM   27  C   UNL     1      -7.567  12.688  68.572  1.00  0.00    -0.121 C  
BRANCH  27  28
HETATM   28  C   UNL     1      -7.718  12.084  67.176  1.00  0.00    -0.161 C  
BRANCH  28  29
HETATM   29  C   UNL     1      -8.707  10.950  67.149  1.00  0.00    -0.132 A  
HETATM   30  C   UNL     1      -8.681  10.021  66.100  1.00  0.00    -0.153 A  
HETATM   31  C   UNL     1      -9.591   8.965  66.071  1.00  0.00    -0.320 A  
HETATM   32  C   UNL     1     -10.536   8.834  67.086  1.00  0.00    -0.354 A  
HETATM   33  C   UNL     1     -10.575   9.759  68.128  1.00  0.00    -0.276 A  
HETATM   34  C   UNL     1      -9.665  10.817  68.159  1.00  0.00    -0.169 A  
ENDBRANCH  28  29
ENDBRANCH  27  28
ENDBRANCH  24  27
ENDBRANCH  23  24
ENDBRANCH  22  23
ENDBRANCH  19  22
ENDBRANCH  12  13
ENDBRANCH  11  12
ENDBRANCH   9  10
ENDBRANCH   8   9
ENDBRANCH   7   8
ENDBRANCH   5   7
ENDBRANCH   4   5
ENDBRANCH   2   4
TORSDOF 14
ENDMDL
MODEL       47
REMARK 921   NORMALIZED FREE ENERGY PREDICTED BY IDOCK:   -5.58 KCAL/MOL
REMARK 922        TOTAL FREE ENERGY PREDICTED BY IDOCK:  -13.45 KCAL/MOL
REMARK 923 INTER-LIGAND FREE ENERGY PREDICTED BY IDOCK:  -11.15 KCAL/MOL
REMARK 924 INTRA-LIGAND FREE ENERGY PREDICTED BY IDOCK:   -2.30 KCAL/MOL
REMARK 927      BINDING AFFINITY PREDICTED BY RF-SCORE:    0.00 PKD
ROOT
HETATM    1  C   UNL     1      -9.670  17.630  67.716  1.00  0.00    -0.280 C  
HETATM    2  C   UNL     1     -10.556  17.906  66.506  1.00  0.00    -0.235 C  
HETATM    3  C   UNL     1     -10.582  19.394  66.183  1.00  0.00    -0.571 C  
ENDROOT
BRANCH   2   4
HETATM    4  O   UNL     1     -10.023  17.223  65.357  1.00  0.00    -0.521 OA 
BRANCH   4   5
HETATM    5  C   UNL     1     -10.875  16.338  64.762  1.00  0.00    -0.224 C  
HETATM    6  O   UNL     1     -11.714  16.622  63.917  1.00  0.00    -1.153 OA 
BRANCH   5   7
HETATM    7  C   UNL     1     -10.644  14.957  65.320  1.00  0.00    -0.421 C  
BRANCH   7   8
HETATM    8  C   UNL     1     -11.738  14.585  66.323  1.00  0.00    -0.364 C  
BRANCH   8   9
HETATM    9  C   UNL     1     -11.213  13.789  67.516  1.00  0.00    -0.316 C  
BRANCH   9  10
HETATM   10  C   UNL     1     -11.637  12.348  67.474  1.00  0.00    -0.431 C  
HETATM   11  C   UNL     1     -11.199  11.408  66.619  1.00  0.00    -0.298 C  
BRANCH  11  12
HETATM   12  C   UNL     1     -10.174  11.586  65.536  1.00  0.00    -0.303 C  
BRANCH  12  13
HETATM   13  C   UNL     1      -9.699  10.300  64.838  1.00  0.00    -0.385 C  
HETATM   14  C   UNL     1      -9.641  10.493  63.311  1.00  0.00    -0.331 C  
HETATM   15  C   UNL     1      -8.836   9.297  62.841  1.00  0.00    -0.185 C  
HETATM   16  O   UNL     1      -8.921  11.674  62.956  1.00  0.00    -0.557 OA 
HETATM   17  C   UNL     1      -7.722   9.196  63.878  1.00  0.00    -0.122 C  
HETATM   18  H   UNL     1      -8.886  11.793  62.014  1.00  0.00     0.000 HD 
HETATM   19  C   UNL     1      -8.262   9.834  65.186  1.00  0.00    -0.140 C  
HETATM   20  O   UNL     1      -6.579   9.929  63.443  1.00  0.00    -0.115 OA 
HETATM   21  H   UNL     1      -5.885   9.865  64.090  1.00  0.00     0.000 HD 
BRANCH  19  22
HETATM   22  C   UNL     1      -8.217   8.834  66.356  1.00  0.00    -0.111 C  
BRANCH  22  23
HETATM   23  C   UNL     1      -9.541   8.073  66.471  1.00  0.00    -0.295 C  
BRANCH  23  24
HETATM   24  C   UNL     1     -10.308   8.326  67.774  1.00  0.00    -0.234 C  
HETATM   25  O   UNL     1     -11.075   7.172  68.122  1.00  0.00    -0.469 OA 
HETATM   26  H   UNL     1     -11.550   7.329  68.929  1.00  0.00     0.000 HD 
BRANCH  24  27
HETATM   27  C   UNL     1      -9.351   8.603  68.943  1.00  0.00    -0.145 C  
BRANCH  27  28
HETATM   28  C   UNL     1      -9.702   9.878  69.710  1.00  0.00    -0.266 C  
BRANCH  28  29
HETATM   29  C   UNL     1     -10.869   9.681  70.639  1.00  0.00    -0.386 A  
HETATM   30  C   UNL     1     -11.884  10.644  70.706  1.00  0.00    -0.459 A  
HETATM   31  C   UNL     1     -12.970  10.466  71.561  1.00  0.00    -0.562 A  
HETATM   32  C   UNL     1     -13.047   9.327  72.360  1.00  0.00    -0.481 A  
HETATM   33  C   UNL     1     -12.036   8.368  72.307  1.00  0.00    -0.456 A  
HETATM   34  C   UNL     1     -10.948   8.545  71.451  1.00  0.00    -0.329 A  
ENDBRANCH  28  29
ENDBRANCH  27  28
ENDBRANCH  24  27
ENDBRANCH  23  24
ENDBRANCH  22  23
ENDBRANCH  19  22
ENDBRANCH  12  13
ENDBRANCH  11  12
ENDBRANCH   9  10
ENDBRANCH   8   9
ENDBRANCH   7   8
ENDBRANCH   5   7
ENDBRANCH   4   5
ENDBRANCH   2   4
TORSDOF 14
ENDMDL
MODEL       48
REMARK 921   NORMALIZED FREE ENERGY PREDICTED BY IDOCK:   -5.57 KCAL/MOL
REMARK 922        TOTAL FREE ENERGY PREDICTED BY IDOCK:  -13.43 KCAL/MOL
REMARK 923 INTER-LIGAND FREE ENERGY PREDICTED BY IDOCK:  -10.37 KCAL/MOL
REMARK 924 INTRA-LIGAND FREE ENERGY PREDICTED BY IDOCK:   -3.05 KCAL/MOL
REMARK 927      BINDING AFFINITY PREDICTED BY RF-SCORE:    0.00 PKD
ROOT
HETATM    1  C   UNL     1     -10.160  11.324  64.247  1.00  0.00    -0.366 C  
HETATM    2  C   UNL     1     -11.151  12.469  64.063  1.00  0.00    -0.397 C  
HETATM    3  C   UNL     1     -12.403  11.989  63.341  1.00  0.00    -0.635 C  
ENDROOT
BRANCH   2   4
HETATM    4  O   UNL     1     -11.557  12.962  65.353  1.00  0.00    -0.322 OA 
BRANCH   4   5
HETATM    5  C   UNL     1     -11.638  14.320  65.456  1.00  0.00    -0.338 C  
HETATM    6  O   UNL     1     -12.130  15.065  64.618  1.00  0.00    -0.399 OA 
BRANCH   5   7
HETATM    7  C   UNL     1     -11.007  14.770  66.749  1.00  0.00    -0.327 C  
BRANCH   7   8
HETATM    8  C   UNL     1      -9.711  14.002  67.018  1.00  0.00    -0.256 C  
BRANCH   8   9
HETATM    9  C   UNL     1      -9.792  13.099  68.246  1.00  0.00    -0.227 C  
BRANCH   9  10
HETATM   10  C   UNL     1      -8.649  12.127  68.319  1.00  0.00    -0.175 C  
HETATM   11  C   UNL     1      -8.725  10.821  68.623  1.00  0.00    -0.152 C  
BRANCH  11  12
HETATM   12  C   UNL     1      -9.971  10.042  68.932  1.00  0.00    -0.198 C  
BRANCH  12  13
HETATM   13  C   UNL     1     -10.630  10.334  70.291  1.00  0.00    -0.264 C  
HETATM   14  C   UNL     1     -11.873  11.226  70.118  1.00  0.00    -0.364 C  
HETATM   15  C   UNL     1     -12.572  11.109  71.459  1.00  0.00    -0.431 C  
HETATM   16  O   UNL     1     -12.755  10.713  69.118  1.00  0.00    -0.685 OA 
HETATM   17  C   UNL     1     -12.444   9.626  71.793  1.00  0.00    -0.402 C  
HETATM   18  H   UNL     1     -13.522  11.264  69.012  1.00  0.00     0.000 HD 
HETATM   19  C   UNL     1     -11.186   9.103  71.051  1.00  0.00    -0.380 C  
HETATM   20  O   UNL     1     -13.588   8.917  71.321  1.00  0.00    -0.510 OA 
HETATM   21  H   UNL     1     -13.508   7.993  71.528  1.00  0.00     0.000 HD 
BRANCH  19  22
HETATM   22  C   UNL     1     -10.172   8.491  72.036  1.00  0.00    -0.391 C  
BRANCH  22  23
HETATM   23  C   UNL     1     -10.889   7.696  73.131  1.00  0.00    -0.440 C  
BRANCH  23  24
HETATM   24  C   UNL     1     -11.102   6.213  72.805  1.00  0.00    -0.259 C  
HETATM   25  O   UNL     1     -12.438   6.001  72.348  1.00  0.00    -0.517 OA 
HETATM   26  H   UNL     1     -12.570   5.082  72.146  1.00  0.00     0.000 HD 
BRANCH  24  27
HETATM   27  C   UNL     1     -10.160   5.746  71.685  1.00  0.00    -0.241 C  
BRANCH  27  28
HETATM   28  C   UNL     1     -10.904   5.345  70.411  1.00  0.00    -0.208 C  
BRANCH  28  29
HETATM   29  C   UNL     1     -10.329   6.000  69.185  1.00  0.00    -0.289 A  
HETATM   30  C   UNL     1     -11.156   6.296  68.093  1.00  0.00    -0.364 A  
HETATM   31  C   UNL     1     -10.631   6.908  66.956  1.00  0.00    -0.403 A  
HETATM   32  C   UNL     1      -9.275   7.223  66.899  1.00  0.00    -0.180 A  
HETATM   33  C   UNL     1      -8.443   6.924  67.977  1.00  0.00    -0.124 A  
HETATM   34  C   UNL     1      -8.967   6.312  69.116  1.00  0.00    -0.127 A  
ENDBRANCH  28  29
ENDBRANCH  27  28
ENDBRANCH  24  27
ENDBRANCH  23  24
ENDBRANCH  22  23
ENDBRANCH  19  22
ENDBRANCH  12  13
ENDBRANCH  11  12
ENDBRANCH   9  10
ENDBRANCH   8   9
ENDBRANCH   7   8
ENDBRANCH   5   7
ENDBRANCH   4   5
ENDBRANCH   2   4
TORSDOF 14
ENDMDL
MODEL       49
REMARK 921   NORMALIZED FREE ENERGY PREDICTED BY IDOCK:   -5.56 KCAL/MOL
REMARK 922        TOTAL FREE ENERGY PREDICTED BY IDOCK:  -13.41 KCAL/MOL
REMARK 923 INTER-LIGAND FREE ENERGY PREDICTED BY IDOCK:  -10.46 KCAL/MOL
REMARK 924 INTRA-LIGAND FREE ENERGY PREDICTED BY IDOCK:   -2.95 KCAL/MOL
REMARK 927      BINDING AFFINITY PREDICTED BY RF-SCORE:    0.00 PKD
ROOT
HETATM    1  C   UNL     1     -11.123   6.111  70.632  1.00  0.00    -0.384 C  
HETATM    2  C   UNL     1      -9.663   6.510  70.447  1.00  0.00    -0.172 C  
HETATM    3  C   UNL     1      -8.735   5.448  71.020  1.00  0.00    -0.141 C  
ENDROOT
BRANCH   2   4
HETATM    4  O   UNL     1      -9.372   6.627  69.042  1.00  0.00    -0.135 OA 
BRANCH   4   5
HETATM    5  C   UNL     1      -9.897   7.728  68.430  1.00  0.00    -0.168 C  
HETATM    6  O   UNL     1     -10.786   7.714  67.588  1.00  0.00    -0.232 OA 
BRANCH   5   7
HETATM    7  C   UNL     1      -9.199   8.967  68.931  1.00  0.00    -0.140 C  
BRANCH   7   8
HETATM    8  C   UNL     1     -10.213  10.058  69.282  1.00  0.00    -0.229 C  
BRANCH   8   9
HETATM    9  C   UNL     1     -10.759   9.936  70.702  1.00  0.00    -0.372 C  
BRANCH   9  10
HETATM   10  C   UNL     1     -12.236   9.658  70.726  1.00  0.00    -0.309 C  
HETATM   11  C   UNL     1     -13.185  10.416  71.299  1.00  0.00    -0.431 C  
BRANCH  11  12
HETATM   12  C   UNL     1     -12.982  11.718  72.020  1.00  0.00    -0.370 C  
BRANCH  12  13
HETATM   13  C   UNL     1     -13.380  12.987  71.247  1.00  0.00    -0.085 C  
HETATM   14  C   UNL     1     -14.057  14.009  72.179  1.00  0.00    -0.547 C  
HETATM   15  C   UNL     1     -14.047  15.285  71.360  1.00  0.00    -0.595 C  
HETATM   16  O   UNL     1     -13.284  14.239  73.358  1.00  0.00    -0.543 OA 
HETATM   17  C   UNL     1     -12.663  15.279  70.720  1.00  0.00    -0.433 C  
HETATM   18  H   UNL     1     -13.702  14.869  73.934  1.00  0.00     0.000 HD 
HETATM   19  C   UNL     1     -12.212  13.797  70.629  1.00  0.00    -0.434 C  
HETATM   20  O   UNL     1     -11.740  15.994  71.540  1.00  0.00    -0.427 OA 
HETATM   21  H   UNL     1     -10.878  15.990  71.141  1.00  0.00     0.000 HD 
BRANCH  19  22
HETATM   22  C   UNL     1     -11.900  13.397  69.175  1.00  0.00    -0.383 C  
BRANCH  22  23
HETATM   23  C   UNL     1     -10.844  14.326  68.570  1.00  0.00    -0.264 C  
BRANCH  23  24
HETATM   24  C   UNL     1     -11.390  15.322  67.539  1.00  0.00    -0.297 C  
HETATM   25  O   UNL     1     -10.845  16.620  67.778  1.00  0.00    -0.340 OA 
HETATM   26  H   UNL     1     -11.182  17.237  67.140  1.00  0.00     0.000 HD 
BRANCH  24  27
HETATM   27  C   UNL     1     -10.995  14.921  66.110  1.00  0.00    -0.334 C  
BRANCH  27  28
HETATM   28  C   UNL     1     -11.925  13.865  65.510  1.00  0.00    -0.397 C  
BRANCH  28  29
HETATM   29  C   UNL     1     -11.179  12.638  65.062  1.00  0.00    -0.331 A  
HETATM   30  C   UNL     1     -10.793  12.501  63.722  1.00  0.00    -0.489 A  
HETATM   31  C   UNL     1     -10.097  11.368  63.301  1.00  0.00    -0.424 A  
HETATM   32  C   UNL     1      -9.787  10.363  64.214  1.00  0.00    -0.388 A  
HETATM   33  C   UNL     1     -10.176  10.486  65.548  1.00  0.00    -0.325 A  
HETATM   34  C   UNL     1     -10.872  11.620  65.971  1.00  0.00    -0.339 A  
ENDBRANCH  28  29
ENDBRANCH  27  28
ENDBRANCH  24  27
ENDBRANCH  23  24
ENDBRANCH  22  23
ENDBRANCH  19  22
ENDBRANCH  12  13
ENDBRANCH  11  12
ENDBRANCH   9  10
ENDBRANCH   8   9
ENDBRANCH   7   8
ENDBRANCH   5   7
ENDBRANCH   4   5
ENDBRANCH   2   4
TORSDOF 14
ENDMDL
MODEL       50
REMARK 921   NORMALIZED FREE ENERGY PREDICTED BY IDOCK:   -5.53 KCAL/MOL
REMARK 922        TOTAL FREE ENERGY PREDICTED BY IDOCK:  -13.35 KCAL/MOL
REMARK 923 INTER-LIGAND FREE ENERGY PREDICTED BY IDOCK:  -10.02 KCAL/MOL
REMARK 924 INTRA-LIGAND FREE ENERGY PREDICTED BY IDOCK:   -3.33 KCAL/MOL
REMARK 927      BINDING AFFINITY PREDICTED BY RF-SCORE:    0.00 PKD
ROOT
HETATM    1  C   UNL     1     -12.121   6.636  71.410  1.00  0.00    -0.400 C  
HETATM    2  C   UNL     1     -10.917   7.031  70.562  1.00  0.00    -0.265 C  
HETATM    3  C   UNL     1     -11.001   6.401  69.178  1.00  0.00    -0.416 C  
ENDROOT
BRANCH   2   4
HETATM    4  O   UNL     1     -10.903   8.460  70.386  1.00  0.00    -0.229 OA 
BRANCH   4   5
HETATM    5  C   UNL     1      -9.819   9.098  70.915  1.00  0.00    -0.291 C  
HETATM    6  O   UNL     1      -9.410   8.968  72.062  1.00  0.00    -0.358 OA 
BRANCH   5   7
HETATM    7  C   UNL     1      -9.210  10.008  69.879  1.00  0.00    -0.195 C  
BRANCH   7   8
HETATM    8  C   UNL     1      -7.752   9.631  69.612  1.00  0.00    -0.124 C  
BRANCH   8   9
HETATM    9  C   UNL     1      -6.884  10.825  69.222  1.00  0.00    -0.092 C  
BRANCH   9  10
HETATM   10  C   UNL     1      -7.207  11.342  67.848  1.00  0.00    -0.084 C  
HETATM   11  C   UNL     1      -7.876  12.469  67.551  1.00  0.00    -0.168 C  
BRANCH  11  12
HETATM   12  C   UNL     1      -8.425  13.470  68.526  1.00  0.00    -0.092 C  
BRANCH  12  13
HETATM   13  C   UNL     1      -9.636  14.288  68.045  1.00  0.00    -0.223 C  
HETATM   14  C   UNL     1     -10.703  14.392  69.149  1.00  0.00    -0.238 C  
HETATM   15  C   UNL     1     -11.617  15.494  68.646  1.00  0.00    -0.379 C  
HETATM   16  O   UNL     1     -10.140  14.823  70.389  1.00  0.00    -0.350 OA 
HETATM   17  C   UNL     1     -10.644  16.531  68.096  1.00  0.00    -0.329 C  
HETATM   18  H   UNL     1     -10.799  14.886  71.070  1.00  0.00     0.000 HD 
HETATM   19  C   UNL     1      -9.352  15.771  67.692  1.00  0.00    -0.216 C  
HETATM   20  O   UNL     1     -10.322  17.486  69.105  1.00  0.00    -0.349 OA 
HETATM   21  H   UNL     1      -9.716  18.132  68.762  1.00  0.00     0.000 HD 
BRANCH  19  22
HETATM   22  C   UNL     1      -9.021  15.986  66.203  1.00  0.00    -0.381 C  
BRANCH  22  23
HETATM   23  C   UNL     1     -10.123  16.794  65.512  1.00  0.00    -0.123 C  
BRANCH  23  24
HETATM   24  C   UNL     1     -11.239  15.945  64.892  1.00  0.00    -0.337 C  
HETATM   25  O   UNL     1     -11.548  16.425  63.583  1.00  0.00    -1.514 OA 
HETATM   26  H   UNL     1     -12.240  15.899  63.199  1.00  0.00     0.000 HD 
BRANCH  24  27
HETATM   27  C   UNL     1     -10.813  14.477  64.749  1.00  0.00    -0.410 C  
BRANCH  27  28
HETATM   28  C   UNL     1     -11.779  13.507  65.430  1.00  0.00    -0.351 C  
BRANCH  28  29
HETATM   29  C   UNL     1     -11.162  12.153  65.656  1.00  0.00    -0.381 A  
HETATM   30  C   UNL     1     -10.441  11.530  64.629  1.00  0.00    -0.356 A  
HETATM   31  C   UNL     1      -9.863  10.278  64.833  1.00  0.00    -0.404 A  
HETATM   32  C   UNL     1     -10.006   9.638  66.062  1.00  0.00    -0.344 A  
HETATM   33  C   UNL     1     -10.730  10.246  67.086  1.00  0.00    -0.303 A  
HETATM   34  C   UNL     1     -11.309  11.500  66.884  1.00  0.00    -0.324 A  
ENDBRANCH  28  29
ENDBRANCH  27  28
ENDBRANCH  24  27
ENDBRANCH  23  24
ENDBRANCH  22  23
ENDBRANCH  19  22
ENDBRANCH  12  13
ENDBRANCH  11  12
ENDBRANCH   9  10
ENDBRANCH   8   9
ENDBRANCH   7   8
ENDBRANCH   5   7
ENDBRANCH   4   5
ENDBRANCH   2   4
TORSDOF 14
ENDMDL
MODEL       51
REMARK 921   NORMALIZED FREE ENERGY PREDICTED BY IDOCK:   -5.53 KCAL/MOL
REMARK 922        TOTAL FREE ENERGY PREDICTED BY IDOCK:  -13.35 KCAL/MOL
REMARK 923 INTER-LIGAND FREE ENERGY PREDICTED BY IDOCK:  -11.00 KCAL/MOL
REMARK 924 INTRA-LIGAND FREE ENERGY PREDICTED BY IDOCK:   -2.35 KCAL/MOL
REMARK 927      BINDING AFFINITY PREDICTED BY RF-SCORE:    0.00 PKD
ROOT
HETATM    1  C   UNL     1     -12.047   8.215  72.343  1.00  0.00    -0.406 C  
HETATM    2  C   UNL     1     -10.548   8.054  72.116  1.00  0.00    -0.272 C  
HETATM    3  C   UNL     1      -9.821   7.840  73.437  1.00  0.00    -0.346 C  
ENDROOT
BRANCH   2   4
HETATM    4  O   UNL     1     -10.309   6.895  71.297  1.00  0.00    -0.203 OA 
BRANCH   4   5
HETATM    5  C   UNL     1     -10.727   7.002  70.003  1.00  0.00    -0.242 C  
HETATM    6  O   UNL     1     -11.739   6.491  69.541  1.00  0.00    -0.329 OA 
BRANCH   5   7
HETATM    7  C   UNL     1      -9.741   7.830  69.218  1.00  0.00    -0.165 C  
BRANCH   7   8
HETATM    8  C   UNL     1     -10.456   8.936  68.440  1.00  0.00    -0.230 C  
BRANCH   8   9
HETATM    9  C   UNL     1     -10.856  10.123  69.313  1.00  0.00    -0.269 C  
BRANCH   9  10
HETATM   10  C   UNL     1     -11.424  11.258  68.510  1.00  0.00    -0.372 C  
HETATM   11  C   UNL     1     -11.902  12.420  68.989  1.00  0.00    -0.349 C  
BRANCH  11  12
HETATM   12  C   UNL     1     -11.949  12.846  70.428  1.00  0.00    -0.329 C  
BRANCH  12  13
HETATM   13  C   UNL     1     -12.704  14.154  70.720  1.00  0.00    -0.414 C  
HETATM   14  C   UNL     1     -13.941  13.890  71.600  1.00  0.00    -0.256 C  
HETATM   15  C   UNL     1     -14.334  15.277  72.070  1.00  0.00    -0.689 C  
HETATM   16  O   UNL     1     -13.612  13.113  72.751  1.00  0.00    -0.631 OA 
HETATM   17  C   UNL     1     -12.994  15.928  72.399  1.00  0.00    -0.433 C  
HETATM   18  H   UNL     1     -14.375  12.950  73.294  1.00  0.00     0.000 HD 
HETATM   19  C   UNL     1     -11.921  15.220  71.529  1.00  0.00    -0.429 C  
HETATM   20  O   UNL     1     -12.678  15.730  73.776  1.00  0.00    -0.509 OA 
HETATM   21  H   UNL     1     -11.843  16.135  73.980  1.00  0.00     0.000 HD 
BRANCH  19  22
HETATM   22  C   UNL     1     -11.173  16.227  70.637  1.00  0.00    -0.310 C  
BRANCH  22  23
HETATM   23  C   UNL     1     -11.535  16.022  69.163  1.00  0.00    -0.347 C  
BRANCH  23  24
HETATM   24  C   UNL     1     -10.520  16.603  68.172  1.00  0.00    -0.321 C  
HETATM   25  O   UNL     1      -9.355  17.046  68.869  1.00  0.00    -0.265 OA 
HETATM   26  H   UNL     1      -8.726  17.405  68.255  1.00  0.00     0.000 HD 
BRANCH  24  27
HETATM   27  C   UNL     1     -10.064  15.546  67.153  1.00  0.00    -0.254 C  
BRANCH  27  28
HETATM   28  C   UNL     1     -10.995  15.446  65.944  1.00  0.00    -0.293 C  
BRANCH  28  29
HETATM   29  C   UNL     1     -11.025  14.059  65.362  1.00  0.00    -0.321 A  
HETATM   30  C   UNL     1     -12.045  13.692  64.474  1.00  0.00    -0.459 A  
HETATM   31  C   UNL     1     -12.077  12.411  63.927  1.00  0.00    -0.587 A  
HETATM   32  C   UNL     1     -11.093  11.484  64.268  1.00  0.00    -0.385 A  
HETATM   33  C   UNL     1     -10.080  11.837  65.158  1.00  0.00    -0.298 A  
HETATM   34  C   UNL     1     -10.047  13.120  65.706  1.00  0.00    -0.290 A  
ENDBRANCH  28  29
ENDBRANCH  27  28
ENDBRANCH  24  27
ENDBRANCH  23  24
ENDBRANCH  22  23
ENDBRANCH  19  22
ENDBRANCH  12  13
ENDBRANCH  11  12
ENDBRANCH   9  10
ENDBRANCH   8   9
ENDBRANCH   7   8
ENDBRANCH   5   7
ENDBRANCH   4   5
ENDBRANCH   2   4
TORSDOF 14
ENDMDL
MODEL       52
REMARK 921   NORMALIZED FREE ENERGY PREDICTED BY IDOCK:   -5.52 KCAL/MOL
REMARK 922        TOTAL FREE ENERGY PREDICTED BY IDOCK:  -13.34 KCAL/MOL
REMARK 923 INTER-LIGAND FREE ENERGY PREDICTED BY IDOCK:  -10.33 KCAL/MOL
REMARK 924 INTRA-LIGAND FREE ENERGY PREDICTED BY IDOCK:   -3.01 KCAL/MOL
REMARK 927      BINDING AFFINITY PREDICTED BY RF-SCORE:    0.00 PKD
ROOT
HETATM    1  C   UNL     1     -11.396  15.992  64.693  1.00  0.00    -0.312 C  
HETATM    2  C   UNL     1     -11.616  14.489  64.823  1.00  0.00    -0.413 C  
HETATM    3  C   UNL     1     -12.493  14.173  66.028  1.00  0.00    -0.454 C  
ENDROOT
BRANCH   2   4
HETATM    4  O   UNL     1     -12.298  14.002  63.653  1.00  0.00    -0.728 OA 
BRANCH   4   5
HETATM    5  C   UNL     1     -12.172  12.662  63.424  1.00  0.00    -0.517 C  
HETATM    6  O   UNL     1     -13.099  11.889  63.218  1.00  0.00    -0.674 OA 
BRANCH   5   7
HETATM    7  C   UNL     1     -10.717  12.271  63.486  1.00  0.00    -0.497 C  
BRANCH   7   8
HETATM    8  C   UNL     1     -10.544  10.930  64.201  1.00  0.00    -0.327 C  
BRANCH   8   9
HETATM    9  C   UNL     1     -10.174  11.079  65.675  1.00  0.00    -0.318 C  
BRANCH   9  10
HETATM   10  C   UNL     1      -8.696  11.262  65.878  1.00  0.00    -0.146 C  
HETATM   11  C   UNL     1      -8.063  11.438  67.050  1.00  0.00    -0.157 C  
BRANCH  11  12
HETATM   12  C   UNL     1      -8.690  11.466  68.414  1.00  0.00    -0.157 C  
BRANCH  12  13
HETATM   13  C   UNL     1      -9.862  10.495  68.638  1.00  0.00    -0.183 C  
HETATM   14  C   UNL     1      -9.349   9.087  68.990  1.00  0.00    -0.140 C  
HETATM   15  C   UNL     1     -10.588   8.388  69.515  1.00  0.00    -0.217 C  
HETATM   16  O   UNL     1      -8.387   9.124  70.045  1.00  0.00    -0.120 OA 
HETATM   17  C   UNL     1     -11.252   9.455  70.380  1.00  0.00    -0.262 C  
HETATM   18  H   UNL     1      -8.070   8.255  70.261  1.00  0.00     0.000 HD 
HETATM   19  C   UNL     1     -10.801  10.832  69.825  1.00  0.00    -0.284 C  
HETATM   20  O   UNL     1     -10.812   9.334  71.731  1.00  0.00    -0.368 OA 
HETATM   21  H   UNL     1     -11.226   9.999  72.269  1.00  0.00     0.000 HD 
BRANCH  19  22
HETATM   22  C   UNL     1     -12.011  11.691  69.414  1.00  0.00    -0.381 C  
BRANCH  22  23
HETATM   23  C   UNL     1     -12.205  12.858  70.387  1.00  0.00    -0.381 C  
BRANCH  23  24
HETATM   24  C   UNL     1     -12.271  14.237  69.721  1.00  0.00    -0.339 C  
HETATM   25  O   UNL     1     -13.383  14.973  70.231  1.00  0.00    -0.635 OA 
HETATM   26  H   UNL     1     -13.424  15.828  69.819  1.00  0.00     0.000 HD 
BRANCH  24  27
HETATM   27  C   UNL     1     -11.009  15.062  70.014  1.00  0.00    -0.268 C  
BRANCH  27  28
HETATM   28  C   UNL     1      -9.941  14.921  68.928  1.00  0.00    -0.233 C  
BRANCH  28  29
HETATM   29  C   UNL     1      -9.774  16.183  68.126  1.00  0.00    -0.222 A  
HETATM   30  C   UNL     1      -8.707  16.307  67.227  1.00  0.00    -0.200 A  
HETATM   31  C   UNL     1      -8.549  17.471  66.477  1.00  0.00    -0.293 A  
HETATM   32  C   UNL     1      -9.452  18.521  66.623  1.00  0.00    -0.313 A  
HETATM   33  C   UNL     1     -10.512  18.410  67.523  1.00  0.00    -0.445 A  
HETATM   34  C   UNL     1     -10.672  17.245  68.274  1.00  0.00    -0.349 A  
ENDBRANCH  28  29
ENDBRANCH  27  28
ENDBRANCH  24  27
ENDBRANCH  23  24
ENDBRANCH  22  23
ENDBRANCH  19  22
ENDBRANCH  12  13
ENDBRANCH  11  12
ENDBRANCH   9  10
ENDBRANCH   8   9
ENDBRANCH   7   8
ENDBRANCH   5   7
ENDBRANCH   4   5
ENDBRANCH   2   4
TORSDOF 14
ENDMDL
MODEL       53
REMARK 921   NORMALIZED FREE ENERGY PREDICTED BY IDOCK:   -5.52 KCAL/MOL
REMARK 922        TOTAL FREE ENERGY PREDICTED BY IDOCK:  -13.33 KCAL/MOL
REMARK 923 INTER-LIGAND FREE ENERGY PREDICTED BY IDOCK:  -11.39 KCAL/MOL
REMARK 924 INTRA-LIGAND FREE ENERGY PREDICTED BY IDOCK:   -1.94 KCAL/MOL
REMARK 927      BINDING AFFINITY PREDICTED BY RF-SCORE:    0.00 PKD
ROOT
HETATM    1  C   UNL     1     -10.203   8.460  72.549  1.00  0.00    -0.369 C  
HETATM    2  C   UNL     1     -11.615   7.899  72.672  1.00  0.00    -0.377 C  
HETATM    3  C   UNL     1     -12.652   8.994  72.461  1.00  0.00    -0.342 C  
ENDROOT
BRANCH   2   4
HETATM    4  O   UNL     1     -11.824   6.902  71.654  1.00  0.00    -0.287 OA 
BRANCH   4   5
HETATM    5  C   UNL     1     -11.193   5.712  71.869  1.00  0.00    -0.181 C  
HETATM    6  O   UNL     1     -11.303   5.024  72.876  1.00  0.00    -0.278 OA 
BRANCH   5   7
HETATM    7  C   UNL     1     -10.318   5.381  70.687  1.00  0.00    -0.333 C  
BRANCH   7   8
HETATM    8  C   UNL     1     -10.901   5.962  69.398  1.00  0.00    -0.422 C  
BRANCH   8   9
HETATM    9  C   UNL     1      -9.863   6.131  68.291  1.00  0.00    -0.138 C  
BRANCH   9  10
HETATM   10  C   UNL     1     -10.448   6.733  67.045  1.00  0.00    -0.369 C  
HETATM   11  C   UNL     1     -10.526   8.041  66.746  1.00  0.00    -0.319 C  
BRANCH  11  12
HETATM   12  C   UNL     1     -10.024   9.184  67.580  1.00  0.00    -0.245 C  
BRANCH  12  13
HETATM   13  C   UNL     1     -11.033  10.310  67.861  1.00  0.00    -0.350 C  
HETATM   14  C   UNL     1     -11.189  10.545  69.375  1.00  0.00    -0.269 C  
HETATM   15  C   UNL     1     -11.910  11.877  69.447  1.00  0.00    -0.389 C  
HETATM   16  O   UNL     1      -9.923  10.696  70.018  1.00  0.00    -0.411 OA 
HETATM   17  C   UNL     1     -11.216  12.709  68.373  1.00  0.00    -0.279 C  
HETATM   18  H   UNL     1     -10.019  10.840  70.952  1.00  0.00     0.000 HD 
HETATM   19  C   UNL     1     -10.646  11.713  67.328  1.00  0.00    -0.265 C  
HETATM   20  O   UNL     1     -10.139  13.448  68.945  1.00  0.00    -0.410 OA 
HETATM   21  H   UNL     1      -9.707  13.966  68.275  1.00  0.00     0.000 HD 
BRANCH  19  22
HETATM   22  C   UNL     1     -11.202  12.002  65.921  1.00  0.00    -0.385 C  
BRANCH  22  23
HETATM   23  C   UNL     1     -11.742  13.432  65.833  1.00  0.00    -0.389 C  
BRANCH  23  24
HETATM   24  C   UNL     1     -11.179  14.253  64.667  1.00  0.00    -0.366 C  
HETATM   25  O   UNL     1     -12.226  14.593  63.758  1.00  0.00    -0.956 OA 
HETATM   26  H   UNL     1     -11.877  15.102  63.036  1.00  0.00     0.000 HD 
BRANCH  24  27
HETATM   27  C   UNL     1     -10.559  15.571  65.158  1.00  0.00    -0.455 C  
BRANCH  27  28
HETATM   28  C   UNL     1     -10.880  15.869  66.623  1.00  0.00    -0.213 C  
BRANCH  28  29
HETATM   29  C   UNL     1     -10.589  17.298  66.990  1.00  0.00    -0.231 A  
HETATM   30  C   UNL     1     -10.399  17.653  68.333  1.00  0.00    -0.375 A  
HETATM   31  C   UNL     1     -10.123  18.975  68.680  1.00  0.00    -0.449 A  
HETATM   32  C   UNL     1     -10.041  19.952  67.690  1.00  0.00    -0.564 A  
HETATM   33  C   UNL     1     -10.238  19.609  66.353  1.00  0.00    -0.592 A  
HETATM   34  C   UNL     1     -10.513  18.286  66.003  1.00  0.00    -0.380 A  
ENDBRANCH  28  29
ENDBRANCH  27  28
ENDBRANCH  24  27
ENDBRANCH  23  24
ENDBRANCH  22  23
ENDBRANCH  19  22
ENDBRANCH  12  13
ENDBRANCH  11  12
ENDBRANCH   9  10
ENDBRANCH   8   9
ENDBRANCH   7   8
ENDBRANCH   5   7
ENDBRANCH   4   5
ENDBRANCH   2   4
TORSDOF 14
ENDMDL
MODEL       54
REMARK 921   NORMALIZED FREE ENERGY PREDICTED BY IDOCK:   -5.50 KCAL/MOL
REMARK 922        TOTAL FREE ENERGY PREDICTED BY IDOCK:  -13.30 KCAL/MOL
REMARK 923 INTER-LIGAND FREE ENERGY PREDICTED BY IDOCK:  -11.19 KCAL/MOL
REMARK 924 INTRA-LIGAND FREE ENERGY PREDICTED BY IDOCK:   -2.11 KCAL/MOL
REMARK 927      BINDING AFFINITY PREDICTED BY RF-SCORE:    0.00 PKD
ROOT
HETATM    1  C   UNL     1     -10.502  19.553  68.203  1.00  0.00    -0.497 C  
HETATM    2  C   UNL     1      -9.807  19.176  66.899  1.00  0.00    -0.335 C  
HETATM    3  C   UNL     1     -10.516  19.806  65.707  1.00  0.00    -0.545 C  
ENDROOT
BRANCH   2   4
HETATM    4  O   UNL     1      -8.457  19.675  66.913  1.00  0.00    -0.282 OA 
BRANCH   4   5
HETATM    5  C   UNL     1      -7.613  19.039  67.776  1.00  0.00    -0.245 C  
HETATM    6  O   UNL     1      -7.073  19.554  68.747  1.00  0.00    -0.319 OA 
BRANCH   5   7
HETATM    7  C   UNL     1      -7.426  17.608  67.341  1.00  0.00    -0.209 C  
BRANCH   7   8
HETATM    8  C   UNL     1      -7.956  16.642  68.403  1.00  0.00    -0.205 C  
BRANCH   8   9
HETATM    9  C   UNL     1      -8.990  15.659  67.858  1.00  0.00    -0.180 C  
BRANCH   9  10
HETATM   10  C   UNL     1      -9.056  15.672  66.357  1.00  0.00    -0.355 C  
HETATM   11  C   UNL     1     -10.091  15.276  65.596  1.00  0.00    -0.401 C  
BRANCH  11  12
HETATM   12  C   UNL     1     -11.414  14.758  66.080  1.00  0.00    -0.311 C  
BRANCH  12  13
HETATM   13  C   UNL     1     -11.728  13.289  65.746  1.00  0.00    -0.395 C  
HETATM   14  C   UNL     1     -12.736  13.193  64.586  1.00  0.00    -0.261 C  
HETATM   15  C   UNL     1     -12.647  11.737  64.169  1.00  0.00    -0.207 C  
HETATM   16  O   UNL     1     -12.337  13.993  63.473  1.00  0.00    -1.032 OA 
HETATM   17  C   UNL     1     -11.150  11.450  64.218  1.00  0.00    -0.285 C  
HETATM   18  H   UNL     1     -12.959  13.934  62.757  1.00  0.00     0.000 HD 
HETATM   19  C   UNL     1     -10.533  12.441  65.241  1.00  0.00    -0.316 C  
HETATM   20  O   UNL     1     -10.564  11.681  62.939  1.00  0.00    -0.651 OA 
HETATM   21  H   UNL     1      -9.632  11.503  62.970  1.00  0.00     0.000 HD 
BRANCH  19  22
HETATM   22  C   UNL     1      -9.802  11.692  66.371  1.00  0.00    -0.233 C  
BRANCH  22  23
HETATM   23  C   UNL     1     -10.085  10.189  66.299  1.00  0.00    -0.303 C  
BRANCH  23  24
HETATM   24  C   UNL     1     -10.681   9.593  67.580  1.00  0.00    -0.256 C  
HETATM   25  O   UNL     1     -11.158   8.271  67.327  1.00  0.00    -0.429 OA 
HETATM   26  H   UNL     1     -11.527   7.901  68.120  1.00  0.00     0.000 HD 
BRANCH  24  27
HETATM   27  C   UNL     1      -9.628   9.490  68.694  1.00  0.00    -0.151 C  
BRANCH  27  28
HETATM   28  C   UNL     1      -9.917  10.419  69.873  1.00  0.00    -0.096 C  
BRANCH  28  29
HETATM   29  C   UNL     1     -11.029   9.904  70.745  1.00  0.00    -0.407 A  
HETATM   30  C   UNL     1     -10.851   8.729  71.489  1.00  0.00    -0.374 A  
HETATM   31  C   UNL     1     -11.875   8.248  72.303  1.00  0.00    -0.451 A  
HETATM   32  C   UNL     1     -13.085   8.934  72.376  1.00  0.00    -0.476 A  
HETATM   33  C   UNL     1     -13.275  10.098  71.633  1.00  0.00    -0.518 A  
HETATM   34  C   UNL     1     -12.250  10.581  70.817  1.00  0.00    -0.468 A  
ENDBRANCH  28  29
ENDBRANCH  27  28
ENDBRANCH  24  27
ENDBRANCH  23  24
ENDBRANCH  22  23
ENDBRANCH  19  22
ENDBRANCH  12  13
ENDBRANCH  11  12
ENDBRANCH   9  10
ENDBRANCH   8   9
ENDBRANCH   7   8
ENDBRANCH   5   7
ENDBRANCH   4   5
ENDBRANCH   2   4
TORSDOF 14
ENDMDL
MODEL       55
REMARK 921   NORMALIZED FREE ENERGY PREDICTED BY IDOCK:   -5.48 KCAL/MOL
REMARK 922        TOTAL FREE ENERGY PREDICTED BY IDOCK:  -13.25 KCAL/MOL
REMARK 923 INTER-LIGAND FREE ENERGY PREDICTED BY IDOCK:  -10.89 KCAL/MOL
REMARK 924 INTRA-LIGAND FREE ENERGY PREDICTED BY IDOCK:   -2.36 KCAL/MOL
REMARK 927      BINDING AFFINITY PREDICTED BY RF-SCORE:    0.00 PKD
ROOT
HETATM    1  C   UNL     1     -12.282   8.126  71.571  1.00  0.00    -0.332 C  
HETATM    2  C   UNL     1     -10.971   7.359  71.438  1.00  0.00    -0.235 C  
HETATM    3  C   UNL     1     -10.215   7.348  72.760  1.00  0.00    -0.287 C  
ENDROOT
BRANCH   2   4
HETATM    4  O   UNL     1     -11.249   5.991  71.087  1.00  0.00    -0.293 OA 
BRANCH   4   5
HETATM    5  C   UNL     1     -10.205   5.311  70.531  1.00  0.00    -0.264 C  
HETATM    6  O   UNL     1      -9.694   4.298  70.993  1.00  0.00    -0.166 OA 
BRANCH   5   7
HETATM    7  C   UNL     1      -9.758   6.008  69.272  1.00  0.00    -0.174 C  
BRANCH   7   8
HETATM    8  C   UNL     1     -10.799   5.847  68.162  1.00  0.00    -0.323 C  
BRANCH   8   9
HETATM    9  C   UNL     1     -10.941   7.089  67.286  1.00  0.00    -0.372 C  
BRANCH   9  10
HETATM   10  C   UNL     1     -10.435   8.330  67.967  1.00  0.00    -0.239 C  
HETATM   11  C   UNL     1      -9.764   9.343  67.393  1.00  0.00    -0.205 C  
BRANCH  11  12
HETATM   12  C   UNL     1      -9.396   9.468  65.943  1.00  0.00    -0.285 C  
BRANCH  12  13
HETATM   13  C   UNL     1      -9.673  10.834  65.291  1.00  0.00    -0.308 C  
HETATM   14  C   UNL     1      -9.302  10.816  63.797  1.00  0.00    -0.266 C  
HETATM   15  C   UNL     1      -9.958  12.074  63.261  1.00  0.00    -0.339 C  
HETATM   16  O   UNL     1      -9.881   9.698  63.123  1.00  0.00    -0.418 OA 
HETATM   17  C   UNL     1     -11.317  12.081  63.953  1.00  0.00    -0.425 C  
HETATM   18  H   UNL     1      -9.652   9.687  62.201  1.00  0.00     0.000 HD 
HETATM   19  C   UNL     1     -11.155  11.288  65.278  1.00  0.00    -0.146 C  
HETATM   20  O   UNL     1     -12.286  11.426  63.138  1.00  0.00    -0.895 OA 
HETATM   21  H   UNL     1     -13.133  11.431  63.569  1.00  0.00     0.000 HD 
BRANCH  19  22
HETATM   22  C   UNL     1     -11.535  12.152  66.495  1.00  0.00    -0.430 C  
BRANCH  22  23
HETATM   23  C   UNL     1     -10.455  13.200  66.776  1.00  0.00    -0.262 C  
BRANCH  23  24
HETATM   24  C   UNL     1     -10.994  14.571  67.200  1.00  0.00    -0.304 C  
HETATM   25  O   UNL     1     -12.415  14.603  67.057  1.00  0.00    -0.488 OA 
HETATM   26  H   UNL     1     -12.749  15.452  67.320  1.00  0.00     0.000 HD 
BRANCH  24  27
HETATM   27  C   UNL     1     -10.680  14.865  68.675  1.00  0.00    -0.250 C  
BRANCH  27  28
HETATM   28  C   UNL     1     -11.932  15.164  69.501  1.00  0.00    -0.351 C  
BRANCH  28  29
HETATM   29  C   UNL     1     -12.338  13.997  70.361  1.00  0.00    -0.429 A  
HETATM   30  C   UNL     1     -11.963  12.696  70.001  1.00  0.00    -0.377 A  
HETATM   31  C   UNL     1     -12.331  11.611  70.795  1.00  0.00    -0.454 A  
HETATM   32  C   UNL     1     -13.082  11.818  71.951  1.00  0.00    -0.482 A  
HETATM   33  C   UNL     1     -13.468  13.109  72.311  1.00  0.00    -0.665 A  
HETATM   34  C   UNL     1     -13.099  14.196  71.517  1.00  0.00    -0.424 A  
ENDBRANCH  28  29
ENDBRANCH  27  28
ENDBRANCH  24  27
ENDBRANCH  23  24
ENDBRANCH  22  23
ENDBRANCH  19  22
ENDBRANCH  12  13
ENDBRANCH  11  12
ENDBRANCH   9  10
ENDBRANCH   8   9
ENDBRANCH   7   8
ENDBRANCH   5   7
ENDBRANCH   4   5
ENDBRANCH   2   4
TORSDOF 14
ENDMDL
MODEL       56
REMARK 921   NORMALIZED FREE ENERGY PREDICTED BY IDOCK:   -5.47 KCAL/MOL
REMARK 922        TOTAL FREE ENERGY PREDICTED BY IDOCK:  -13.24 KCAL/MOL
REMARK 923 INTER-LIGAND FREE ENERGY PREDICTED BY IDOCK:   -9.66 KCAL/MOL
REMARK 924 INTRA-LIGAND FREE ENERGY PREDICTED BY IDOCK:   -3.58 KCAL/MOL
REMARK 927      BINDING AFFINITY PREDICTED BY RF-SCORE:    0.00 PKD
ROOT
HETATM    1  C   UNL     1      -9.998   7.887  69.660  1.00  0.00    -0.191 C  
HETATM    2  C   UNL     1     -10.237   9.383  69.491  1.00  0.00    -0.209 C  
HETATM    3  C   UNL     1     -11.224   9.894  70.533  1.00  0.00    -0.399 C  
ENDROOT
BRANCH   2   4
HETATM    4  O   UNL     1      -8.998  10.091  69.685  1.00  0.00    -0.198 OA 
BRANCH   4   5
HETATM    5  C   UNL     1      -8.382  10.504  68.540  1.00  0.00    -0.129 C  
HETATM    6  O   UNL     1      -8.170   9.805  67.557  1.00  0.00    -0.113 OA 
BRANCH   5   7
HETATM    7  C   UNL     1      -7.979  11.951  68.674  1.00  0.00    -0.101 C  
BRANCH   7   8
HETATM    8  C   UNL     1      -7.856  12.612  67.300  1.00  0.00    -0.155 C  
BRANCH   8   9
HETATM    9  C   UNL     1      -7.909  14.136  67.359  1.00  0.00    -0.195 C  
BRANCH   9  10
HETATM   10  C   UNL     1      -7.328  14.679  68.634  1.00  0.00    -0.125 C  
HETATM   11  C   UNL     1      -7.136  15.973  68.941  1.00  0.00    -0.156 C  
BRANCH  11  12
HETATM   12  C   UNL     1      -7.483  17.159  68.087  1.00  0.00    -0.205 C  
BRANCH  12  13
HETATM   13  C   UNL     1      -8.874  17.775  68.319  1.00  0.00    -0.277 C  
HETATM   14  C   UNL     1      -8.787  19.309  68.416  1.00  0.00    -0.352 C  
HETATM   15  C   UNL     1     -10.233  19.747  68.281  1.00  0.00    -0.569 C  
HETATM   16  O   UNL     1      -8.056  19.866  67.323  1.00  0.00    -0.282 OA 
HETATM   17  C   UNL     1     -10.770  18.845  67.176  1.00  0.00    -0.432 C  
HETATM   18  H   UNL     1      -8.002  20.812  67.383  1.00  0.00     0.000 HD 
HETATM   19  C   UNL     1      -9.908  17.554  67.186  1.00  0.00    -0.297 C  
HETATM   20  O   UNL     1     -10.630  19.484  65.909  1.00  0.00    -0.504 OA 
HETATM   21  H   UNL     1     -10.965  18.922  65.221  1.00  0.00     0.000 HD 
BRANCH  19  22
HETATM   22  C   UNL     1     -10.780  16.302  67.397  1.00  0.00    -0.287 C  
BRANCH  22  23
HETATM   23  C   UNL     1     -10.972  16.020  68.890  1.00  0.00    -0.309 C  
BRANCH  23  24
HETATM   24  C   UNL     1     -10.982  14.531  69.259  1.00  0.00    -0.260 C  
HETATM   25  O   UNL     1     -11.275  14.375  70.648  1.00  0.00    -0.499 OA 
HETATM   26  H   UNL     1     -11.281  13.453  70.877  1.00  0.00     0.000 HD 
BRANCH  24  27
HETATM   27  C   UNL     1     -12.061  13.767  68.478  1.00  0.00    -0.327 C  
BRANCH  27  28
HETATM   28  C   UNL     1     -11.546  12.461  67.875  1.00  0.00    -0.415 C  
BRANCH  28  29
HETATM   29  C   UNL     1     -11.560  12.483  66.370  1.00  0.00    -0.449 A  
HETATM   30  C   UNL     1     -10.839  11.524  65.647  1.00  0.00    -0.310 A  
HETATM   31  C   UNL     1     -10.851  11.535  64.253  1.00  0.00    -0.421 A  
HETATM   32  C   UNL     1     -11.580  12.508  63.572  1.00  0.00    -0.584 A  
HETATM   33  C   UNL     1     -12.292  13.473  64.284  1.00  0.00    -0.392 A  
HETATM   34  C   UNL     1     -12.281  13.462  65.679  1.00  0.00    -0.510 A  
ENDBRANCH  28  29
ENDBRANCH  27  28
ENDBRANCH  24  27
ENDBRANCH  23  24
ENDBRANCH  22  23
ENDBRANCH  19  22
ENDBRANCH  12  13
ENDBRANCH  11  12
ENDBRANCH   9  10
ENDBRANCH   8   9
ENDBRANCH   7   8
ENDBRANCH   5   7
ENDBRANCH   4   5
ENDBRANCH   2   4
TORSDOF 14
ENDMDL
MODEL       57
REMARK 921   NORMALIZED FREE ENERGY PREDICTED BY IDOCK:   -5.46 KCAL/MOL
REMARK 922        TOTAL FREE ENERGY PREDICTED BY IDOCK:  -13.23 KCAL/MOL
REMARK 923 INTER-LIGAND FREE ENERGY PREDICTED BY IDOCK:  -10.55 KCAL/MOL
REMARK 924 INTRA-LIGAND FREE ENERGY PREDICTED BY IDOCK:   -2.68 KCAL/MOL
REMARK 927      BINDING AFFINITY PREDICTED BY RF-SCORE:    0.00 PKD
ROOT
HETATM    1  C   UNL     1      -9.773  16.375  65.979  1.00  0.00    -0.356 C  
HETATM    2  C   UNL     1     -10.377  15.899  67.295  1.00  0.00    -0.293 C  
HETATM    3  C   UNL     1     -10.594  17.069  68.246  1.00  0.00    -0.372 C  
ENDROOT
BRANCH   2   4
HETATM    4  O   UNL     1     -11.663  15.301  67.043  1.00  0.00    -0.193 OA 
BRANCH   4   5
HETATM    5  C   UNL     1     -11.632  13.979  66.705  1.00  0.00    -0.386 C  
HETATM    6  O   UNL     1     -10.900  13.137  67.210  1.00  0.00    -0.252 OA 
BRANCH   5   7
HETATM    7  C   UNL     1     -12.620  13.715  65.598  1.00  0.00    -0.531 C  
BRANCH   7   8
HETATM    8  C   UNL     1     -11.925  13.719  64.236  1.00  0.00    -0.481 C  
BRANCH   8   9
HETATM    9  C   UNL     1     -11.993  12.371  63.522  1.00  0.00    -0.627 C  
BRANCH   9  10
HETATM   10  C   UNL     1     -10.632  11.788  63.267  1.00  0.00    -0.427 C  
HETATM   11  C   UNL     1      -9.966  10.930  64.058  1.00  0.00    -0.403 C  
BRANCH  11  12
HETATM   12  C   UNL     1     -10.447  10.345  65.355  1.00  0.00    -0.187 C  
BRANCH  12  13
HETATM   13  C   UNL     1      -9.356   9.826  66.307  1.00  0.00    -0.230 C  
HETATM   14  C   UNL     1      -8.105  10.723  66.252  1.00  0.00    -0.159 C  
HETATM   15  C   UNL     1      -7.314  10.291  67.472  1.00  0.00    -0.089 C  
HETATM   16  O   UNL     1      -8.439  12.103  66.411  1.00  0.00    -0.376 OA 
HETATM   17  C   UNL     1      -8.386  10.135  68.546  1.00  0.00    -0.116 C  
HETATM   18  H   UNL     1      -7.667  12.656  66.377  1.00  0.00     0.000 HD 
HETATM   19  C   UNL     1      -9.719   9.825  67.814  1.00  0.00    -0.167 C  
HETATM   20  O   UNL     1      -8.530  11.352  69.275  1.00  0.00    -0.374 OA 
HETATM   21  H   UNL     1      -9.197  11.255  69.944  1.00  0.00     0.000 HD 
BRANCH  19  22
HETATM   22  C   UNL     1     -10.320   8.490  68.291  1.00  0.00    -0.246 C  
BRANCH  22  23
HETATM   23  C   UNL     1     -10.162   8.333  69.806  1.00  0.00    -0.204 C  
BRANCH  23  24
HETATM   24  C   UNL     1     -11.475   8.413  70.594  1.00  0.00    -0.219 C  
HETATM   25  O   UNL     1     -11.520   7.375  71.574  1.00  0.00    -0.252 OA 
HETATM   26  H   UNL     1     -12.333   7.425  72.062  1.00  0.00     0.000 HD 
BRANCH  24  27
HETATM   27  C   UNL     1     -11.598   9.749  71.342  1.00  0.00    -0.452 C  
BRANCH  27  28
HETATM   28  C   UNL     1     -12.922  10.464  71.068  1.00  0.00    -0.490 C  
BRANCH  28  29
HETATM   29  C   UNL     1     -12.811  11.954  71.242  1.00  0.00    -0.391 A  
HETATM   30  C   UNL     1     -12.034  12.709  70.353  1.00  0.00    -0.331 A  
HETATM   31  C   UNL     1     -11.931  14.090  70.505  1.00  0.00    -0.390 A  
HETATM   32  C   UNL     1     -12.599  14.727  71.548  1.00  0.00    -0.400 A  
HETATM   33  C   UNL     1     -13.366  13.983  72.443  1.00  0.00    -0.617 A  
HETATM   34  C   UNL     1     -13.471  12.600  72.292  1.00  0.00    -0.541 A  
ENDBRANCH  28  29
ENDBRANCH  27  28
ENDBRANCH  24  27
ENDBRANCH  23  24
ENDBRANCH  22  23
ENDBRANCH  19  22
ENDBRANCH  12  13
ENDBRANCH  11  12
ENDBRANCH   9  10
ENDBRANCH   8   9
ENDBRANCH   7   8
ENDBRANCH   5   7
ENDBRANCH   4   5
ENDBRANCH   2   4
TORSDOF 14
ENDMDL
MODEL       58
REMARK 921   NORMALIZED FREE ENERGY PREDICTED BY IDOCK:   -5.45 KCAL/MOL
REMARK 922        TOTAL FREE ENERGY PREDICTED BY IDOCK:  -13.20 KCAL/MOL
REMARK 923 INTER-LIGAND FREE ENERGY PREDICTED BY IDOCK:  -10.98 KCAL/MOL
REMARK 924 INTRA-LIGAND FREE ENERGY PREDICTED BY IDOCK:   -2.22 KCAL/MOL
REMARK 927      BINDING AFFINITY PREDICTED BY RF-SCORE:    0.00 PKD
ROOT
HETATM    1  C   UNL     1     -10.507  18.347  67.781  1.00  0.00    -0.433 C  
HETATM    2  C   UNL     1      -9.455  19.163  67.039  1.00  0.00    -0.316 C  
HETATM    3  C   UNL     1     -10.099  20.022  65.958  1.00  0.00    -0.559 C  
ENDROOT
BRANCH   2   4
HETATM    4  O   UNL     1      -8.797  20.050  67.962  1.00  0.00    -0.304 OA 
BRANCH   4   5
HETATM    5  C   UNL     1      -7.462  20.229  67.744  1.00  0.00    -0.284 C  
HETATM    6  O   UNL     1      -6.948  21.249  67.302  1.00  0.00    -0.508 OA 
BRANCH   5   7
HETATM    7  C   UNL     1      -6.715  18.971  68.106  1.00  0.00    -0.256 C  
BRANCH   7   8
HETATM    8  C   UNL     1      -6.103  18.324  66.863  1.00  0.00    -0.180 C  
BRANCH   8   9
HETATM    9  C   UNL     1      -6.723  16.970  66.524  1.00  0.00    -0.267 C  
BRANCH   9  10
HETATM   10  C   UNL     1      -7.369  16.322  67.716  1.00  0.00    -0.149 C  
HETATM   11  C   UNL     1      -8.289  15.343  67.696  1.00  0.00    -0.174 C  
BRANCH  11  12
HETATM   12  C   UNL     1      -8.854  14.666  66.481  1.00  0.00    -0.190 C  
BRANCH  12  13
HETATM   13  C   UNL     1     -10.323  14.984  66.152  1.00  0.00    -0.310 C  
HETATM   14  C   UNL     1     -10.600  14.809  64.647  1.00  0.00    -0.206 C  
HETATM   15  C   UNL     1     -12.115  14.807  64.572  1.00  0.00    -0.460 C  
HETATM   16  O   UNL     1     -10.135  13.546  64.170  1.00  0.00    -0.760 OA 
HETATM   17  C   UNL     1     -12.524  13.955  65.770  1.00  0.00    -0.495 C  
HETATM   18  H   UNL     1     -10.306  13.438  63.241  1.00  0.00     0.000 HD 
HETATM   19  C   UNL     1     -11.379  14.061  66.812  1.00  0.00    -0.346 C  
HETATM   20  O   UNL     1     -12.666  12.592  65.376  1.00  0.00    -0.624 OA 
HETATM   21  H   UNL     1     -12.921  12.062  66.122  1.00  0.00     0.000 HD 
BRANCH  19  22
HETATM   22  C   UNL     1     -11.898  14.600  68.158  1.00  0.00    -0.332 C  
BRANCH  22  23
HETATM   23  C   UNL     1     -11.499  13.669  69.306  1.00  0.00    -0.344 C  
BRANCH  23  24
HETATM   24  C   UNL     1     -12.273  13.900  70.610  1.00  0.00    -0.373 C  
HETATM   25  O   UNL     1     -13.013  15.118  70.530  1.00  0.00    -0.539 OA 
HETATM   26  H   UNL     1     -13.493  15.261  71.337  1.00  0.00     0.000 HD 
BRANCH  24  27
HETATM   27  C   UNL     1     -13.284  12.772  70.869  1.00  0.00     0.188 C  
BRANCH  27  28
HETATM   28  C   UNL     1     -12.912  11.906  72.073  1.00  0.00    -0.370 C  
BRANCH  28  29
HETATM   29  C   UNL     1     -12.650  10.475  71.686  1.00  0.00    -0.498 A  
HETATM   30  C   UNL     1     -11.538  10.155  70.895  1.00  0.00    -0.459 A  
HETATM   31  C   UNL     1     -11.286   8.831  70.538  1.00  0.00    -0.255 A  
HETATM   32  C   UNL     1     -12.145   7.820  70.963  1.00  0.00    -0.264 A  
HETATM   33  C   UNL     1     -13.258   8.131  71.742  1.00  0.00    -0.365 A  
HETATM   34  C   UNL     1     -13.512   9.455  72.102  1.00  0.00    -0.543 A  
ENDBRANCH  28  29
ENDBRANCH  27  28
ENDBRANCH  24  27
ENDBRANCH  23  24
ENDBRANCH  22  23
ENDBRANCH  19  22
ENDBRANCH  12  13
ENDBRANCH  11  12
ENDBRANCH   9  10
ENDBRANCH   8   9
ENDBRANCH   7   8
ENDBRANCH   5   7
ENDBRANCH   4   5
ENDBRANCH   2   4
TORSDOF 14
ENDMDL
MODEL       59
REMARK 921   NORMALIZED FREE ENERGY PREDICTED BY IDOCK:   -5.45 KCAL/MOL
REMARK 922        TOTAL FREE ENERGY PREDICTED BY IDOCK:  -13.20 KCAL/MOL
REMARK 923 INTER-LIGAND FREE ENERGY PREDICTED BY IDOCK:  -10.90 KCAL/MOL
REMARK 924 INTRA-LIGAND FREE ENERGY PREDICTED BY IDOCK:   -2.30 KCAL/MOL
REMARK 927      BINDING AFFINITY PREDICTED BY RF-SCORE:    0.00 PKD
ROOT
HETATM    1  C   UNL     1     -10.568  17.812  68.094  1.00  0.00    -0.350 C  
HETATM    2  C   UNL     1     -10.637  18.132  66.605  1.00  0.00    -0.278 C  
HETATM    3  C   UNL     1     -10.172  19.556  66.335  1.00  0.00    -0.576 C  
ENDROOT
BRANCH   2   4
HETATM    4  O   UNL     1      -9.761  17.246  65.883  1.00  0.00    -0.498 OA 
BRANCH   4   5
HETATM    5  C   UNL     1     -10.375  16.446  64.964  1.00  0.00     0.062 C  
HETATM    6  O   UNL     1     -11.130  16.833  64.081  1.00  0.00    -1.061 OA 
BRANCH   5   7
HETATM    7  C   UNL     1     -10.001  15.007  65.212  1.00  0.00    -0.325 C  
BRANCH   7   8
HETATM    8  C   UNL     1     -11.175  14.237  65.819  1.00  0.00    -0.317 C  
BRANCH   8   9
HETATM    9  C   UNL     1     -10.755  13.284  66.936  1.00  0.00    -0.274 C  
BRANCH   9  10
HETATM   10  C   UNL     1     -11.807  12.255  67.236  1.00  0.00    -0.330 C  
HETATM   11  C   UNL     1     -11.639  11.112  67.923  1.00  0.00    -0.328 C  
BRANCH  11  12
HETATM   12  C   UNL     1     -10.369  10.626  68.560  1.00  0.00    -0.202 C  
BRANCH  12  13
HETATM   13  C   UNL     1     -10.376   9.170  69.055  1.00  0.00    -0.229 C  
HETATM   14  C   UNL     1      -9.517   8.275  68.142  1.00  0.00    -0.137 C  
HETATM   15  C   UNL     1      -9.350   7.007  68.958  1.00  0.00    -0.136 C  
HETATM   16  O   UNL     1      -8.221   8.832  67.927  1.00  0.00    -0.110 OA 
HETATM   17  C   UNL     1      -9.099   7.529  70.369  1.00  0.00    -0.153 C  
HETATM   18  H   UNL     1      -7.691   8.281  67.364  1.00  0.00     0.000 HD 
HETATM   19  C   UNL     1      -9.763   8.930  70.458  1.00  0.00    -0.244 C  
HETATM   20  O   UNL     1      -7.698   7.666  70.599  1.00  0.00    -0.085 OA 
HETATM   21  H   UNL     1      -7.542   7.991  71.478  1.00  0.00     0.000 HD 
BRANCH  19  22
HETATM   22  C   UNL     1     -10.804   8.982  71.592  1.00  0.00    -0.437 C  
BRANCH  22  23
HETATM   23  C   UNL     1     -12.225   9.027  71.022  1.00  0.00    -0.275 C  
BRANCH  23  24
HETATM   24  C   UNL     1     -13.302   9.437  72.033  1.00  0.00    -0.450 C  
HETATM   25  O   UNL     1     -12.975   8.933  73.328  1.00  0.00    -0.633 OA 
HETATM   26  H   UNL     1     -13.642   9.187  73.955  1.00  0.00     0.000 HD 
BRANCH  24  27
HETATM   27  C   UNL     1     -13.404  10.965  72.154  1.00  0.00    -0.294 C  
BRANCH  27  28
HETATM   28  C   UNL     1     -12.759  11.699  70.978  1.00  0.00    -0.395 C  
BRANCH  28  29
HETATM   29  C   UNL     1     -12.717  13.188  71.189  1.00  0.00    -0.386 A  
HETATM   30  C   UNL     1     -13.455  13.771  72.228  1.00  0.00    -0.638 A  
HETATM   31  C   UNL     1     -13.416  15.149  72.433  1.00  0.00    -0.551 A  
HETATM   32  C   UNL     1     -12.645  15.955  71.599  1.00  0.00    -0.475 A  
HETATM   33  C   UNL     1     -11.915  15.385  70.557  1.00  0.00    -0.394 A  
HETATM   34  C   UNL     1     -11.952  14.005  70.351  1.00  0.00    -0.398 A  
ENDBRANCH  28  29
ENDBRANCH  27  28
ENDBRANCH  24  27
ENDBRANCH  23  24
ENDBRANCH  22  23
ENDBRANCH  19  22
ENDBRANCH  12  13
ENDBRANCH  11  12
ENDBRANCH   9  10
ENDBRANCH   8   9
ENDBRANCH   7   8
ENDBRANCH   5   7
ENDBRANCH   4   5
ENDBRANCH   2   4
TORSDOF 14
ENDMDL
MODEL       60
REMARK 921   NORMALIZED FREE ENERGY PREDICTED BY IDOCK:   -5.44 KCAL/MOL
REMARK 922        TOTAL FREE ENERGY PREDICTED BY IDOCK:  -13.18 KCAL/MOL
REMARK 923 INTER-LIGAND FREE ENERGY PREDICTED BY IDOCK:   -9.71 KCAL/MOL
REMARK 924 INTRA-LIGAND FREE ENERGY PREDICTED BY IDOCK:   -3.47 KCAL/MOL
REMARK 927      BINDING AFFINITY PREDICTED BY RF-SCORE:    0.00 PKD
ROOT
HETATM    1  C   UNL     1      -9.350   8.361  71.794  1.00  0.00    -0.293 C  
HETATM    2  C   UNL     1     -10.497   8.885  70.937  1.00  0.00    -0.236 C  
HETATM    3  C   UNL     1     -11.703   9.230  71.801  1.00  0.00    -0.456 C  
ENDROOT
BRANCH   2   4
HETATM    4  O   UNL     1     -10.084  10.090  70.268  1.00  0.00    -0.260 OA 
BRANCH   4   5
HETATM    5  C   UNL     1      -9.972   9.992  68.912  1.00  0.00    -0.192 C  
HETATM    6  O   UNL     1     -10.871   9.659  68.150  1.00  0.00    -0.237 OA 
BRANCH   5   7
HETATM    7  C   UNL     1      -8.565  10.332  68.492  1.00  0.00    -0.126 C  
BRANCH   7   8
HETATM    8  C   UNL     1      -8.567  11.184  67.222  1.00  0.00    -0.140 C  
BRANCH   8   9
HETATM    9  C   UNL     1      -7.504  12.280  67.231  1.00  0.00    -0.147 C  
BRANCH   9  10
HETATM   10  C   UNL     1      -7.184  12.755  68.621  1.00  0.00    -0.104 C  
HETATM   11  C   UNL     1      -7.106  14.031  69.035  1.00  0.00    -0.106 C  
BRANCH  11  12
HETATM   12  C   UNL     1      -7.347  15.260  68.206  1.00  0.00    -0.113 C  
BRANCH  12  13
HETATM   13  C   UNL     1      -8.806  15.739  68.117  1.00  0.00    -0.178 C  
HETATM   14  C   UNL     1      -8.936  17.196  68.600  1.00  0.00    -0.267 C  
HETATM   15  C   UNL     1     -10.315  17.600  68.115  1.00  0.00    -0.386 C  
HETATM   16  O   UNL     1      -7.981  18.048  67.968  1.00  0.00    -0.241 OA 
HETATM   17  C   UNL     1     -10.382  17.003  66.714  1.00  0.00    -0.302 C  
HETATM   18  H   UNL     1      -8.061  18.947  68.266  1.00  0.00     0.000 HD 
HETATM   19  C   UNL     1      -9.415  15.788  66.692  1.00  0.00    -0.279 C  
HETATM   20  O   UNL     1      -9.943  17.960  65.751  1.00  0.00    -0.551 OA 
HETATM   21  H   UNL     1      -9.985  17.587  64.878  1.00  0.00     0.000 HD 
BRANCH  19  22
HETATM   22  C   UNL     1     -10.155  14.494  66.306  1.00  0.00    -0.308 C  
BRANCH  22  23
HETATM   23  C   UNL     1     -11.627  14.563  66.722  1.00  0.00    -0.388 C  
BRANCH  23  24
HETATM   24  C   UNL     1     -12.101  13.385  67.581  1.00  0.00    -0.269 C  
HETATM   25  O   UNL     1     -11.951  12.162  66.858  1.00  0.00    -0.603 OA 
HETATM   26  H   UNL     1     -12.244  11.432  67.390  1.00  0.00     0.000 HD 
BRANCH  24  27
HETATM   27  C   UNL     1     -11.269  13.258  68.866  1.00  0.00    -0.322 C  
BRANCH  27  28
HETATM   28  C   UNL     1     -12.094  12.787  70.064  1.00  0.00    -0.355 C  
BRANCH  28  29
HETATM   29  C   UNL     1     -12.438  13.916  70.997  1.00  0.00    -0.452 A  
HETATM   30  C   UNL     1     -11.480  14.894  71.300  1.00  0.00    -0.322 A  
HETATM   31  C   UNL     1     -11.794  15.945  72.160  1.00  0.00    -0.615 A  
HETATM   32  C   UNL     1     -13.063  16.025  72.728  1.00  0.00    -0.515 A  
HETATM   33  C   UNL     1     -14.019  15.051  72.440  1.00  0.00    -0.593 A  
HETATM   34  C   UNL     1     -13.708  13.998  71.579  1.00  0.00    -0.356 A  
ENDBRANCH  28  29
ENDBRANCH  27  28
ENDBRANCH  24  27
ENDBRANCH  23  24
ENDBRANCH  22  23
ENDBRANCH  19  22
ENDBRANCH  12  13
ENDBRANCH  11  12
ENDBRANCH   9  10
ENDBRANCH   8   9
ENDBRANCH   7   8
ENDBRANCH   5   7
ENDBRANCH   4   5
ENDBRANCH   2   4
TORSDOF 14
ENDMDL
MODEL       61
REMARK 921   NORMALIZED FREE ENERGY PREDICTED BY IDOCK:   -5.41 KCAL/MOL
REMARK 922        TOTAL FREE ENERGY PREDICTED BY IDOCK:  -13.13 KCAL/MOL
REMARK 923 INTER-LIGAND FREE ENERGY PREDICTED BY IDOCK:   -9.01 KCAL/MOL
REMARK 924 INTRA-LIGAND FREE ENERGY PREDICTED BY IDOCK:   -4.12 KCAL/MOL
REMARK 927      BINDING AFFINITY PREDICTED BY RF-SCORE:    0.00 PKD
ROOT
HETATM    1  C   UNL     1      -8.442   7.771  71.339  1.00  0.00    -0.125 C  
HETATM    2  C   UNL     1      -9.312   8.187  70.158  1.00  0.00    -0.159 C  
HETATM    3  C   UNL     1     -10.790   8.057  70.504  1.00  0.00    -0.241 C  
ENDROOT
BRANCH   2   4
HETATM    4  O   UNL     1      -9.062   9.569  69.842  1.00  0.00    -0.182 OA 
BRANCH   4   5
HETATM    5  C   UNL     1      -8.536   9.795  68.603  1.00  0.00    -0.121 C  
HETATM    6  O   UNL     1      -8.614   9.028  67.651  1.00  0.00    -0.120 OA 
BRANCH   5   7
HETATM    7  C   UNL     1      -7.823  11.122  68.588  1.00  0.00    -0.138 C  
BRANCH   7   8
HETATM    8  C   UNL     1      -8.159  11.907  67.318  1.00  0.00    -0.171 C  
BRANCH   8   9
HETATM    9  C   UNL     1      -8.106  13.420  67.515  1.00  0.00    -0.183 C  
BRANCH   9  10
HETATM   10  C   UNL     1      -8.304  13.817  68.951  1.00  0.00     0.111 C  
HETATM   11  C   UNL     1      -8.346  15.069  69.438  1.00  0.00    -0.141 C  
BRANCH  11  12
HETATM   12  C   UNL     1      -8.230  16.343  68.651  1.00  0.00    -0.223 C  
BRANCH  12  13
HETATM   13  C   UNL     1      -9.506  16.808  67.927  1.00  0.00    -0.230 C  
HETATM   14  C   UNL     1      -9.997  18.155  68.490  1.00  0.00    -0.395 C  
HETATM   15  C   UNL     1     -11.005  18.616  67.454  1.00  0.00    -0.239 C  
HETATM   16  O   UNL     1      -8.946  19.120  68.539  1.00  0.00    -0.340 OA 
HETATM   17  C   UNL     1     -10.328  18.272  66.131  1.00  0.00    -0.398 C  
HETATM   18  H   UNL     1      -9.249  19.951  68.886  1.00  0.00     0.000 HD 
HETATM   19  C   UNL     1      -9.356  17.095  66.412  1.00  0.00    -0.286 C  
HETATM   20  O   UNL     1      -9.579  19.389  65.658  1.00  0.00    -0.328 OA 
HETATM   21  H   UNL     1      -9.158  19.174  64.834  1.00  0.00     0.000 HD 
BRANCH  19  22
HETATM   22  C   UNL     1      -9.685  15.877  65.529  1.00  0.00    -0.215 C  
BRANCH  22  23
HETATM   23  C   UNL     1     -11.078  16.014  64.910  1.00  0.00    -0.381 C  
BRANCH  23  24
HETATM   24  C   UNL     1     -11.892  14.715  64.881  1.00  0.00    -0.403 C  
HETATM   25  O   UNL     1     -12.369  14.466  63.558  1.00  0.00    -1.091 OA 
HETATM   26  H   UNL     1     -12.873  13.661  63.540  1.00  0.00     0.000 HD 
BRANCH  24  27
HETATM   27  C   UNL     1     -11.035  13.508  65.289  1.00  0.00    -0.303 C  
BRANCH  27  28
HETATM   28  C   UNL     1     -11.839  12.421  66.003  1.00  0.00    -0.459 C  
BRANCH  28  29
HETATM   29  C   UNL     1     -11.862  12.616  67.495  1.00  0.00    -0.396 A  
HETATM   30  C   UNL     1     -11.787  11.507  68.348  1.00  0.00    -0.353 A  
HETATM   31  C   UNL     1     -11.803  11.680  69.732  1.00  0.00    -0.428 A  
HETATM   32  C   UNL     1     -11.899  12.961  70.271  1.00  0.00    -0.291 A  
HETATM   33  C   UNL     1     -11.984  14.069  69.429  1.00  0.00    -0.390 A  
HETATM   34  C   UNL     1     -11.968  13.897  68.044  1.00  0.00    -0.390 A  
ENDBRANCH  28  29
ENDBRANCH  27  28
ENDBRANCH  24  27
ENDBRANCH  23  24
ENDBRANCH  22  23
ENDBRANCH  19  22
ENDBRANCH  12  13
ENDBRANCH  11  12
ENDBRANCH   9  10
ENDBRANCH   8   9
ENDBRANCH   7   8
ENDBRANCH   5   7
ENDBRANCH   4   5
ENDBRANCH   2   4
TORSDOF 14
ENDMDL
MODEL       62
REMARK 921   NORMALIZED FREE ENERGY PREDICTED BY IDOCK:   -5.41 KCAL/MOL
REMARK 922        TOTAL FREE ENERGY PREDICTED BY IDOCK:  -13.12 KCAL/MOL
REMARK 923 INTER-LIGAND FREE ENERGY PREDICTED BY IDOCK:   -9.84 KCAL/MOL
REMARK 924 INTRA-LIGAND FREE ENERGY PREDICTED BY IDOCK:   -3.29 KCAL/MOL
REMARK 927      BINDING AFFINITY PREDICTED BY RF-SCORE:    0.00 PKD
ROOT
HETATM    1  C   UNL     1      -8.999  16.497  68.788  1.00  0.00    -0.250 C  
HETATM    2  C   UNL     1     -10.395  17.095  68.919  1.00  0.00    -0.348 C  
HETATM    3  C   UNL     1     -10.631  18.156  67.851  1.00  0.00    -0.389 C  
ENDROOT
BRANCH   2   4
HETATM    4  O   UNL     1     -11.379  16.062  68.727  1.00  0.00    -0.344 OA 
BRANCH   4   5
HETATM    5  C   UNL     1     -11.830  15.471  69.871  1.00  0.00    -0.362 C  
HETATM    6  O   UNL     1     -11.710  15.931  71.000  1.00  0.00    -0.369 OA 
BRANCH   5   7
HETATM    7  C   UNL     1     -12.478  14.151  69.540  1.00  0.00    -0.165 C  
BRANCH   7   8
HETATM    8  C   UNL     1     -12.265  13.141  70.669  1.00  0.00    -0.402 C  
BRANCH   8   9
HETATM    9  C   UNL     1     -11.845  11.761  70.169  1.00  0.00    -0.408 C  
BRANCH   9  10
HETATM   10  C   UNL     1     -12.586  10.652  70.860  1.00  0.00    -0.503 C  
HETATM   11  C   UNL     1     -12.047   9.566  71.440  1.00  0.00    -0.459 C  
BRANCH  11  12
HETATM   12  C   UNL     1     -10.586   9.238  71.546  1.00  0.00    -0.405 C  
BRANCH  12  13
HETATM   13  C   UNL     1     -10.226   7.742  71.512  1.00  0.00    -0.216 C  
HETATM   14  C   UNL     1      -9.718   7.267  72.886  1.00  0.00    -0.169 C  
HETATM   15  C   UNL     1      -9.760   5.755  72.767  1.00  0.00    -0.169 C  
HETATM   16  O   UNL     1     -10.606   7.649  73.937  1.00  0.00    -0.359 OA 
HETATM   17  C   UNL     1     -11.079   5.498  72.045  1.00  0.00    -0.184 C  
HETATM   18  H   UNL     1     -10.292   7.356  74.785  1.00  0.00     0.000 HD 
HETATM   19  C   UNL     1     -11.398   6.772  71.217  1.00  0.00    -0.333 C  
HETATM   20  O   UNL     1     -12.124   5.288  72.993  1.00  0.00    -0.528 OA 
HETATM   21  H   UNL     1     -12.945   5.127  72.542  1.00  0.00     0.000 HD 
BRANCH  19  22
HETATM   22  C   UNL     1     -11.549   6.441  69.721  1.00  0.00    -0.397 C  
BRANCH  22  23
HETATM   23  C   UNL     1     -10.270   6.792  68.955  1.00  0.00    -0.191 C  
BRANCH  23  24
HETATM   24  C   UNL     1     -10.438   6.855  67.432  1.00  0.00    -0.269 C  
HETATM   25  O   UNL     1     -11.718   6.345  67.060  1.00  0.00    -0.588 OA 
HETATM   26  H   UNL     1     -11.822   6.384  66.117  1.00  0.00     0.000 HD 
BRANCH  24  27
HETATM   27  C   UNL     1     -10.359   8.301  66.920  1.00  0.00    -0.391 C  
BRANCH  27  28
HETATM   28  C   UNL     1      -9.711   9.254  67.925  1.00  0.00    -0.180 C  
BRANCH  28  29
HETATM   29  C   UNL     1      -9.882  10.697  67.533  1.00  0.00    -0.194 A  
HETATM   30  C   UNL     1     -10.889  11.065  66.631  1.00  0.00    -0.284 A  
HETATM   31  C   UNL     1     -11.056  12.400  66.268  1.00  0.00    -0.344 A  
HETATM   32  C   UNL     1     -10.215  13.376  66.798  1.00  0.00    -0.259 A  
HETATM   33  C   UNL     1      -9.204  13.017  67.689  1.00  0.00    -0.200 A  
HETATM   34  C   UNL     1      -9.036  11.681  68.054  1.00  0.00    -0.177 A  
ENDBRANCH  28  29
ENDBRANCH  27  28
ENDBRANCH  24  27
ENDBRANCH  23  24
ENDBRANCH  22  23
ENDBRANCH  19  22
ENDBRANCH  12  13
ENDBRANCH  11  12
ENDBRANCH   9  10
ENDBRANCH   8   9
ENDBRANCH   7   8
ENDBRANCH   5   7
ENDBRANCH   4   5
ENDBRANCH   2   4
TORSDOF 14
ENDMDL
MODEL       63
REMARK 921   NORMALIZED FREE ENERGY PREDICTED BY IDOCK:   -5.40 KCAL/MOL
REMARK 922        TOTAL FREE ENERGY PREDICTED BY IDOCK:  -13.11 KCAL/MOL
REMARK 923 INTER-LIGAND FREE ENERGY PREDICTED BY IDOCK:   -9.58 KCAL/MOL
REMARK 924 INTRA-LIGAND FREE ENERGY PREDICTED BY IDOCK:   -3.52 KCAL/MOL
REMARK 927      BINDING AFFINITY PREDICTED BY RF-SCORE:    0.00 PKD
ROOT
HETATM    1  C   UNL     1      -8.852   7.790  66.100  1.00  0.00    -0.192 C  
HETATM    2  C   UNL     1      -8.279   8.754  67.133  1.00  0.00    -0.104 C  
HETATM    3  C   UNL     1      -7.090   8.131  67.854  1.00  0.00    -0.083 C  
ENDROOT
BRANCH   2   4
HETATM    4  O   UNL     1      -7.809   9.943  66.471  1.00  0.00    -0.108 OA 
BRANCH   4   5
HETATM    5  C   UNL     1      -8.639  11.022  66.560  1.00  0.00    -0.165 C  
HETATM    6  O   UNL     1      -9.241  11.532  65.623  1.00  0.00    -0.218 OA 
BRANCH   5   7
HETATM    7  C   UNL     1      -8.685  11.510  67.986  1.00  0.00    -0.151 C  
BRANCH   7   8
HETATM    8  C   UNL     1      -7.357  12.156  68.384  1.00  0.00    -0.108 C  
BRANCH   8   9
HETATM    9  C   UNL     1      -6.917  13.263  67.430  1.00  0.00    -0.105 C  
BRANCH   9  10
HETATM   10  C   UNL     1      -7.203  14.634  67.975  1.00  0.00    -0.147 C  
HETATM   11  C   UNL     1      -8.028  15.553  67.444  1.00  0.00    -0.211 C  
BRANCH  11  12
HETATM   12  C   UNL     1      -8.864  15.400  66.206  1.00  0.00    -0.302 C  
BRANCH  12  13
HETATM   13  C   UNL     1     -10.374  15.211  66.430  1.00  0.00    -0.292 C  
HETATM   14  C   UNL     1     -11.085  14.861  65.110  1.00  0.00    -0.393 C  
HETATM   15  C   UNL     1     -12.445  14.371  65.569  1.00  0.00    -0.356 C  
HETATM   16  O   UNL     1     -10.437  13.785  64.431  1.00  0.00    -0.539 OA 
HETATM   17  C   UNL     1     -12.115  13.512  66.785  1.00  0.00    -0.375 C  
HETATM   18  H   UNL     1     -10.876  13.569  63.616  1.00  0.00     0.000 HD 
HETATM   19  C   UNL     1     -10.778  14.043  67.365  1.00  0.00    -0.285 C  
HETATM   20  O   UNL     1     -11.941  12.152  66.392  1.00  0.00    -0.611 OA 
HETATM   21  H   UNL     1     -11.735  11.617  67.150  1.00  0.00     0.000 HD 
BRANCH  19  22
HETATM   22  C   UNL     1     -10.939  14.474  68.835  1.00  0.00    -0.268 C  
BRANCH  22  23
HETATM   23  C   UNL     1     -12.409  14.755  69.161  1.00  0.00    -0.114 C  
BRANCH  23  24
HETATM   24  C   UNL     1     -12.674  15.141  70.621  1.00  0.00    -0.398 C  
HETATM   25  O   UNL     1     -14.061  15.425  70.807  1.00  0.00    -0.836 OA 
HETATM   26  H   UNL     1     -14.226  15.664  71.711  1.00  0.00     0.000 HD 
BRANCH  24  27
HETATM   27  C   UNL     1     -12.313  13.995  71.578  1.00  0.00    -0.371 C  
BRANCH  27  28
HETATM   28  C   UNL     1     -13.362  12.884  71.597  1.00  0.00    -0.358 C  
BRANCH  28  29
HETATM   29  C   UNL     1     -12.761  11.528  71.343  1.00  0.00    -0.469 A  
HETATM   30  C   UNL     1     -13.153  10.429  72.120  1.00  0.00    -0.427 A  
HETATM   31  C   UNL     1     -12.603   9.170  71.887  1.00  0.00    -0.463 A  
HETATM   32  C   UNL     1     -11.655   9.000  70.880  1.00  0.00    -0.344 A  
HETATM   33  C   UNL     1     -11.252  10.089  70.109  1.00  0.00    -0.367 A  
HETATM   34  C   UNL     1     -11.802  11.351  70.341  1.00  0.00    -0.428 A  
ENDBRANCH  28  29
ENDBRANCH  27  28
ENDBRANCH  24  27
ENDBRANCH  23  24
ENDBRANCH  22  23
ENDBRANCH  19  22
ENDBRANCH  12  13
ENDBRANCH  11  12
ENDBRANCH   9  10
ENDBRANCH   8   9
ENDBRANCH   7   8
ENDBRANCH   5   7
ENDBRANCH   4   5
ENDBRANCH   2   4
TORSDOF 14
ENDMDL
MODEL       64
REMARK 921   NORMALIZED FREE ENERGY PREDICTED BY IDOCK:   -5.39 KCAL/MOL
REMARK 922        TOTAL FREE ENERGY PREDICTED BY IDOCK:  -13.09 KCAL/MOL
REMARK 923 INTER-LIGAND FREE ENERGY PREDICTED BY IDOCK:  -10.91 KCAL/MOL
REMARK 924 INTRA-LIGAND FREE ENERGY PREDICTED BY IDOCK:   -2.18 KCAL/MOL
REMARK 927      BINDING AFFINITY PREDICTED BY RF-SCORE:    0.00 PKD
ROOT
HETATM    1  C   UNL     1      -6.962   4.722  65.147  1.00  0.00    -0.062 C  
HETATM    2  C   UNL     1      -7.950   4.575  66.299  1.00  0.00    -0.103 C  
HETATM    3  C   UNL     1      -7.218   4.504  67.633  1.00  0.00    -0.065 C  
ENDROOT
BRANCH   2   4
HETATM    4  O   UNL     1      -8.813   5.727  66.339  1.00  0.00    -0.123 OA 
BRANCH   4   5
HETATM    5  C   UNL     1     -10.136   5.453  66.534  1.00  0.00    -0.216 C  
HETATM    6  O   UNL     1     -10.797   4.655  65.881  1.00  0.00    -0.274 OA 
BRANCH   5   7
HETATM    7  C   UNL     1     -10.669   6.299  67.661  1.00  0.00    -0.391 C  
BRANCH   7   8
HETATM    8  C   UNL     1     -10.448   5.610  69.010  1.00  0.00    -0.321 C  
BRANCH   8   9
HETATM    9  C   UNL     1      -9.271   6.187  69.792  1.00  0.00    -0.151 C  
BRANCH   9  10
HETATM   10  C   UNL     1      -8.931   7.587  69.366  1.00  0.00    -0.139 C  
HETATM   11  C   UNL     1      -9.344   8.726  69.948  1.00  0.00    -0.165 C  
BRANCH  11  12
HETATM   12  C   UNL     1     -10.215   8.847  71.166  1.00  0.00    -0.336 C  
BRANCH  12  13
HETATM   13  C   UNL     1     -11.721   8.624  70.945  1.00  0.00    -0.287 C  
HETATM   14  C   UNL     1     -12.184   7.311  71.602  1.00  0.00    -0.343 C  
HETATM   15  C   UNL     1     -13.696   7.437  71.598  1.00  0.00    -0.468 C  
HETATM   16  O   UNL     1     -11.755   7.220  72.960  1.00  0.00    -0.564 OA 
HETATM   17  C   UNL     1     -13.927   8.890  71.999  1.00  0.00    -0.437 C  
HETATM   18  H   UNL     1     -12.041   6.409  73.365  1.00  0.00     0.000 HD 
HETATM   19  C   UNL     1     -12.660   9.682  71.578  1.00  0.00    -0.483 C  
HETATM   20  O   UNL     1     -14.086   8.990  73.413  1.00  0.00    -1.231 OA 
HETATM   21  H   UNL     1     -14.230   9.895  73.662  1.00  0.00     0.000 HD 
BRANCH  19  22
HETATM   22  C   UNL     1     -13.015  10.831  70.615  1.00  0.00    -0.313 C  
BRANCH  22  23
HETATM   23  C   UNL     1     -12.730  12.189  71.261  1.00  0.00    -0.363 C  
BRANCH  23  24
HETATM   24  C   UNL     1     -12.343  13.295  70.273  1.00  0.00    -0.264 C  
HETATM   25  O   UNL     1     -11.332  14.127  70.842  1.00  0.00    -0.506 OA 
HETATM   26  H   UNL     1     -11.091  14.812  70.229  1.00  0.00     0.000 HD 
BRANCH  24  27
HETATM   27  C   UNL     1     -11.769  12.709  68.973  1.00  0.00    -0.367 C  
BRANCH  27  28
HETATM   28  C   UNL     1     -12.097  13.556  67.744  1.00  0.00    -0.316 C  
BRANCH  28  29
HETATM   29  C   UNL     1     -11.804  12.832  66.458  1.00  0.00    -0.471 A  
HETATM   30  C   UNL     1     -10.823  11.832  66.423  1.00  0.00    -0.325 A  
HETATM   31  C   UNL     1     -10.550  11.153  65.237  1.00  0.00    -0.303 A  
HETATM   32  C   UNL     1     -11.251  11.471  64.076  1.00  0.00    -0.414 A  
HETATM   33  C   UNL     1     -12.223  12.471  64.099  1.00  0.00    -0.552 A  
HETATM   34  C   UNL     1     -12.497  13.152  65.286  1.00  0.00    -0.550 A  
ENDBRANCH  28  29
ENDBRANCH  27  28
ENDBRANCH  24  27
ENDBRANCH  23  24
ENDBRANCH  22  23
ENDBRANCH  19  22
ENDBRANCH  12  13
ENDBRANCH  11  12
ENDBRANCH   9  10
ENDBRANCH   8   9
ENDBRANCH   7   8
ENDBRANCH   5   7
ENDBRANCH   4   5
ENDBRANCH   2   4
TORSDOF 14
ENDMDL
MODEL       65
REMARK 921   NORMALIZED FREE ENERGY PREDICTED BY IDOCK:   -5.37 KCAL/MOL
REMARK 922        TOTAL FREE ENERGY PREDICTED BY IDOCK:  -13.06 KCAL/MOL
REMARK 923 INTER-LIGAND FREE ENERGY PREDICTED BY IDOCK:  -10.86 KCAL/MOL
REMARK 924 INTRA-LIGAND FREE ENERGY PREDICTED BY IDOCK:   -2.20 KCAL/MOL
REMARK 927      BINDING AFFINITY PREDICTED BY RF-SCORE:    0.00 PKD
ROOT
HETATM    1  C   UNL     1      -6.919  17.630  68.450  1.00  0.00    -0.222 C  
HETATM    2  C   UNL     1      -6.335  18.596  67.426  1.00  0.00    -0.190 C  
HETATM    3  C   UNL     1      -5.404  17.867  66.465  1.00  0.00    -0.198 C  
ENDROOT
BRANCH   2   4
HETATM    4  O   UNL     1      -7.400  19.169  66.646  1.00  0.00    -0.211 OA 
BRANCH   4   5
HETATM    5  C   UNL     1      -7.833  20.393  67.067  1.00  0.00    -0.319 C  
HETATM    6  O   UNL     1      -7.116  21.360  67.289  1.00  0.00    -0.565 OA 
BRANCH   5   7
HETATM    7  C   UNL     1      -9.330  20.369  67.241  1.00  0.00    -0.547 C  
BRANCH   7   8
HETATM    8  C   UNL     1     -10.021  19.910  65.956  1.00  0.00    -0.560 C  
BRANCH   8   9
HETATM    9  C   UNL     1     -10.598  18.500  66.055  1.00  0.00    -0.368 C  
BRANCH   9  10
HETATM   10  C   UNL     1     -10.761  18.047  67.478  1.00  0.00    -0.352 C  
HETATM   11  C   UNL     1     -10.588  16.800  67.948  1.00  0.00    -0.350 C  
BRANCH  11  12
HETATM   12  C   UNL     1     -10.170  15.593  67.159  1.00  0.00    -0.270 C  
BRANCH  12  13
HETATM   13  C   UNL     1     -11.292  14.609  66.783  1.00  0.00    -0.360 C  
HETATM   14  C   UNL     1     -11.688  14.767  65.303  1.00  0.00    -0.311 C  
HETATM   15  C   UNL     1     -12.510  13.521  65.031  1.00  0.00    -0.462 C  
HETATM   16  O   UNL     1     -10.547  14.735  64.446  1.00  0.00    -0.562 OA 
HETATM   17  C   UNL     1     -11.729  12.423  65.745  1.00  0.00    -0.414 C  
HETATM   18  H   UNL     1     -10.791  14.832  63.533  1.00  0.00     0.000 HD 
HETATM   19  C   UNL     1     -10.936  13.105  66.892  1.00  0.00    -0.295 C  
HETATM   20  O   UNL     1     -10.807  11.812  64.845  1.00  0.00    -0.283 OA 
HETATM   21  H   UNL     1     -10.321  11.128  65.290  1.00  0.00     0.000 HD 
BRANCH  19  22
HETATM   22  C   UNL     1     -11.297  12.495  68.259  1.00  0.00    -0.331 C  
BRANCH  22  23
HETATM   23  C   UNL     1     -11.908  11.101  68.088  1.00  0.00    -0.238 C  
BRANCH  23  24
HETATM   24  C   UNL     1     -10.930   9.944  68.323  1.00  0.00    -0.196 C  
HETATM   25  O   UNL     1     -10.196   9.674  67.129  1.00  0.00    -0.212 OA 
HETATM   26  H   UNL     1      -9.590   8.958  67.274  1.00  0.00     0.000 HD 
BRANCH  24  27
HETATM   27  C   UNL     1      -9.907  10.289  69.416  1.00  0.00    -0.247 C  
BRANCH  27  28
HETATM   28  C   UNL     1      -9.963   9.332  70.607  1.00  0.00    -0.336 C  
BRANCH  28  29
HETATM   29  C   UNL     1     -11.374   9.069  71.061  1.00  0.00    -0.362 A  
HETATM   30  C   UNL     1     -11.896   7.770  71.012  1.00  0.00    -0.290 A  
HETATM   31  C   UNL     1     -13.200   7.519  71.435  1.00  0.00    -0.368 A  
HETATM   32  C   UNL     1     -13.993   8.563  71.905  1.00  0.00    -0.498 A  
HETATM   33  C   UNL     1     -13.485   9.861  71.948  1.00  0.00    -0.467 A  
HETATM   34  C   UNL     1     -12.179  10.114  71.525  1.00  0.00    -0.473 A  
ENDBRANCH  28  29
ENDBRANCH  27  28
ENDBRANCH  24  27
ENDBRANCH  23  24
ENDBRANCH  22  23
ENDBRANCH  19  22
ENDBRANCH  12  13
ENDBRANCH  11  12
ENDBRANCH   9  10
ENDBRANCH   8   9
ENDBRANCH   7   8
ENDBRANCH   5   7
ENDBRANCH   4   5
ENDBRANCH   2   4
TORSDOF 14
ENDMDL
MODEL       66
REMARK 921   NORMALIZED FREE ENERGY PREDICTED BY IDOCK:   -5.36 KCAL/MOL
REMARK 922        TOTAL FREE ENERGY PREDICTED BY IDOCK:  -13.04 KCAL/MOL
REMARK 923 INTER-LIGAND FREE ENERGY PREDICTED BY IDOCK:   -9.51 KCAL/MOL
REMARK 924 INTRA-LIGAND FREE ENERGY PREDICTED BY IDOCK:   -3.53 KCAL/MOL
REMARK 927      BINDING AFFINITY PREDICTED BY RF-SCORE:    0.00 PKD
ROOT
HETATM    1  C   UNL     1     -12.097  12.208  63.390  1.00  0.00    -0.608 C  
HETATM    2  C   UNL     1     -11.916  13.499  64.182  1.00  0.00    -0.448 C  
HETATM    3  C   UNL     1     -12.874  13.546  65.365  1.00  0.00    -0.420 C  
ENDROOT
BRANCH   2   4
HETATM    4  O   UNL     1     -10.577  13.555  64.707  1.00  0.00    -0.370 OA 
BRANCH   4   5
HETATM    5  C   UNL     1     -10.218  14.754  65.251  1.00  0.00    -0.384 C  
HETATM    6  O   UNL     1     -10.513  15.853  64.799  1.00  0.00    -0.538 OA 
BRANCH   5   7
HETATM    7  C   UNL     1      -9.381  14.522  66.483  1.00  0.00    -0.307 C  
BRANCH   7   8
HETATM    8  C   UNL     1     -10.259  14.460  67.734  1.00  0.00    -0.230 C  
BRANCH   8   9
HETATM    9  C   UNL     1     -10.147  13.134  68.481  1.00  0.00    -0.203 C  
BRANCH   9  10
HETATM   10  C   UNL     1     -11.185  12.140  68.042  1.00  0.00    -0.319 C  
HETATM   11  C   UNL     1     -11.797  11.225  68.813  1.00  0.00    -0.396 C  
BRANCH  11  12
HETATM   12  C   UNL     1     -11.595  11.013  70.286  1.00  0.00    -0.414 C  
BRANCH  12  13
HETATM   13  C   UNL     1     -10.911   9.696  70.691  1.00  0.00    -0.386 C  
HETATM   14  C   UNL     1     -11.818   8.869  71.622  1.00  0.00    -0.345 C  
HETATM   15  C   UNL     1     -11.162   7.502  71.620  1.00  0.00    -0.275 C  
HETATM   16  O   UNL     1     -13.133   8.725  71.084  1.00  0.00    -0.501 OA 
HETATM   17  C   UNL     1     -10.780   7.299  70.157  1.00  0.00    -0.244 C  
HETATM   18  H   UNL     1     -13.693   8.215  71.659  1.00  0.00     0.000 HD 
HETATM   19  C   UNL     1     -10.605   8.710  69.535  1.00  0.00    -0.218 C  
HETATM   20  O   UNL     1     -11.825   6.616  69.468  1.00  0.00    -0.658 OA 
HETATM   21  H   UNL     1     -11.588   6.490  68.557  1.00  0.00     0.000 HD 
BRANCH  19  22
HETATM   22  C   UNL     1      -9.193   8.888  68.945  1.00  0.00    -0.140 C  
BRANCH  22  23
HETATM   23  C   UNL     1      -8.277   9.608  69.939  1.00  0.00    -0.184 C  
BRANCH  23  24
HETATM   24  C   UNL     1      -7.543  10.824  69.360  1.00  0.00    -0.112 C  
HETATM   25  O   UNL     1      -6.680  11.389  70.348  1.00  0.00    -0.497 OA 
HETATM   26  H   UNL     1      -6.225  12.142  69.989  1.00  0.00     0.000 HD 
BRANCH  24  27
HETATM   27  C   UNL     1      -6.667  10.432  68.161  1.00  0.00    -0.061 C  
BRANCH  27  28
HETATM   28  C   UNL     1      -6.851  11.361  66.961  1.00  0.00    -0.137 C  
BRANCH  28  29
HETATM   29  C   UNL     1      -7.641  10.713  65.856  1.00  0.00    -0.138 A  
HETATM   30  C   UNL     1      -6.985  10.217  64.722  1.00  0.00    -0.126 A  
HETATM   31  C   UNL     1      -7.710   9.612  63.696  1.00  0.00    -0.129 A  
HETATM   32  C   UNL     1      -9.096   9.503  63.795  1.00  0.00    -0.153 A  
HETATM   33  C   UNL     1      -9.758  10.003  64.915  1.00  0.00    -0.377 A  
HETATM   34  C   UNL     1      -9.033  10.608  65.943  1.00  0.00    -0.192 A  
ENDBRANCH  28  29
ENDBRANCH  27  28
ENDBRANCH  24  27
ENDBRANCH  23  24
ENDBRANCH  22  23
ENDBRANCH  19  22
ENDBRANCH  12  13
ENDBRANCH  11  12
ENDBRANCH   9  10
ENDBRANCH   8   9
ENDBRANCH   7   8
ENDBRANCH   5   7
ENDBRANCH   4   5
ENDBRANCH   2   4
TORSDOF 14
ENDMDL
MODEL       67
REMARK 921   NORMALIZED FREE ENERGY PREDICTED BY IDOCK:   -5.35 KCAL/MOL
REMARK 922        TOTAL FREE ENERGY PREDICTED BY IDOCK:  -13.02 KCAL/MOL
REMARK 923 INTER-LIGAND FREE ENERGY PREDICTED BY IDOCK:  -10.39 KCAL/MOL
REMARK 924 INTRA-LIGAND FREE ENERGY PREDICTED BY IDOCK:   -2.63 KCAL/MOL
REMARK 927      BINDING AFFINITY PREDICTED BY RF-SCORE:    0.00 PKD
ROOT
HETATM    1  C   UNL     1      -6.253  12.031  69.351  1.00  0.00    -0.109 C  
HETATM    2  C   UNL     1      -7.455  12.387  68.484  1.00  0.00    -0.112 C  
HETATM    3  C   UNL     1      -7.813  13.860  68.635  1.00  0.00    -0.120 C  
ENDROOT
BRANCH   2   4
HETATM    4  O   UNL     1      -7.132  12.160  67.100  1.00  0.00    -0.146 OA 
BRANCH   4   5
HETATM    5  C   UNL     1      -7.746  11.082  66.530  1.00  0.00    -0.154 C  
HETATM    6  O   UNL     1      -7.192  10.035  66.218  1.00  0.00    -0.098 OA 
BRANCH   5   7
HETATM    7  C   UNL     1      -9.208  11.383  66.321  1.00  0.00    -0.220 C  
BRANCH   7   8
HETATM    8  C   UNL     1      -9.601  11.180  64.857  1.00  0.00    -0.279 C  
BRANCH   8   9
HETATM    9  C   UNL     1     -11.111  11.107  64.645  1.00  0.00    -0.154 C  
BRANCH   9  10
HETATM   10  C   UNL     1     -11.586  12.055  63.579  1.00  0.00    -0.553 C  
HETATM   11  C   UNL     1     -12.152  13.258  63.770  1.00  0.00    -0.546 C  
BRANCH  11  12
HETATM   12  C   UNL     1     -12.411  13.930  65.088  1.00  0.00    -0.479 C  
BRANCH  12  13
HETATM   13  C   UNL     1     -11.167  14.387  65.869  1.00  0.00    -0.324 C  
HETATM   14  C   UNL     1     -10.230  15.216  64.973  1.00  0.00    -0.297 C  
HETATM   15  C   UNL     1      -9.282  15.862  65.966  1.00  0.00    -0.372 C  
HETATM   16  O   UNL     1     -10.933  16.258  64.296  1.00  0.00    -1.086 OA 
HETATM   17  C   UNL     1     -10.204  16.282  67.106  1.00  0.00    -0.276 C  
HETATM   18  H   UNL     1     -10.354  16.770  63.742  1.00  0.00     0.000 HD 
HETATM   19  C   UNL     1     -11.432  15.333  67.068  1.00  0.00    -0.167 C  
HETATM   20  O   UNL     1     -10.649  17.622  66.909  1.00  0.00    -0.317 OA 
HETATM   21  H   UNL     1     -11.223  17.883  67.620  1.00  0.00     0.000 HD 
BRANCH  19  22
HETATM   22  C   UNL     1     -11.601  14.585  68.404  1.00  0.00    -0.356 C  
BRANCH  22  23
HETATM   23  C   UNL     1     -11.099  15.439  69.572  1.00  0.00    -0.284 C  
BRANCH  23  24
HETATM   24  C   UNL     1     -11.742  15.107  70.924  1.00  0.00    -0.332 C  
HETATM   25  O   UNL     1     -12.130  16.310  71.588  1.00  0.00    -0.602 OA 
HETATM   26  H   UNL     1     -12.528  16.105  72.426  1.00  0.00     0.000 HD 
BRANCH  24  27
HETATM   27  C   UNL     1     -13.010  14.257  70.748  1.00  0.00    -0.368 C  
BRANCH  27  28
HETATM   28  C   UNL     1     -13.181  13.210  71.848  1.00  0.00    -0.526 C  
BRANCH  28  29
HETATM   29  C   UNL     1     -12.690  11.852  71.423  1.00  0.00    -0.395 A  
HETATM   30  C   UNL     1     -13.248  10.696  71.987  1.00  0.00    -0.473 A  
HETATM   31  C   UNL     1     -12.802   9.435  71.594  1.00  0.00    -0.461 A  
HETATM   32  C   UNL     1     -11.793   9.320  70.640  1.00  0.00    -0.246 A  
HETATM   33  C   UNL     1     -11.226  10.464  70.081  1.00  0.00    -0.393 A  
HETATM   34  C   UNL     1     -11.672  11.728  70.473  1.00  0.00    -0.146 A  
ENDBRANCH  28  29
ENDBRANCH  27  28
ENDBRANCH  24  27
ENDBRANCH  23  24
ENDBRANCH  22  23
ENDBRANCH  19  22
ENDBRANCH  12  13
ENDBRANCH  11  12
ENDBRANCH   9  10
ENDBRANCH   8   9
ENDBRANCH   7   8
ENDBRANCH   5   7
ENDBRANCH   4   5
ENDBRANCH   2   4
TORSDOF 14
ENDMDL
MODEL       68
REMARK 921   NORMALIZED FREE ENERGY PREDICTED BY IDOCK:   -5.35 KCAL/MOL
REMARK 922        TOTAL FREE ENERGY PREDICTED BY IDOCK:  -13.02 KCAL/MOL
REMARK 923 INTER-LIGAND FREE ENERGY PREDICTED BY IDOCK:  -11.26 KCAL/MOL
REMARK 924 INTRA-LIGAND FREE ENERGY PREDICTED BY IDOCK:   -1.75 KCAL/MOL
REMARK 927      BINDING AFFINITY PREDICTED BY RF-SCORE:    0.00 PKD
ROOT
HETATM    1  C   UNL     1      -6.619  16.493  68.944  1.00  0.00    -0.173 C  
HETATM    2  C   UNL     1      -7.123  17.928  69.050  1.00  0.00    -0.228 C  
HETATM    3  C   UNL     1      -5.996  18.869  69.456  1.00  0.00    -0.280 C  
ENDROOT
BRANCH   2   4
HETATM    4  O   UNL     1      -7.607  18.361  67.765  1.00  0.00    -0.226 OA 
BRANCH   4   5
HETATM    5  C   UNL     1      -8.422  19.455  67.792  1.00  0.00    -0.310 C  
HETATM    6  O   UNL     1      -8.176  20.534  67.267  1.00  0.00    -0.339 OA 
BRANCH   5   7
HETATM    7  C   UNL     1      -9.666  19.143  68.584  1.00  0.00    -0.478 C  
BRANCH   7   8
HETATM    8  C   UNL     1     -10.628  18.278  67.769  1.00  0.00    -0.415 C  
BRANCH   8   9
HETATM    9  C   UNL     1     -10.945  16.941  68.435  1.00  0.00    -0.296 C  
BRANCH   9  10
HETATM   10  C   UNL     1     -10.085  15.824  67.914  1.00  0.00    -0.230 C  
HETATM   11  C   UNL     1     -10.502  14.730  67.255  1.00  0.00    -0.264 C  
BRANCH  11  12
HETATM   12  C   UNL     1     -11.916  14.397  66.874  1.00  0.00    -0.425 C  
BRANCH  12  13
HETATM   13  C   UNL     1     -12.086  13.347  65.762  1.00  0.00    -0.481 C  
HETATM   14  C   UNL     1     -12.340  14.022  64.402  1.00  0.00    -0.367 C  
HETATM   15  C   UNL     1     -12.124  12.895  63.410  1.00  0.00    -0.610 C  
HETATM   16  O   UNL     1     -11.373  15.038  64.129  1.00  0.00    -0.636 OA 
HETATM   17  C   UNL     1     -10.893  12.179  63.956  1.00  0.00    -0.383 C  
HETATM   18  H   UNL     1     -11.530  15.455  63.290  1.00  0.00     0.000 HD 
HETATM   19  C   UNL     1     -10.852  12.452  65.484  1.00  0.00    -0.316 C  
HETATM   20  O   UNL     1      -9.712  12.710  63.359  1.00  0.00    -0.620 OA 
HETATM   21  H   UNL     1      -8.945  12.264  63.700  1.00  0.00     0.000 HD 
BRANCH  19  22
HETATM   22  C   UNL     1     -10.864  11.137  66.286  1.00  0.00    -0.266 C  
BRANCH  22  23
HETATM   23  C   UNL     1     -10.083  11.292  67.594  1.00  0.00    -0.201 C  
BRANCH  23  24
HETATM   24  C   UNL     1     -10.927  11.118  68.862  1.00  0.00    -0.225 C  
HETATM   25  O   UNL     1     -12.270  10.783  68.513  1.00  0.00    -0.824 OA 
HETATM   26  H   UNL     1     -12.793  10.675  69.299  1.00  0.00     0.000 HD 
BRANCH  24  27
HETATM   27  C   UNL     1     -10.388   9.979  69.741  1.00  0.00    -0.290 C  
BRANCH  27  28
HETATM   28  C   UNL     1     -11.345   9.596  70.871  1.00  0.00    -0.431 C  
BRANCH  28  29
HETATM   29  C   UNL     1     -11.104   8.199  71.374  1.00  0.00    -0.291 A  
HETATM   30  C   UNL     1     -11.049   7.128  70.471  1.00  0.00    -0.299 A  
HETATM   31  C   UNL     1     -10.821   5.831  70.930  1.00  0.00    -0.326 A  
HETATM   32  C   UNL     1     -10.651   5.595  72.292  1.00  0.00    -0.270 A  
HETATM   33  C   UNL     1     -10.713   6.653  73.198  1.00  0.00    -0.306 A  
HETATM   34  C   UNL     1     -10.941   7.952  72.740  1.00  0.00    -0.456 A  
ENDBRANCH  28  29
ENDBRANCH  27  28
ENDBRANCH  24  27
ENDBRANCH  23  24
ENDBRANCH  22  23
ENDBRANCH  19  22
ENDBRANCH  12  13
ENDBRANCH  11  12
ENDBRANCH   9  10
ENDBRANCH   8   9
ENDBRANCH   7   8
ENDBRANCH   5   7
ENDBRANCH   4   5
ENDBRANCH   2   4
TORSDOF 14
ENDMDL
MODEL       69
REMARK 921   NORMALIZED FREE ENERGY PREDICTED BY IDOCK:   -5.34 KCAL/MOL
REMARK 922        TOTAL FREE ENERGY PREDICTED BY IDOCK:  -13.01 KCAL/MOL
REMARK 923 INTER-LIGAND FREE ENERGY PREDICTED BY IDOCK:  -10.57 KCAL/MOL
REMARK 924 INTRA-LIGAND FREE ENERGY PREDICTED BY IDOCK:   -2.44 KCAL/MOL
REMARK 927      BINDING AFFINITY PREDICTED BY RF-SCORE:    0.00 PKD
ROOT
HETATM    1  C   UNL     1     -12.436  11.750  63.298  1.00  0.00    -0.411 C  
HETATM    2  C   UNL     1     -11.084  11.973  63.967  1.00  0.00    -0.386 C  
HETATM    3  C   UNL     1      -9.984  11.227  63.223  1.00  0.00    -0.428 C  
ENDROOT
BRANCH   2   4
HETATM    4  O   UNL     1     -10.758  13.375  63.932  1.00  0.00    -0.254 OA 
BRANCH   4   5
HETATM    5  C   UNL     1     -11.641  14.192  64.575  1.00  0.00    -0.389 C  
HETATM    6  O   UNL     1     -12.595  14.755  64.052  1.00  0.00    -0.822 OA 
BRANCH   5   7
HETATM    7  C   UNL     1     -11.252  14.318  66.026  1.00  0.00    -0.324 C  
BRANCH   7   8
HETATM    8  C   UNL     1     -12.306  13.675  66.929  1.00  0.00    -0.309 C  
BRANCH   8   9
HETATM    9  C   UNL     1     -12.027  12.203  67.224  1.00  0.00    -0.158 C  
BRANCH   9  10
HETATM   10  C   UNL     1     -10.880  12.017  68.177  1.00  0.00    -0.257 C  
HETATM   11  C   UNL     1     -10.931  12.095  69.517  1.00  0.00    -0.031 C  
BRANCH  11  12
HETATM   12  C   UNL     1     -12.148  12.359  70.356  1.00  0.00    -0.381 C  
BRANCH  12  13
HETATM   13  C   UNL     1     -12.618  13.822  70.423  1.00  0.00    -0.325 C  
HETATM   14  C   UNL     1     -13.690  14.006  71.513  1.00  0.00    -0.280 C  
HETATM   15  C   UNL     1     -13.763  15.512  71.676  1.00  0.00    -0.562 C  
HETATM   16  O   UNL     1     -13.275  13.449  72.760  1.00  0.00    -0.444 OA 
HETATM   17  C   UNL     1     -12.300  15.940  71.632  1.00  0.00    -0.459 C  
HETATM   18  H   UNL     1     -13.937  13.562  73.432  1.00  0.00     0.000 HD 
HETATM   19  C   UNL     1     -11.538  14.862  70.816  1.00  0.00    -0.345 C  
HETATM   20  O   UNL     1     -11.763  15.988  72.952  1.00  0.00    -0.444 OA 
HETATM   21  H   UNL     1     -10.851  16.255  72.923  1.00  0.00     0.000 HD 
BRANCH  19  22
HETATM   22  C   UNL     1     -10.824  15.482  69.601  1.00  0.00    -0.285 C  
BRANCH  22  23
HETATM   23  C   UNL     1      -9.363  15.801  69.933  1.00  0.00     0.084 C  
BRANCH  23  24
HETATM   24  C   UNL     1      -8.346  15.242  68.931  1.00  0.00    -0.196 C  
HETATM   25  O   UNL     1      -8.069  13.873  69.229  1.00  0.00    -0.337 OA 
HETATM   26  H   UNL     1      -7.440  13.526  68.608  1.00  0.00     0.000 HD 
BRANCH  24  27
HETATM   27  C   UNL     1      -8.889  15.293  67.495  1.00  0.00    -0.188 C  
BRANCH  27  28
HETATM   28  C   UNL     1      -8.265  16.413  66.663  1.00  0.00    -0.314 C  
BRANCH  28  29
HETATM   29  C   UNL     1      -8.877  17.754  66.962  1.00  0.00    -0.260 A  
HETATM   30  C   UNL     1     -10.205  18.017  66.597  1.00  0.00    -0.375 A  
HETATM   31  C   UNL     1     -10.780  19.256  66.876  1.00  0.00    -0.543 A  
HETATM   32  C   UNL     1     -10.032  20.242  67.515  1.00  0.00    -0.557 A  
HETATM   33  C   UNL     1      -8.708  19.993  67.873  1.00  0.00    -0.321 A  
HETATM   34  C   UNL     1      -8.130  18.753  67.595  1.00  0.00    -0.270 A  
ENDBRANCH  28  29
ENDBRANCH  27  28
ENDBRANCH  24  27
ENDBRANCH  23  24
ENDBRANCH  22  23
ENDBRANCH  19  22
ENDBRANCH  12  13
ENDBRANCH  11  12
ENDBRANCH   9  10
ENDBRANCH   8   9
ENDBRANCH   7   8
ENDBRANCH   5   7
ENDBRANCH   4   5
ENDBRANCH   2   4
TORSDOF 14
ENDMDL
MODEL       70
REMARK 921   NORMALIZED FREE ENERGY PREDICTED BY IDOCK:   -5.33 KCAL/MOL
REMARK 922        TOTAL FREE ENERGY PREDICTED BY IDOCK:  -12.99 KCAL/MOL
REMARK 923 INTER-LIGAND FREE ENERGY PREDICTED BY IDOCK:  -10.73 KCAL/MOL
REMARK 924 INTRA-LIGAND FREE ENERGY PREDICTED BY IDOCK:   -2.27 KCAL/MOL
REMARK 927      BINDING AFFINITY PREDICTED BY RF-SCORE:    0.00 PKD
ROOT
HETATM    1  C   UNL     1     -13.504  10.067  71.632  1.00  0.00    -0.398 C  
HETATM    2  C   UNL     1     -13.198   8.603  71.926  1.00  0.00    -0.375 C  
HETATM    3  C   UNL     1     -14.394   7.722  71.587  1.00  0.00    -0.607 C  
ENDROOT
BRANCH   2   4
HETATM    4  O   UNL     1     -12.096   8.169  71.108  1.00  0.00    -0.299 OA 
BRANCH   4   5
HETATM    5  C   UNL     1     -10.886   8.130  71.738  1.00  0.00    -0.256 C  
HETATM    6  O   UNL     1      -9.969   8.922  71.560  1.00  0.00    -0.267 OA 
BRANCH   5   7
HETATM    7  C   UNL     1     -10.839   6.950  72.674  1.00  0.00    -0.290 C  
BRANCH   7   8
HETATM    8  C   UNL     1     -10.668   5.644  71.895  1.00  0.00    -0.299 C  
BRANCH   8   9
HETATM    9  C   UNL     1      -9.563   5.712  70.845  1.00  0.00    -0.212 C  
BRANCH   9  10
HETATM   10  C   UNL     1      -9.792   4.754  69.710  1.00  0.00    -0.288 C  
HETATM   11  C   UNL     1     -10.391   5.027  68.538  1.00  0.00    -0.094 C  
BRANCH  11  12
HETATM   12  C   UNL     1     -10.939   6.354  68.098  1.00  0.00    -0.393 C  
BRANCH  12  13
HETATM   13  C   UNL     1      -9.899   7.446  67.791  1.00  0.00    -0.187 C  
HETATM   14  C   UNL     1      -8.865   6.947  66.765  1.00  0.00    -0.125 C  
HETATM   15  C   UNL     1      -8.169   8.222  66.327  1.00  0.00    -0.112 C  
HETATM   16  O   UNL     1      -9.494   6.375  65.618  1.00  0.00    -0.380 OA 
HETATM   17  C   UNL     1      -9.317   9.216  66.187  1.00  0.00    -0.228 C  
HETATM   18  H   UNL     1      -8.856   6.067  64.985  1.00  0.00     0.000 HD 
HETATM   19  C   UNL     1     -10.449   8.737  67.134  1.00  0.00    -0.354 C  
HETATM   20  O   UNL     1      -9.804   9.217  64.847  1.00  0.00    -0.379 OA 
HETATM   21  H   UNL     1     -10.519   9.837  64.760  1.00  0.00     0.000 HD 
BRANCH  19  22
HETATM   22  C   UNL     1     -10.819   9.827  68.157  1.00  0.00    -0.264 C  
BRANCH  22  23
HETATM   23  C   UNL     1     -10.075  11.131  67.856  1.00  0.00    -0.195 C  
BRANCH  23  24
HETATM   24  C   UNL     1     -10.968  12.377  67.810  1.00  0.00    -0.228 C  
HETATM   25  O   UNL     1     -12.147  12.105  67.052  1.00  0.00    -0.591 OA 
HETATM   26  H   UNL     1     -12.700  12.877  67.025  1.00  0.00     0.000 HD 
BRANCH  24  27
HETATM   27  C   UNL     1     -11.420  12.794  69.218  1.00  0.00    -0.349 C  
BRANCH  27  28
HETATM   28  C   UNL     1     -11.845  14.260  69.297  1.00  0.00    -0.372 C  
BRANCH  28  29
HETATM   29  C   UNL     1     -12.243  14.664  70.690  1.00  0.00    -0.394 A  
HETATM   30  C   UNL     1     -13.223  13.938  71.379  1.00  0.00    -0.392 A  
HETATM   31  C   UNL     1     -13.593  14.304  72.673  1.00  0.00    -0.601 A  
HETATM   32  C   UNL     1     -12.990  15.401  73.284  1.00  0.00    -0.648 A  
HETATM   33  C   UNL     1     -12.020  16.135  72.602  1.00  0.00    -0.653 A  
HETATM   34  C   UNL     1     -11.649  15.770  71.308  1.00  0.00    -0.499 A  
ENDBRANCH  28  29
ENDBRANCH  27  28
ENDBRANCH  24  27
ENDBRANCH  23  24
ENDBRANCH  22  23
ENDBRANCH  19  22
ENDBRANCH  12  13
ENDBRANCH  11  12
ENDBRANCH   9  10
ENDBRANCH   8   9
ENDBRANCH   7   8
ENDBRANCH   5   7
ENDBRANCH   4   5
ENDBRANCH   2   4
TORSDOF 14
ENDMDL
MODEL       71
REMARK 921   NORMALIZED FREE ENERGY PREDICTED BY IDOCK:   -5.33 KCAL/MOL
REMARK 922        TOTAL FREE ENERGY PREDICTED BY IDOCK:  -12.99 KCAL/MOL
REMARK 923 INTER-LIGAND FREE ENERGY PREDICTED BY IDOCK:  -10.78 KCAL/MOL
REMARK 924 INTRA-LIGAND FREE ENERGY PREDICTED BY IDOCK:   -2.21 KCAL/MOL
REMARK 927      BINDING AFFINITY PREDICTED BY RF-SCORE:    0.00 PKD
ROOT
HETATM    1  C   UNL     1     -12.168  11.630  63.405  1.00  0.00    -0.319 C  
HETATM    2  C   UNL     1     -10.831  12.019  64.026  1.00  0.00    -0.378 C  
HETATM    3  C   UNL     1      -9.673  11.485  63.193  1.00  0.00    -0.412 C  
ENDROOT
BRANCH   2   4
HETATM    4  O   UNL     1     -10.716  13.453  64.058  1.00  0.00    -0.342 OA 
BRANCH   4   5
HETATM    5  C   UNL     1     -11.787  14.109  64.592  1.00  0.00    -0.431 C  
HETATM    6  O   UNL     1     -12.688  14.634  63.950  1.00  0.00    -0.788 OA 
BRANCH   5   7
HETATM    7  C   UNL     1     -11.683  14.111  66.096  1.00  0.00    -0.402 C  
BRANCH   7   8
HETATM    8  C   UNL     1     -11.525  15.536  66.629  1.00  0.00     0.068 C  
BRANCH   8   9
HETATM    9  C   UNL     1     -10.361  16.290  65.991  1.00  0.00    -0.363 C  
BRANCH   9  10
HETATM   10  C   UNL     1     -10.755  17.663  65.526  1.00  0.00    -0.037 C  
HETATM   11  C   UNL     1     -10.504  18.826  66.151  1.00  0.00    -0.499 C  
BRANCH  11  12
HETATM   12  C   UNL     1      -9.752  19.008  67.438  1.00  0.00    -0.371 C  
BRANCH  12  13
HETATM   13  C   UNL     1      -8.223  18.858  67.354  1.00  0.00    -0.289 C  
HETATM   14  C   UNL     1      -7.596  20.036  66.585  1.00  0.00    -0.285 C  
HETATM   15  C   UNL     1      -6.119  19.914  66.909  1.00  0.00    -0.188 C  
HETATM   16  O   UNL     1      -8.052  21.294  67.085  1.00  0.00    -0.655 OA 
HETATM   17  C   UNL     1      -6.113  19.575  68.395  1.00  0.00    -0.233 C  
HETATM   18  H   UNL     1      -7.666  22.020  66.610  1.00  0.00     0.000 HD 
HETATM   19  C   UNL     1      -7.467  18.882  68.707  1.00  0.00    -0.360 C  
HETATM   20  O   UNL     1      -6.016  20.769  69.170  1.00  0.00    -0.356 OA 
HETATM   21  H   UNL     1      -6.012  20.557  70.096  1.00  0.00     0.000 HD 
BRANCH  19  22
HETATM   22  C   UNL     1      -7.250  17.479  69.304  1.00  0.00    -0.088 C  
BRANCH  22  23
HETATM   23  C   UNL     1      -7.671  16.394  68.309  1.00  0.00    -0.162 C  
BRANCH  23  24
HETATM   24  C   UNL     1      -8.374  15.188  68.943  1.00  0.00    -0.190 C  
HETATM   25  O   UNL     1      -7.464  14.478  69.783  1.00  0.00    -0.369 OA 
HETATM   26  H   UNL     1      -7.899  13.731  70.176  1.00  0.00     0.000 HD 
BRANCH  24  27
HETATM   27  C   UNL     1      -9.555  15.626  69.823  1.00  0.00    -0.192 C  
BRANCH  27  28
HETATM   28  C   UNL     1     -10.716  14.632  69.798  1.00  0.00    -0.129 C  
BRANCH  28  29
HETATM   29  C   UNL     1     -11.774  14.965  70.815  1.00  0.00    -0.364 A  
HETATM   30  C   UNL     1     -13.129  14.804  70.497  1.00  0.00    -0.275 A  
HETATM   31  C   UNL     1     -14.114  15.106  71.436  1.00  0.00    -0.598 A  
HETATM   32  C   UNL     1     -13.753  15.576  72.697  1.00  0.00    -0.667 A  
HETATM   33  C   UNL     1     -12.407  15.749  73.018  1.00  0.00    -0.586 A  
HETATM   34  C   UNL     1     -11.420  15.447  72.079  1.00  0.00    -0.521 A  
ENDBRANCH  28  29
ENDBRANCH  27  28
ENDBRANCH  24  27
ENDBRANCH  23  24
ENDBRANCH  22  23
ENDBRANCH  19  22
ENDBRANCH  12  13
ENDBRANCH  11  12
ENDBRANCH   9  10
ENDBRANCH   8   9
ENDBRANCH   7   8
ENDBRANCH   5   7
ENDBRANCH   4   5
ENDBRANCH   2   4
TORSDOF 14
ENDMDL
MODEL       72
REMARK 921   NORMALIZED FREE ENERGY PREDICTED BY IDOCK:   -5.32 KCAL/MOL
REMARK 922        TOTAL FREE ENERGY PREDICTED BY IDOCK:  -12.97 KCAL/MOL
REMARK 923 INTER-LIGAND FREE ENERGY PREDICTED BY IDOCK:  -10.91 KCAL/MOL
REMARK 924 INTRA-LIGAND FREE ENERGY PREDICTED BY IDOCK:   -2.06 KCAL/MOL
REMARK 927      BINDING AFFINITY PREDICTED BY RF-SCORE:    0.00 PKD
ROOT
HETATM    1  C   UNL     1     -13.498   8.737  71.905  1.00  0.00    -0.447 C  
HETATM    2  C   UNL     1     -12.149   8.132  71.532  1.00  0.00    -0.298 C  
HETATM    3  C   UNL     1     -11.369   7.739  72.780  1.00  0.00    -0.446 C  
ENDROOT
BRANCH   2   4
HETATM    4  O   UNL     1     -12.358   6.936  70.758  1.00  0.00    -0.376 OA 
BRANCH   4   5
HETATM    5  C   UNL     1     -11.289   6.535  70.010  1.00  0.00    -0.410 C  
HETATM    6  O   UNL     1     -10.855   5.391  69.951  1.00  0.00    -0.298 OA 
BRANCH   5   7
HETATM    7  C   UNL     1     -10.705   7.720  69.283  1.00  0.00    -0.156 C  
BRANCH   7   8
HETATM    8  C   UNL     1     -10.003   7.277  67.998  1.00  0.00    -0.186 C  
BRANCH   8   9
HETATM    9  C   UNL     1     -10.419   8.092  66.776  1.00  0.00    -0.316 C  
BRANCH   9  10
HETATM   10  C   UNL     1      -9.305   8.959  66.260  1.00  0.00    -0.279 C  
HETATM   11  C   UNL     1      -9.432  10.066  65.509  1.00  0.00    -0.296 C  
BRANCH  11  12
HETATM   12  C   UNL     1     -10.715  10.692  65.041  1.00  0.00    -0.080 C  
BRANCH  12  13
HETATM   13  C   UNL     1     -10.816  12.219  65.195  1.00  0.00    -0.340 C  
HETATM   14  C   UNL     1     -11.399  12.862  63.922  1.00  0.00    -0.436 C  
HETATM   15  C   UNL     1     -11.754  14.265  64.374  1.00  0.00    -0.405 C  
HETATM   16  O   UNL     1     -12.603  12.216  63.510  1.00  0.00    -0.647 OA 
HETATM   17  C   UNL     1     -12.367  14.044  65.753  1.00  0.00    -0.480 C  
HETATM   18  H   UNL     1     -12.963  12.612  62.724  1.00  0.00     0.000 HD 
HETATM   19  C   UNL     1     -11.768  12.725  66.309  1.00  0.00    -0.460 C  
HETATM   20  O   UNL     1     -13.782  13.899  65.643  1.00  0.00    -0.461 OA 
HETATM   21  H   UNL     1     -14.164  13.761  66.502  1.00  0.00     0.000 HD 
BRANCH  19  22
HETATM   22  C   UNL     1     -11.055  12.959  67.654  1.00  0.00    -0.297 C  
BRANCH  22  23
HETATM   23  C   UNL     1      -9.569  13.258  67.436  1.00  0.00    -0.223 C  
BRANCH  23  24
HETATM   24  C   UNL     1      -9.064  14.521  68.144  1.00  0.00    -0.191 C  
HETATM   25  O   UNL     1      -8.224  14.162  69.242  1.00  0.00    -0.347 OA 
HETATM   26  H   UNL     1      -7.912  14.944  69.681  1.00  0.00     0.000 HD 
BRANCH  24  27
HETATM   27  C   UNL     1      -8.227  15.397  67.200  1.00  0.00    -0.250 C  
BRANCH  27  28
HETATM   28  C   UNL     1      -9.076  16.129  66.160  1.00  0.00    -0.382 C  
BRANCH  28  29
HETATM   29  C   UNL     1      -9.336  17.560  66.543  1.00  0.00    -0.281 A  
HETATM   30  C   UNL     1     -10.510  18.198  66.119  1.00  0.00    -0.377 A  
HETATM   31  C   UNL     1     -10.760  19.523  66.474  1.00  0.00    -0.535 A  
HETATM   32  C   UNL     1      -9.838  20.221  67.251  1.00  0.00    -0.593 A  
HETATM   33  C   UNL     1      -8.663  19.597  67.669  1.00  0.00    -0.372 A  
HETATM   34  C   UNL     1      -8.411  18.271  67.315  1.00  0.00    -0.250 A  
ENDBRANCH  28  29
ENDBRANCH  27  28
ENDBRANCH  24  27
ENDBRANCH  23  24
ENDBRANCH  22  23
ENDBRANCH  19  22
ENDBRANCH  12  13
ENDBRANCH  11  12
ENDBRANCH   9  10
ENDBRANCH   8   9
ENDBRANCH   7   8
ENDBRANCH   5   7
ENDBRANCH   4   5
ENDBRANCH   2   4
TORSDOF 14
ENDMDL
MODEL       73
REMARK 921   NORMALIZED FREE ENERGY PREDICTED BY IDOCK:   -5.32 KCAL/MOL
REMARK 922        TOTAL FREE ENERGY PREDICTED BY IDOCK:  -12.97 KCAL/MOL
REMARK 923 INTER-LIGAND FREE ENERGY PREDICTED BY IDOCK:  -10.47 KCAL/MOL
REMARK 924 INTRA-LIGAND FREE ENERGY PREDICTED BY IDOCK:   -2.50 KCAL/MOL
REMARK 927      BINDING AFFINITY PREDICTED BY RF-SCORE:    0.00 PKD
ROOT
HETATM    1  C   UNL     1     -11.765   6.468  72.130  1.00  0.00    -0.353 C  
HETATM    2  C   UNL     1     -12.202   7.698  71.342  1.00  0.00    -0.326 C  
HETATM    3  C   UNL     1     -13.143   8.564  72.170  1.00  0.00    -0.393 C  
ENDROOT
BRANCH   2   4
HETATM    4  O   UNL     1     -11.049   8.496  71.020  1.00  0.00    -0.244 OA 
BRANCH   4   5
HETATM    5  C   UNL     1     -10.649   8.439  69.717  1.00  0.00    -0.221 C  
HETATM    6  O   UNL     1     -10.820   7.487  68.965  1.00  0.00    -0.172 OA 
BRANCH   5   7
HETATM    7  C   UNL     1      -9.943   9.718  69.345  1.00  0.00    -0.217 C  
BRANCH   7   8
HETATM    8  C   UNL     1      -9.095   9.526  68.086  1.00  0.00    -0.128 C  
BRANCH   8   9
HETATM    9  C   UNL     1      -8.826  10.829  67.338  1.00  0.00    -0.129 C  
BRANCH   9  10
HETATM   10  C   UNL     1      -8.297  10.595  65.952  1.00  0.00    -0.161 C  
HETATM   11  C   UNL     1      -8.987  10.686  64.803  1.00  0.00    -0.218 C  
BRANCH  11  12
HETATM   12  C   UNL     1     -10.432  11.068  64.652  1.00  0.00    -0.398 C  
BRANCH  12  13
HETATM   13  C   UNL     1     -10.715  12.561  64.412  1.00  0.00    -0.379 C  
HETATM   14  C   UNL     1     -11.880  12.747  63.423  1.00  0.00    -0.518 C  
HETATM   15  C   UNL     1     -12.241  14.212  63.585  1.00  0.00    -0.051 C  
HETATM   16  O   UNL     1     -13.018  11.971  63.796  1.00  0.00    -0.709 OA 
HETATM   17  C   UNL     1     -12.167  14.425  65.093  1.00  0.00    -0.393 C  
HETATM   18  H   UNL     1     -13.737  12.086  63.185  1.00  0.00     0.000 HD 
HETATM   19  C   UNL     1     -11.176  13.369  65.652  1.00  0.00    -0.307 C  
HETATM   20  O   UNL     1     -13.449  14.213  65.682  1.00  0.00    -0.725 OA 
HETATM   21  H   UNL     1     -13.402  14.346  66.622  1.00  0.00     0.000 HD 
BRANCH  19  22
HETATM   22  C   UNL     1     -10.012  14.040  66.405  1.00  0.00    -0.301 C  
BRANCH  22  23
HETATM   23  C   UNL     1     -10.441  15.396  66.972  1.00  0.00    -0.295 C  
BRANCH  23  24
HETATM   24  C   UNL     1      -9.644  15.853  68.199  1.00  0.00    -0.208 C  
HETATM   25  O   UNL     1      -9.717  17.273  68.328  1.00  0.00    -0.271 OA 
HETATM   26  H   UNL     1      -9.224  17.556  69.089  1.00  0.00     0.000 HD 
BRANCH  24  27
HETATM   27  C   UNL     1     -10.212  15.249  69.493  1.00  0.00    -0.265 C  
BRANCH  27  28
HETATM   28  C   UNL     1     -11.739  15.179  69.495  1.00  0.00    -0.351 C  
BRANCH  28  29
HETATM   29  C   UNL     1     -12.259  14.115  70.423  1.00  0.00    -0.427 A  
HETATM   30  C   UNL     1     -12.012  12.762  70.149  1.00  0.00    -0.371 A  
HETATM   31  C   UNL     1     -12.486  11.771  71.008  1.00  0.00    -0.411 A  
HETATM   32  C   UNL     1     -13.214  12.124  72.142  1.00  0.00    -0.438 A  
HETATM   33  C   UNL     1     -13.473  13.466  72.417  1.00  0.00    -0.685 A  
HETATM   34  C   UNL     1     -12.999  14.459  71.559  1.00  0.00    -0.406 A  
ENDBRANCH  28  29
ENDBRANCH  27  28
ENDBRANCH  24  27
ENDBRANCH  23  24
ENDBRANCH  22  23
ENDBRANCH  19  22
ENDBRANCH  12  13
ENDBRANCH  11  12
ENDBRANCH   9  10
ENDBRANCH   8   9
ENDBRANCH   7   8
ENDBRANCH   5   7
ENDBRANCH   4   5
ENDBRANCH   2   4
TORSDOF 14
ENDMDL
MODEL       74
REMARK 921   NORMALIZED FREE ENERGY PREDICTED BY IDOCK:   -5.31 KCAL/MOL
REMARK 922        TOTAL FREE ENERGY PREDICTED BY IDOCK:  -12.95 KCAL/MOL
REMARK 923 INTER-LIGAND FREE ENERGY PREDICTED BY IDOCK:  -10.88 KCAL/MOL
REMARK 924 INTRA-LIGAND FREE ENERGY PREDICTED BY IDOCK:   -2.06 KCAL/MOL
REMARK 927      BINDING AFFINITY PREDICTED BY RF-SCORE:    0.00 PKD
ROOT
HETATM    1  C   UNL     1     -11.156   6.002  69.563  1.00  0.00    -0.468 C  
HETATM    2  C   UNL     1     -10.451   6.590  70.780  1.00  0.00    -0.220 C  
HETATM    3  C   UNL     1      -8.938   6.527  70.612  1.00  0.00    -0.148 C  
ENDROOT
BRANCH   2   4
HETATM    4  O   UNL     1     -10.813   7.976  70.921  1.00  0.00    -0.223 OA 
BRANCH   4   5
HETATM    5  C   UNL     1     -11.460   8.292  72.080  1.00  0.00    -0.361 C  
HETATM    6  O   UNL     1     -11.332   7.701  73.145  1.00  0.00    -0.360 OA 
BRANCH   5   7
HETATM    7  C   UNL     1     -12.375   9.467  71.848  1.00  0.00    -0.450 C  
BRANCH   7   8
HETATM    8  C   UNL     1     -11.753  10.455  70.860  1.00  0.00    -0.455 C  
BRANCH   8   9
HETATM    9  C   UNL     1     -12.644  11.661  70.574  1.00  0.00    -0.264 C  
BRANCH   9  10
HETATM   10  C   UNL     1     -11.851  12.891  70.234  1.00  0.00    -0.291 C  
HETATM   11  C   UNL     1     -11.522  13.319  69.004  1.00  0.00    -0.350 C  
BRANCH  11  12
HETATM   12  C   UNL     1     -11.898  12.676  67.700  1.00  0.00    -0.390 C  
BRANCH  12  13
HETATM   13  C   UNL     1     -11.107  13.142  66.465  1.00  0.00    -0.317 C  
HETATM   14  C   UNL     1     -11.454  12.283  65.234  1.00  0.00    -0.351 C  
HETATM   15  C   UNL     1     -10.884  13.086  64.080  1.00  0.00    -0.433 C  
HETATM   16  O   UNL     1     -12.865  12.182  65.043  1.00  0.00    -0.456 OA 
HETATM   17  C   UNL     1     -11.258  14.521  64.434  1.00  0.00    -0.195 C  
HETATM   18  H   UNL     1     -13.079  11.652  64.284  1.00  0.00     0.000 HD 
HETATM   19  C   UNL     1     -11.401  14.584  65.979  1.00  0.00    -0.341 C  
HETATM   20  O   UNL     1     -12.508  14.864  63.840  1.00  0.00    -1.009 OA 
HETATM   21  H   UNL     1     -12.740  15.758  64.061  1.00  0.00     0.000 HD 
BRANCH  19  22
HETATM   22  C   UNL     1     -10.449  15.633  66.585  1.00  0.00    -0.301 C  
BRANCH  22  23
HETATM   23  C   UNL     1      -8.988  15.224  66.378  1.00  0.00    -0.339 C  
BRANCH  23  24
HETATM   24  C   UNL     1      -8.201  14.999  67.675  1.00  0.00    -0.168 C  
HETATM   25  O   UNL     1      -7.527  13.741  67.625  1.00  0.00    -0.149 OA 
HETATM   26  H   UNL     1      -7.040  13.601  68.428  1.00  0.00     0.000 HD 
BRANCH  24  27
HETATM   27  C   UNL     1      -7.129  16.080  67.875  1.00  0.00    -0.151 C  
BRANCH  27  28
HETATM   28  C   UNL     1      -7.566  17.180  68.843  1.00  0.00    -0.234 C  
BRANCH  28  29
HETATM   29  C   UNL     1      -8.308  18.289  68.148  1.00  0.00    -0.296 A  
HETATM   30  C   UNL     1      -7.917  18.699  66.866  1.00  0.00    -0.250 A  
HETATM   31  C   UNL     1      -8.603  19.723  66.214  1.00  0.00    -0.397 A  
HETATM   32  C   UNL     1      -9.680  20.347  66.839  1.00  0.00    -0.567 A  
HETATM   33  C   UNL     1     -10.069  19.952  68.119  1.00  0.00    -0.569 A  
HETATM   34  C   UNL     1      -9.384  18.927  68.772  1.00  0.00    -0.381 A  
ENDBRANCH  28  29
ENDBRANCH  27  28
ENDBRANCH  24  27
ENDBRANCH  23  24
ENDBRANCH  22  23
ENDBRANCH  19  22
ENDBRANCH  12  13
ENDBRANCH  11  12
ENDBRANCH   9  10
ENDBRANCH   8   9
ENDBRANCH   7   8
ENDBRANCH   5   7
ENDBRANCH   4   5
ENDBRANCH   2   4
TORSDOF 14
ENDMDL
MODEL       75
REMARK 921   NORMALIZED FREE ENERGY PREDICTED BY IDOCK:   -5.29 KCAL/MOL
REMARK 922        TOTAL FREE ENERGY PREDICTED BY IDOCK:  -12.92 KCAL/MOL
REMARK 923 INTER-LIGAND FREE ENERGY PREDICTED BY IDOCK:   -9.37 KCAL/MOL
REMARK 924 INTRA-LIGAND FREE ENERGY PREDICTED BY IDOCK:   -3.55 KCAL/MOL
REMARK 927      BINDING AFFINITY PREDICTED BY RF-SCORE:    0.00 PKD
ROOT
HETATM    1  C   UNL     1     -10.486  17.830  65.985  1.00  0.00    -0.286 C  
HETATM    2  C   UNL     1     -10.161  16.372  65.683  1.00  0.00    -0.324 C  
HETATM    3  C   UNL     1      -8.773  16.009  66.195  1.00  0.00    -0.348 C  
ENDROOT
BRANCH   2   4
HETATM    4  O   UNL     1     -11.107  15.520  66.356  1.00  0.00    -0.283 OA 
BRANCH   4   5
HETATM    5  C   UNL     1     -11.411  14.361  65.703  1.00  0.00    -0.330 C  
HETATM    6  O   UNL     1     -11.111  14.102  64.544  1.00  0.00    -0.376 OA 
BRANCH   5   7
HETATM    7  C   UNL     1     -12.193  13.454  66.617  1.00  0.00    -0.391 C  
BRANCH   7   8
HETATM    8  C   UNL     1     -12.016  13.869  68.079  1.00  0.00    -0.390 C  
BRANCH   8   9
HETATM    9  C   UNL     1     -11.878  12.681  69.028  1.00  0.00    -0.341 C  
BRANCH   9  10
HETATM   10  C   UNL     1     -12.234  13.036  70.444  1.00  0.00    -0.386 C  
HETATM   11  C   UNL     1     -12.737  12.209  71.376  1.00  0.00    -0.368 C  
BRANCH  11  12
HETATM   12  C   UNL     1     -13.028  10.744  71.214  1.00  0.00    -0.502 C  
BRANCH  12  13
HETATM   13  C   UNL     1     -11.866   9.786  71.527  1.00  0.00    -0.476 C  
HETATM   14  C   UNL     1     -12.289   8.732  72.568  1.00  0.00    -0.287 C  
HETATM   15  C   UNL     1     -11.183   7.697  72.481  1.00  0.00    -0.399 C  
HETATM   16  O   UNL     1     -13.515   8.095  72.206  1.00  0.00    -0.499 OA 
HETATM   17  C   UNL     1     -10.934   7.577  70.981  1.00  0.00    -0.251 C  
HETATM   18  H   UNL     1     -13.775   7.445  72.848  1.00  0.00     0.000 HD 
HETATM   19  C   UNL     1     -11.363   8.924  70.341  1.00  0.00    -0.229 C  
HETATM   20  O   UNL     1     -11.732   6.529  70.434  1.00  0.00    -0.393 OA 
HETATM   21  H   UNL     1     -11.576   6.455  69.500  1.00  0.00     0.000 HD 
BRANCH  19  22
HETATM   22  C   UNL     1     -10.196   9.574  69.574  1.00  0.00    -0.225 C  
BRANCH  22  23
HETATM   23  C   UNL     1      -9.510   8.552  68.662  1.00  0.00    -0.144 C  
BRANCH  23  24
HETATM   24  C   UNL     1      -9.977   8.589  67.202  1.00  0.00    -0.238 C  
HETATM   25  O   UNL     1     -10.984   7.600  66.986  1.00  0.00    -0.489 OA 
HETATM   26  H   UNL     1     -11.273   7.623  66.081  1.00  0.00     0.000 HD 
BRANCH  24  27
HETATM   27  C   UNL     1     -10.594   9.950  66.845  1.00  0.00    -0.248 C  
BRANCH  27  28
HETATM   28  C   UNL     1      -9.746  10.746  65.853  1.00  0.00    -0.272 C  
BRANCH  28  29
HETATM   29  C   UNL     1      -8.530  11.352  66.500  1.00  0.00    -0.170 A  
HETATM   30  C   UNL     1      -7.256  10.847  66.210  1.00  0.00    -0.126 A  
HETATM   31  C   UNL     1      -6.124  11.407  66.802  1.00  0.00    -0.145 A  
HETATM   32  C   UNL     1      -6.259  12.470  67.692  1.00  0.00    -0.141 A  
HETATM   33  C   UNL     1      -7.525  12.972  67.995  1.00  0.00    -0.134 A  
HETATM   34  C   UNL     1      -8.658  12.413  67.402  1.00  0.00    -0.181 A  
ENDBRANCH  28  29
ENDBRANCH  27  28
ENDBRANCH  24  27
ENDBRANCH  23  24
ENDBRANCH  22  23
ENDBRANCH  19  22
ENDBRANCH  12  13
ENDBRANCH  11  12
ENDBRANCH   9  10
ENDBRANCH   8   9
ENDBRANCH   7   8
ENDBRANCH   5   7
ENDBRANCH   4   5
ENDBRANCH   2   4
TORSDOF 14
ENDMDL
MODEL       76
REMARK 921   NORMALIZED FREE ENERGY PREDICTED BY IDOCK:   -5.27 KCAL/MOL
REMARK 922        TOTAL FREE ENERGY PREDICTED BY IDOCK:  -12.88 KCAL/MOL
REMARK 923 INTER-LIGAND FREE ENERGY PREDICTED BY IDOCK:  -10.31 KCAL/MOL
REMARK 924 INTRA-LIGAND FREE ENERGY PREDICTED BY IDOCK:   -2.57 KCAL/MOL
REMARK 927      BINDING AFFINITY PREDICTED BY RF-SCORE:    0.00 PKD
ROOT
HETATM    1  C   UNL     1     -10.708  17.898  67.780  1.00  0.00    -0.339 C  
HETATM    2  C   UNL     1      -9.743  18.802  67.021  1.00  0.00    -0.311 C  
HETATM    3  C   UNL     1     -10.501  19.762  66.114  1.00  0.00    -0.613 C  
ENDROOT
BRANCH   2   4
HETATM    4  O   UNL     1      -8.992  19.596  67.959  1.00  0.00    -0.313 OA 
BRANCH   4   5
HETATM    5  C   UNL     1      -7.640  19.581  67.779  1.00  0.00    -0.272 C  
HETATM    6  O   UNL     1      -7.014  20.347  67.056  1.00  0.00    -0.244 OA 
BRANCH   5   7
HETATM    7  C   UNL     1      -7.031  18.465  68.588  1.00  0.00    -0.281 C  
BRANCH   7   8
HETATM    8  C   UNL     1      -6.054  17.648  67.740  1.00  0.00    -0.158 C  
BRANCH   8   9
HETATM    9  C   UNL     1      -6.687  16.400  67.130  1.00  0.00    -0.239 C  
BRANCH   9  10
HETATM   10  C   UNL     1      -7.656  15.734  68.065  1.00  0.00    -0.134 C  
HETATM   11  C   UNL     1      -8.670  14.920  67.724  1.00  0.00    -0.168 C  
BRANCH  11  12
HETATM   12  C   UNL     1      -9.040  14.480  66.337  1.00  0.00    -0.217 C  
BRANCH  12  13
HETATM   13  C   UNL     1     -10.474  13.953  66.156  1.00  0.00    -0.297 C  
HETATM   14  C   UNL     1     -11.407  15.063  65.637  1.00  0.00    -0.297 C  
HETATM   15  C   UNL     1     -12.638  14.300  65.188  1.00  0.00    -0.384 C  
HETATM   16  O   UNL     1     -10.858  15.722  64.496  1.00  0.00    -0.760 OA 
HETATM   17  C   UNL     1     -12.055  13.076  64.488  1.00  0.00    -0.410 C  
HETATM   18  H   UNL     1     -11.433  16.407  64.176  1.00  0.00     0.000 HD 
HETATM   19  C   UNL     1     -10.653  12.827  65.106  1.00  0.00    -0.324 C  
HETATM   20  O   UNL     1     -11.907  13.333  63.093  1.00  0.00    -0.764 OA 
HETATM   21  H   UNL     1     -11.544  12.571  62.658  1.00  0.00     0.000 HD 
BRANCH  19  22
HETATM   22  C   UNL     1     -10.552  11.414  65.709  1.00  0.00    -0.315 C  
BRANCH  22  23
HETATM   23  C   UNL     1      -9.273  11.267  66.538  1.00  0.00    -0.200 C  
BRANCH  23  24
HETATM   24  C   UNL     1      -9.233  10.021  67.430  1.00  0.00    -0.137 C  
HETATM   25  O   UNL     1      -7.905   9.497  67.479  1.00  0.00    -0.101 OA 
HETATM   26  H   UNL     1      -7.880   8.725  68.032  1.00  0.00     0.000 HD 
BRANCH  24  27
HETATM   27  C   UNL     1      -9.643  10.351  68.874  1.00  0.00    -0.197 C  
BRANCH  27  28
HETATM   28  C   UNL     1     -11.128  10.106  69.141  1.00  0.00    -0.257 C  
BRANCH  28  29
HETATM   29  C   UNL     1     -11.758  11.224  69.925  1.00  0.00    -0.430 A  
HETATM   30  C   UNL     1     -11.565  12.555  69.529  1.00  0.00    -0.348 A  
HETATM   31  C   UNL     1     -12.150  13.596  70.248  1.00  0.00    -0.427 A  
HETATM   32  C   UNL     1     -12.928  13.316  71.369  1.00  0.00    -0.398 A  
HETATM   33  C   UNL     1     -13.118  11.996  71.776  1.00  0.00    -0.460 A  
HETATM   34  C   UNL     1     -12.533  10.952  71.057  1.00  0.00    -0.514 A  
ENDBRANCH  28  29
ENDBRANCH  27  28
ENDBRANCH  24  27
ENDBRANCH  23  24
ENDBRANCH  22  23
ENDBRANCH  19  22
ENDBRANCH  12  13
ENDBRANCH  11  12
ENDBRANCH   9  10
ENDBRANCH   8   9
ENDBRANCH   7   8
ENDBRANCH   5   7
ENDBRANCH   4   5
ENDBRANCH   2   4
TORSDOF 14
ENDMDL
MODEL       77
REMARK 921   NORMALIZED FREE ENERGY PREDICTED BY IDOCK:   -5.25 KCAL/MOL
REMARK 922        TOTAL FREE ENERGY PREDICTED BY IDOCK:  -12.85 KCAL/MOL
REMARK 923 INTER-LIGAND FREE ENERGY PREDICTED BY IDOCK:  -11.13 KCAL/MOL
REMARK 924 INTRA-LIGAND FREE ENERGY PREDICTED BY IDOCK:   -1.71 KCAL/MOL
REMARK 927      BINDING AFFINITY PREDICTED BY RF-SCORE:    0.00 PKD
ROOT
HETATM    1  C   UNL     1      -9.518   4.001  70.021  1.00  0.00    -0.260 C  
HETATM    2  C   UNL     1      -9.787   5.472  70.314  1.00  0.00    -0.198 C  
HETATM    3  C   UNL     1     -10.679   6.083  69.241  1.00  0.00    -0.401 C  
ENDROOT
BRANCH   2   4
HETATM    4  O   UNL     1     -10.478   5.592  71.571  1.00  0.00    -0.221 OA 
BRANCH   4   5
HETATM    5  C   UNL     1      -9.683   5.858  72.647  1.00  0.00    -0.153 C  
HETATM    6  O   UNL     1      -9.146   5.017  73.357  1.00  0.00    -0.121 OA 
BRANCH   5   7
HETATM    7  C   UNL     1      -9.581   7.349  72.846  1.00  0.00    -0.224 C  
BRANCH   7   8
HETATM    8  C   UNL     1     -10.964   8.001  72.794  1.00  0.00    -0.449 C  
BRANCH   8   9
HETATM    9  C   UNL     1     -11.016   9.227  71.886  1.00  0.00    -0.284 C  
BRANCH   9  10
HETATM   10  C   UNL     1     -12.342   9.371  71.194  1.00  0.00    -0.386 C  
HETATM   11  C   UNL     1     -13.161  10.435  71.244  1.00  0.00    -0.431 C  
BRANCH  11  12
HETATM   12  C   UNL     1     -12.919  11.722  71.979  1.00  0.00    -0.370 C  
BRANCH  12  13
HETATM   13  C   UNL     1     -13.321  13.009  71.239  1.00  0.00    -0.085 C  
HETATM   14  C   UNL     1     -13.918  14.040  72.215  1.00  0.00    -0.553 C  
HETATM   15  C   UNL     1     -13.915  15.324  71.407  1.00  0.00    -0.601 C  
HETATM   16  O   UNL     1     -13.079  14.236  73.353  1.00  0.00    -0.554 OA 
HETATM   17  C   UNL     1     -12.567  15.286  70.695  1.00  0.00    -0.417 C  
HETATM   18  H   UNL     1     -13.448  14.872  73.955  1.00  0.00     0.000 HD 
HETATM   19  C   UNL     1     -12.164  13.792  70.568  1.00  0.00    -0.440 C  
HETATM   20  O   UNL     1     -11.583  15.966  71.472  1.00  0.00    -0.405 OA 
HETATM   21  H   UNL     1     -10.743  15.942  71.028  1.00  0.00     0.000 HD 
BRANCH  19  22
HETATM   22  C   UNL     1     -11.940  13.398  69.096  1.00  0.00    -0.363 C  
BRANCH  22  23
HETATM   23  C   UNL     1     -11.923  14.638  68.198  1.00  0.00    -0.281 C  
BRANCH  23  24
HETATM   24  C   UNL     1     -11.466  14.374  66.758  1.00  0.00    -0.370 C  
HETATM   25  O   UNL     1     -12.579  13.978  65.957  1.00  0.00    -0.481 OA 
HETATM   26  H   UNL     1     -12.296  13.815  65.065  1.00  0.00     0.000 HD 
BRANCH  24  27
HETATM   27  C   UNL     1     -10.873  15.639  66.118  1.00  0.00    -0.264 C  
BRANCH  27  28
HETATM   28  C   UNL     1      -9.687  16.202  66.901  1.00  0.00    -0.246 C  
BRANCH  28  29
HETATM   29  C   UNL     1      -9.754  17.699  67.039  1.00  0.00    -0.292 A  
HETATM   30  C   UNL     1     -10.372  18.468  66.044  1.00  0.00    -0.423 A  
HETATM   31  C   UNL     1     -10.442  19.855  66.167  1.00  0.00    -0.581 A  
HETATM   32  C   UNL     1      -9.892  20.483  67.282  1.00  0.00    -0.581 A  
HETATM   33  C   UNL     1      -9.267  19.726  68.273  1.00  0.00    -0.388 A  
HETATM   34  C   UNL     1      -9.196  18.338  68.151  1.00  0.00    -0.313 A  
ENDBRANCH  28  29
ENDBRANCH  27  28
ENDBRANCH  24  27
ENDBRANCH  23  24
ENDBRANCH  22  23
ENDBRANCH  19  22
ENDBRANCH  12  13
ENDBRANCH  11  12
ENDBRANCH   9  10
ENDBRANCH   8   9
ENDBRANCH   7   8
ENDBRANCH   5   7
ENDBRANCH   4   5
ENDBRANCH   2   4
TORSDOF 14
ENDMDL
MODEL       78
REMARK 921   NORMALIZED FREE ENERGY PREDICTED BY IDOCK:   -5.25 KCAL/MOL
REMARK 922        TOTAL FREE ENERGY PREDICTED BY IDOCK:  -12.85 KCAL/MOL
REMARK 923 INTER-LIGAND FREE ENERGY PREDICTED BY IDOCK:  -10.12 KCAL/MOL
REMARK 924 INTRA-LIGAND FREE ENERGY PREDICTED BY IDOCK:   -2.73 KCAL/MOL
REMARK 927      BINDING AFFINITY PREDICTED BY RF-SCORE:    0.00 PKD
ROOT
HETATM    1  C   UNL     1     -12.016  11.792  69.979  1.00  0.00    -0.421 C  
HETATM    2  C   UNL     1     -12.676  11.374  71.288  1.00  0.00    -0.393 C  
HETATM    3  C   UNL     1     -13.419  12.545  71.917  1.00  0.00    -0.392 C  
ENDROOT
BRANCH   2   4
HETATM    4  O   UNL     1     -13.641  10.338  71.028  1.00  0.00    -0.236 OA 
BRANCH   4   5
HETATM    5  C   UNL     1     -13.558   9.249  71.847  1.00  0.00    -0.427 C  
HETATM    6  O   UNL     1     -14.239   9.062  72.847  1.00  0.00    -0.528 OA 
BRANCH   5   7
HETATM    7  C   UNL     1     -12.482   8.319  71.346  1.00  0.00    -0.315 C  
BRANCH   7   8
HETATM    8  C   UNL     1     -11.165   8.564  72.084  1.00  0.00    -0.432 C  
BRANCH   8   9
HETATM    9  C   UNL     1     -10.039   9.031  71.164  1.00  0.00    -0.365 C  
BRANCH   9  10
HETATM   10  C   UNL     1      -9.474   7.911  70.337  1.00  0.00    -0.163 C  
HETATM   11  C   UNL     1      -9.623   7.738  69.012  1.00  0.00    -0.155 C  
BRANCH  11  12
HETATM   12  C   UNL     1     -10.365   8.639  68.067  1.00  0.00    -0.277 C  
BRANCH  12  13
HETATM   13  C   UNL     1      -9.497   9.535  67.167  1.00  0.00    -0.187 C  
HETATM   14  C   UNL     1      -8.488   8.693  66.363  1.00  0.00    -0.112 C  
HETATM   15  C   UNL     1      -7.993   9.662  65.306  1.00  0.00    -0.115 C  
HETATM   16  O   UNL     1      -9.124   7.603  65.695  1.00  0.00    -0.374 OA 
HETATM   17  C   UNL     1      -9.264  10.383  64.870  1.00  0.00    -0.221 C  
HETATM   18  H   UNL     1      -8.502   7.084  65.200  1.00  0.00     0.000 HD 
HETATM   19  C   UNL     1     -10.252  10.320  66.065  1.00  0.00    -0.298 C  
HETATM   20  O   UNL     1      -9.846   9.718  63.752  1.00  0.00    -0.466 OA 
HETATM   21  H   UNL     1     -10.638  10.168  63.481  1.00  0.00     0.000 HD 
BRANCH  19  22
HETATM   22  C   UNL     1     -10.678  11.731  66.512  1.00  0.00    -0.304 C  
BRANCH  22  23
HETATM   23  C   UNL     1     -11.722  12.313  65.554  1.00  0.00    -0.433 C  
BRANCH  23  24
HETATM   24  C   UNL     1     -11.156  13.279  64.507  1.00  0.00    -0.372 C  
HETATM   25  O   UNL     1     -11.558  12.873  63.199  1.00  0.00    -0.796 OA 
HETATM   26  H   UNL     1     -11.207  13.472  62.550  1.00  0.00     0.000 HD 
BRANCH  24  27
HETATM   27  C   UNL     1     -11.681  14.707  64.720  1.00  0.00    -0.429 C  
BRANCH  27  28
HETATM   28  C   UNL     1     -10.645  15.632  65.359  1.00  0.00    -0.436 C  
BRANCH  28  29
HETATM   29  C   UNL     1     -10.592  15.481  66.855  1.00  0.00    -0.307 A  
HETATM   30  C   UNL     1     -11.779  15.375  67.593  1.00  0.00    -0.122 A  
HETATM   31  C   UNL     1     -11.738  15.230  68.978  1.00  0.00    -0.368 A  
HETATM   32  C   UNL     1     -10.511  15.195  69.638  1.00  0.00    -0.261 A  
HETATM   33  C   UNL     1      -9.325  15.310  68.913  1.00  0.00    -0.213 A  
HETATM   34  C   UNL     1      -9.365  15.455  67.526  1.00  0.00    -0.204 A  
ENDBRANCH  28  29
ENDBRANCH  27  28
ENDBRANCH  24  27
ENDBRANCH  23  24
ENDBRANCH  22  23
ENDBRANCH  19  22
ENDBRANCH  12  13
ENDBRANCH  11  12
ENDBRANCH   9  10
ENDBRANCH   8   9
ENDBRANCH   7   8
ENDBRANCH   5   7
ENDBRANCH   4   5
ENDBRANCH   2   4
TORSDOF 14
ENDMDL
MODEL       79
REMARK 921   NORMALIZED FREE ENERGY PREDICTED BY IDOCK:   -5.23 KCAL/MOL
REMARK 922        TOTAL FREE ENERGY PREDICTED BY IDOCK:  -12.80 KCAL/MOL
REMARK 923 INTER-LIGAND FREE ENERGY PREDICTED BY IDOCK:   -9.24 KCAL/MOL
REMARK 924 INTRA-LIGAND FREE ENERGY PREDICTED BY IDOCK:   -3.56 KCAL/MOL
REMARK 927      BINDING AFFINITY PREDICTED BY RF-SCORE:    0.00 PKD
ROOT
HETATM    1  C   UNL     1      -9.427   5.916  71.071  1.00  0.00    -0.189 C  
HETATM    2  C   UNL     1     -10.197   6.962  70.272  1.00  0.00    -0.192 C  
HETATM    3  C   UNL     1     -11.215   6.299  69.353  1.00  0.00    -0.489 C  
ENDROOT
BRANCH   2   4
HETATM    4  O   UNL     1     -10.921   7.817  71.175  1.00  0.00    -0.234 OA 
BRANCH   4   5
HETATM    5  C   UNL     1     -10.519   9.121  71.187  1.00  0.00    -0.315 C  
HETATM    6  O   UNL     1      -9.380   9.508  71.419  1.00  0.00    -0.224 OA 
BRANCH   5   7
HETATM    7  C   UNL     1     -11.694  10.018  70.895  1.00  0.00    -0.462 C  
BRANCH   7   8
HETATM    8  C   UNL     1     -11.613  10.574  69.472  1.00  0.00    -0.332 C  
BRANCH   8   9
HETATM    9  C   UNL     1     -10.975  11.959  69.404  1.00  0.00    -0.156 C  
BRANCH   9  10
HETATM   10  C   UNL     1     -11.991  13.049  69.211  1.00  0.00    -0.331 C  
HETATM   11  C   UNL     1     -12.120  13.845  68.135  1.00  0.00    -0.317 C  
BRANCH  11  12
HETATM   12  C   UNL     1     -11.294  13.801  66.882  1.00  0.00    -0.345 C  
BRANCH  12  13
HETATM   13  C   UNL     1     -11.557  12.614  65.940  1.00  0.00    -0.443 C  
HETATM   14  C   UNL     1     -12.351  13.062  64.699  1.00  0.00    -0.422 C  
HETATM   15  C   UNL     1     -12.203  11.887  63.751  1.00  0.00    -0.549 C  
HETATM   16  O   UNL     1     -11.758  14.203  64.079  1.00  0.00    -0.624 OA 
HETATM   17  C   UNL     1     -10.739  11.490  63.912  1.00  0.00    -0.395 C  
HETATM   18  H   UNL     1     -12.248  14.480  63.313  1.00  0.00     0.000 HD 
HETATM   19  C   UNL     1     -10.300  11.944  65.329  1.00  0.00    -0.316 C  
HETATM   20  O   UNL     1      -9.939  12.162  62.941  1.00  0.00    -0.446 OA 
HETATM   21  H   UNL     1      -9.028  11.914  63.042  1.00  0.00     0.000 HD 
BRANCH  19  22
HETATM   22  C   UNL     1      -9.781  10.756  66.161  1.00  0.00    -0.253 C  
BRANCH  22  23
HETATM   23  C   UNL     1      -8.323  10.445  65.813  1.00  0.00    -0.158 C  
BRANCH  23  24
HETATM   24  C   UNL     1      -7.298  11.023  66.795  1.00  0.00    -0.139 C  
HETATM   25  O   UNL     1      -6.290  11.742  66.082  1.00  0.00    -0.434 OA 
HETATM   26  H   UNL     1      -5.655  12.101  66.690  1.00  0.00     0.000 HD 
BRANCH  24  27
HETATM   27  C   UNL     1      -7.953  12.011  67.772  1.00  0.00    -0.147 C  
BRANCH  27  28
HETATM   28  C   UNL     1      -7.116  13.270  67.997  1.00  0.00    -0.122 C  
BRANCH  28  29
HETATM   29  C   UNL     1      -7.955  14.519  67.994  1.00  0.00    -0.136 A  
HETATM   30  C   UNL     1      -8.018  15.320  66.846  1.00  0.00    -0.194 A  
HETATM   31  C   UNL     1      -8.797  16.476  66.835  1.00  0.00    -0.233 A  
HETATM   32  C   UNL     1      -9.513  16.843  67.972  1.00  0.00    -0.243 A  
HETATM   33  C   UNL     1      -9.449  16.057  69.122  1.00  0.00    -0.253 A  
HETATM   34  C   UNL     1      -8.670  14.899  69.135  1.00  0.00    -0.149 A  
ENDBRANCH  28  29
ENDBRANCH  27  28
ENDBRANCH  24  27
ENDBRANCH  23  24
ENDBRANCH  22  23
ENDBRANCH  19  22
ENDBRANCH  12  13
ENDBRANCH  11  12
ENDBRANCH   9  10
ENDBRANCH   8   9
ENDBRANCH   7   8
ENDBRANCH   5   7
ENDBRANCH   4   5
ENDBRANCH   2   4
TORSDOF 14
ENDMDL
MODEL       80
REMARK 921   NORMALIZED FREE ENERGY PREDICTED BY IDOCK:   -5.22 KCAL/MOL
REMARK 922        TOTAL FREE ENERGY PREDICTED BY IDOCK:  -12.79 KCAL/MOL
REMARK 923 INTER-LIGAND FREE ENERGY PREDICTED BY IDOCK:  -10.02 KCAL/MOL
REMARK 924 INTRA-LIGAND FREE ENERGY PREDICTED BY IDOCK:   -2.77 KCAL/MOL
REMARK 927      BINDING AFFINITY PREDICTED BY RF-SCORE:    0.00 PKD
ROOT
HETATM    1  C   UNL     1     -13.063  10.123  71.023  1.00  0.00    -0.458 C  
HETATM    2  C   UNL     1     -11.976   9.069  71.196  1.00  0.00    -0.298 C  
HETATM    3  C   UNL     1     -10.592   9.692  71.063  1.00  0.00    -0.362 C  
ENDROOT
BRANCH   2   4
HETATM    4  O   UNL     1     -12.068   8.496  72.513  1.00  0.00    -0.389 OA 
BRANCH   4   5
HETATM    5  C   UNL     1     -11.453   7.288  72.665  1.00  0.00    -0.261 C  
HETATM    6  O   UNL     1     -10.727   6.975  73.601  1.00  0.00    -0.362 OA 
BRANCH   5   7
HETATM    7  C   UNL     1     -11.782   6.400  71.492  1.00  0.00    -0.369 C  
BRANCH   7   8
HETATM    8  C   UNL     1     -10.625   5.444  71.191  1.00  0.00    -0.276 C  
BRANCH   8   9
HETATM    9  C   UNL     1     -10.139   5.526  69.746  1.00  0.00    -0.302 C  
BRANCH   9  10
HETATM   10  C   UNL     1     -11.061   6.334  68.877  1.00  0.00    -0.434 C  
HETATM   11  C   UNL     1     -10.702   7.235  67.947  1.00  0.00    -0.239 C  
BRANCH  11  12
HETATM   12  C   UNL     1      -9.302   7.613  67.556  1.00  0.00    -0.159 C  
BRANCH  12  13
HETATM   13  C   UNL     1      -8.940   9.101  67.696  1.00  0.00    -0.130 C  
HETATM   14  C   UNL     1      -7.478   9.271  68.150  1.00  0.00    -0.083 C  
HETATM   15  C   UNL     1      -7.202  10.739  67.888  1.00  0.00    -0.087 C  
HETATM   16  O   UNL     1      -6.583   8.506  67.341  1.00  0.00    -0.057 OA 
HETATM   17  C   UNL     1      -7.864  10.984  66.536  1.00  0.00    -0.155 C  
HETATM   18  H   UNL     1      -5.681   8.610  67.622  1.00  0.00     0.000 HD 
HETATM   19  C   UNL     1      -9.000   9.937  66.392  1.00  0.00    -0.169 C  
HETATM   20  O   UNL     1      -6.919  10.789  65.486  1.00  0.00    -0.313 OA 
HETATM   21  H   UNL     1      -7.332  10.942  64.643  1.00  0.00     0.000 HD 
BRANCH  19  22
HETATM   22  C   UNL     1     -10.364  10.620  66.173  1.00  0.00    -0.291 C  
BRANCH  22  23
HETATM   23  C   UNL     1     -10.954  11.094  67.504  1.00  0.00    -0.331 C  
BRANCH  23  24
HETATM   24  C   UNL     1     -11.094  12.615  67.632  1.00  0.00    -0.263 C  
HETATM   25  O   UNL     1     -11.739  13.145  66.473  1.00  0.00    -0.345 OA 
HETATM   26  H   UNL     1     -11.826  14.087  66.552  1.00  0.00     0.000 HD 
BRANCH  24  27
HETATM   27  C   UNL     1     -11.955  12.999  68.845  1.00  0.00    -0.303 C  
BRANCH  27  28
HETATM   28  C   UNL     1     -11.766  14.455  69.272  1.00  0.00    -0.358 C  
BRANCH  28  29
HETATM   29  C   UNL     1     -12.209  14.695  70.689  1.00  0.00    -0.394 A  
HETATM   30  C   UNL     1     -11.778  15.839  71.375  1.00  0.00    -0.508 A  
HETATM   31  C   UNL     1     -12.189  16.071  72.687  1.00  0.00    -0.619 A  
HETATM   32  C   UNL     1     -13.027  15.159  73.325  1.00  0.00    -0.645 A  
HETATM   33  C   UNL     1     -13.452  14.013  72.654  1.00  0.00    -0.650 A  
HETATM   34  C   UNL     1     -13.042  13.780  71.340  1.00  0.00    -0.413 A  
ENDBRANCH  28  29
ENDBRANCH  27  28
ENDBRANCH  24  27
ENDBRANCH  23  24
ENDBRANCH  22  23
ENDBRANCH  19  22
ENDBRANCH  12  13
ENDBRANCH  11  12
ENDBRANCH   9  10
ENDBRANCH   8   9
ENDBRANCH   7   8
ENDBRANCH   5   7
ENDBRANCH   4   5
ENDBRANCH   2   4
TORSDOF 14
ENDMDL
MODEL       81
REMARK 921   NORMALIZED FREE ENERGY PREDICTED BY IDOCK:   -5.20 KCAL/MOL
REMARK 922        TOTAL FREE ENERGY PREDICTED BY IDOCK:  -12.75 KCAL/MOL
REMARK 923 INTER-LIGAND FREE ENERGY PREDICTED BY IDOCK:   -9.62 KCAL/MOL
REMARK 924 INTRA-LIGAND FREE ENERGY PREDICTED BY IDOCK:   -3.13 KCAL/MOL
REMARK 927      BINDING AFFINITY PREDICTED BY RF-SCORE:    0.00 PKD
ROOT
HETATM    1  C   UNL     1     -13.217   9.696  71.670  1.00  0.00    -0.499 C  
HETATM    2  C   UNL     1     -12.574   8.335  71.910  1.00  0.00    -0.344 C  
HETATM    3  C   UNL     1     -13.607   7.221  71.794  1.00  0.00    -0.386 C  
ENDROOT
BRANCH   2   4
HETATM    4  O   UNL     1     -11.567   8.097  70.908  1.00  0.00    -0.282 OA 
BRANCH   4   5
HETATM    5  C   UNL     1     -10.406   7.551  71.372  1.00  0.00    -0.194 C  
HETATM    6  O   UNL     1     -10.128   6.358  71.352  1.00  0.00    -0.188 OA 
BRANCH   5   7
HETATM    7  C   UNL     1      -9.523   8.635  71.934  1.00  0.00    -0.369 C  
BRANCH   7   8
HETATM    8  C   UNL     1      -8.900   9.467  70.811  1.00  0.00    -0.233 C  
BRANCH   8   9
HETATM    9  C   UNL     1      -7.475   9.041  70.467  1.00  0.00    -0.099 C  
BRANCH   9  10
HETATM   10  C   UNL     1      -7.020   9.582  69.141  1.00  0.00    -0.057 C  
HETATM   11  C   UNL     1      -6.931   8.903  67.985  1.00  0.00    -0.078 C  
BRANCH  11  12
HETATM   12  C   UNL     1      -7.291   7.462  67.760  1.00  0.00    -0.092 C  
BRANCH  12  13
HETATM   13  C   UNL     1      -8.620   7.204  67.028  1.00  0.00    -0.122 C  
HETATM   14  C   UNL     1      -8.941   5.699  66.986  1.00  0.00    -0.114 C  
HETATM   15  C   UNL     1     -10.399   5.667  66.571  1.00  0.00    -0.287 C  
HETATM   16  O   UNL     1      -8.840   5.102  68.279  1.00  0.00    -0.102 OA 
HETATM   17  C   UNL     1     -11.019   6.799  67.384  1.00  0.00    -0.337 C  
HETATM   18  H   UNL     1      -9.038   4.173  68.253  1.00  0.00     0.000 HD 
HETATM   19  C   UNL     1      -9.884   7.813  67.687  1.00  0.00    -0.208 C  
HETATM   20  O   UNL     1     -11.529   6.295  68.617  1.00  0.00    -0.503 OA 
HETATM   21  H   UNL     1     -11.915   7.000  69.123  1.00  0.00     0.000 HD 
BRANCH  19  22
HETATM   22  C   UNL     1     -10.230   9.215  67.150  1.00  0.00    -0.329 C  
BRANCH  22  23
HETATM   23  C   UNL     1     -11.210   9.928  68.086  1.00  0.00    -0.142 C  
BRANCH  23  24
HETATM   24  C   UNL     1     -11.094  11.457  68.083  1.00  0.00    -0.248 C  
HETATM   25  O   UNL     1     -11.788  11.997  66.958  1.00  0.00    -0.573 OA 
HETATM   26  H   UNL     1     -11.717  12.944  66.957  1.00  0.00     0.000 HD 
BRANCH  24  27
HETATM   27  C   UNL     1     -11.725  12.069  69.343  1.00  0.00    -0.402 C  
BRANCH  27  28
HETATM   28  C   UNL     1     -11.643  13.595  69.367  1.00  0.00    -0.368 C  
BRANCH  28  29
HETATM   29  C   UNL     1     -12.202  14.176  70.638  1.00  0.00    -0.432 A  
HETATM   30  C   UNL     1     -13.129  13.446  71.395  1.00  0.00    -0.373 A  
HETATM   31  C   UNL     1     -13.647  13.976  72.576  1.00  0.00    -0.670 A  
HETATM   32  C   UNL     1     -13.247  15.239  73.006  1.00  0.00    -0.617 A  
HETATM   33  C   UNL     1     -12.333  15.976  72.254  1.00  0.00    -0.570 A  
HETATM   34  C   UNL     1     -11.813  15.447  71.072  1.00  0.00    -0.406 A  
ENDBRANCH  28  29
ENDBRANCH  27  28
ENDBRANCH  24  27
ENDBRANCH  23  24
ENDBRANCH  22  23
ENDBRANCH  19  22
ENDBRANCH  12  13
ENDBRANCH  11  12
ENDBRANCH   9  10
ENDBRANCH   8   9
ENDBRANCH   7   8
ENDBRANCH   5   7
ENDBRANCH   4   5
ENDBRANCH   2   4
TORSDOF 14
ENDMDL
MODEL       82
REMARK 921   NORMALIZED FREE ENERGY PREDICTED BY IDOCK:   -5.20 KCAL/MOL
REMARK 922        TOTAL FREE ENERGY PREDICTED BY IDOCK:  -12.75 KCAL/MOL
REMARK 923 INTER-LIGAND FREE ENERGY PREDICTED BY IDOCK:   -9.50 KCAL/MOL
REMARK 924 INTRA-LIGAND FREE ENERGY PREDICTED BY IDOCK:   -3.26 KCAL/MOL
REMARK 927      BINDING AFFINITY PREDICTED BY RF-SCORE:    0.00 PKD
ROOT
HETATM    1  C   UNL     1      -9.048   9.761  62.740  1.00  0.00    -0.286 C  
HETATM    2  C   UNL     1      -8.387   9.203  63.995  1.00  0.00    -0.180 C  
HETATM    3  C   UNL     1      -7.252  10.108  64.457  1.00  0.00    -0.119 C  
ENDROOT
BRANCH   2   4
HETATM    4  O   UNL     1      -9.354   9.144  65.060  1.00  0.00    -0.195 OA 
BRANCH   4   5
HETATM    5  C   UNL     1      -9.235   8.070  65.894  1.00  0.00    -0.067 C  
HETATM    6  O   UNL     1      -8.423   7.163  65.767  1.00  0.00    -0.141 OA 
BRANCH   5   7
HETATM    7  C   UNL     1     -10.271   8.157  66.985  1.00  0.00    -0.378 C  
BRANCH   7   8
HETATM    8  C   UNL     1      -9.977   9.330  67.923  1.00  0.00    -0.228 C  
BRANCH   8   9
HETATM    9  C   UNL     1      -8.491   9.663  68.020  1.00  0.00    -0.118 C  
BRANCH   9  10
HETATM   10  C   UNL     1      -8.247  11.028  68.599  1.00  0.00    -0.151 C  
HETATM   11  C   UNL     1      -8.440  12.207  67.984  1.00  0.00    -0.170 C  
BRANCH  11  12
HETATM   12  C   UNL     1      -8.965  12.418  66.593  1.00  0.00    -0.184 C  
BRANCH  12  13
HETATM   13  C   UNL     1     -10.168  13.369  66.462  1.00  0.00    -0.282 C  
HETATM   14  C   UNL     1     -10.286  13.911  65.026  1.00  0.00    -0.396 C  
HETATM   15  C   UNL     1     -11.679  14.511  64.996  1.00  0.00    -0.392 C  
HETATM   16  O   UNL     1     -10.241  12.860  64.060  1.00  0.00    -0.523 OA 
HETATM   17  C   UNL     1     -12.518  13.485  65.749  1.00  0.00    -0.462 C  
HETATM   18  H   UNL     1     -10.313  13.194  63.174  1.00  0.00     0.000 HD 
HETATM   19  C   UNL     1     -11.560  12.736  66.713  1.00  0.00    -0.431 C  
HETATM   20  O   UNL     1     -13.082  12.547  64.835  1.00  0.00    -0.833 OA 
HETATM   21  H   UNL     1     -13.605  11.907  65.305  1.00  0.00     0.000 HD 
BRANCH  19  22
HETATM   22  C   UNL     1     -12.028  12.862  68.175  1.00  0.00    -0.306 C  
BRANCH  22  23
HETATM   23  C   UNL     1     -12.016  11.497  68.869  1.00  0.00    -0.364 C  
BRANCH  23  24
HETATM   24  C   UNL     1     -12.047  11.563  70.401  1.00  0.00    -0.382 C  
HETATM   25  O   UNL     1     -12.501  12.848  70.826  1.00  0.00    -0.349 OA 
HETATM   26  H   UNL     1     -12.520  12.889  71.774  1.00  0.00     0.000 HD 
BRANCH  24  27
HETATM   27  C   UNL     1     -13.015  10.524  70.986  1.00  0.00    -0.475 C  
BRANCH  27  28
HETATM   28  C   UNL     1     -12.388   9.690  72.104  1.00  0.00    -0.290 C  
BRANCH  28  29
HETATM   29  C   UNL     1     -11.444   8.645  71.573  1.00  0.00    -0.363 A  
HETATM   30  C   UNL     1     -10.059   8.830  71.683  1.00  0.00    -0.390 A  
HETATM   31  C   UNL     1      -9.178   7.864  71.198  1.00  0.00    -0.165 A  
HETATM   32  C   UNL     1      -9.674   6.710  70.596  1.00  0.00    -0.183 A  
HETATM   33  C   UNL     1     -11.050   6.522  70.474  1.00  0.00    -0.375 A  
HETATM   34  C   UNL     1     -11.933   7.488  70.959  1.00  0.00    -0.317 A  
ENDBRANCH  28  29
ENDBRANCH  27  28
ENDBRANCH  24  27
ENDBRANCH  23  24
ENDBRANCH  22  23
ENDBRANCH  19  22
ENDBRANCH  12  13
ENDBRANCH  11  12
ENDBRANCH   9  10
ENDBRANCH   8   9
ENDBRANCH   7   8
ENDBRANCH   5   7
ENDBRANCH   4   5
ENDBRANCH   2   4
TORSDOF 14
ENDMDL
MODEL       83
REMARK 921   NORMALIZED FREE ENERGY PREDICTED BY IDOCK:   -5.20 KCAL/MOL
REMARK 922        TOTAL FREE ENERGY PREDICTED BY IDOCK:  -12.74 KCAL/MOL
REMARK 923 INTER-LIGAND FREE ENERGY PREDICTED BY IDOCK:   -9.81 KCAL/MOL
REMARK 924 INTRA-LIGAND FREE ENERGY PREDICTED BY IDOCK:   -2.93 KCAL/MOL
REMARK 927      BINDING AFFINITY PREDICTED BY RF-SCORE:    0.00 PKD
ROOT
HETATM    1  C   UNL     1      -9.297  11.470  67.401  1.00  0.00    -0.168 C  
HETATM    2  C   UNL     1      -8.692  11.240  68.782  1.00  0.00    -0.103 C  
HETATM    3  C   UNL     1      -9.373  10.072  69.482  1.00  0.00    -0.247 C  
ENDROOT
BRANCH   2   4
HETATM    4  O   UNL     1      -7.298  10.911  68.645  1.00  0.00    -0.086 OA 
BRANCH   4   5
HETATM    5  C   UNL     1      -6.485  11.413  69.619  1.00  0.00    -0.133 C  
HETATM    6  O   UNL     1      -6.345  10.938  70.739  1.00  0.00    -0.346 OA 
BRANCH   5   7
HETATM    7  C   UNL     1      -5.800  12.659  69.117  1.00  0.00    -0.080 C  
BRANCH   7   8
HETATM    8  C   UNL     1      -6.242  13.884  69.920  1.00  0.00    -0.136 C  
BRANCH   8   9
HETATM    9  C   UNL     1      -7.368  14.667  69.249  1.00  0.00    -0.149 C  
BRANCH   9  10
HETATM   10  C   UNL     1      -7.111  14.903  67.788  1.00  0.00    -0.192 C  
HETATM   11  C   UNL     1      -7.042  16.092  67.167  1.00  0.00    -0.253 C  
BRANCH  11  12
HETATM   12  C   UNL     1      -7.183  17.446  67.802  1.00  0.00    -0.177 C  
BRANCH  12  13
HETATM   13  C   UNL     1      -8.616  17.992  67.918  1.00  0.00    -0.258 C  
HETATM   14  C   UNL     1      -8.610  19.452  68.407  1.00  0.00    -0.360 C  
HETATM   15  C   UNL     1     -10.024  19.920  68.120  1.00  0.00    -0.551 C  
HETATM   16  O   UNL     1      -7.717  20.261  67.642  1.00  0.00    -0.296 OA 
HETATM   17  C   UNL     1     -10.315  19.328  66.745  1.00  0.00    -0.432 C  
HETATM   18  H   UNL     1      -7.713  21.162  67.944  1.00  0.00     0.000 HD 
HETATM   19  C   UNL     1      -9.418  18.071  66.594  1.00  0.00    -0.300 C  
HETATM   20  O   UNL     1      -9.974  20.265  65.725  1.00  0.00    -0.599 OA 
HETATM   21  H   UNL     1     -10.156  19.896  64.869  1.00  0.00     0.000 HD 
BRANCH  19  22
HETATM   22  C   UNL     1     -10.263  16.812  66.322  1.00  0.00    -0.341 C  
BRANCH  22  23
HETATM   23  C   UNL     1     -10.885  16.285  67.618  1.00  0.00    -0.293 C  
BRANCH  23  24
HETATM   24  C   UNL     1     -11.769  15.044  67.441  1.00  0.00    -0.239 C  
HETATM   25  O   UNL     1     -11.314  14.276  66.326  1.00  0.00    -0.330 OA 
HETATM   26  H   UNL     1     -11.861  13.507  66.217  1.00  0.00     0.000 HD 
BRANCH  24  27
HETATM   27  C   UNL     1     -11.708  14.132  68.675  1.00  0.00    -0.385 C  
BRANCH  27  28
HETATM   28  C   UNL     1     -10.944  14.760  69.841  1.00  0.00    -0.229 C  
BRANCH  28  29
HETATM   29  C   UNL     1     -11.854  15.153  70.973  1.00  0.00    -0.382 A  
HETATM   30  C   UNL     1     -11.312  15.573  72.196  1.00  0.00    -0.428 A  
HETATM   31  C   UNL     1     -12.149  15.944  73.247  1.00  0.00    -0.601 A  
HETATM   32  C   UNL     1     -13.532  15.893  73.086  1.00  0.00    -0.650 A  
HETATM   33  C   UNL     1     -14.079  15.467  71.877  1.00  0.00    -0.636 A  
HETATM   34  C   UNL     1     -13.243  15.096  70.823  1.00  0.00    -0.433 A  
ENDBRANCH  28  29
ENDBRANCH  27  28
ENDBRANCH  24  27
ENDBRANCH  23  24
ENDBRANCH  22  23
ENDBRANCH  19  22
ENDBRANCH  12  13
ENDBRANCH  11  12
ENDBRANCH   9  10
ENDBRANCH   8   9
ENDBRANCH   7   8
ENDBRANCH   5   7
ENDBRANCH   4   5
ENDBRANCH   2   4
TORSDOF 14
ENDMDL
MODEL       84
REMARK 921   NORMALIZED FREE ENERGY PREDICTED BY IDOCK:   -5.19 KCAL/MOL
REMARK 922        TOTAL FREE ENERGY PREDICTED BY IDOCK:  -12.74 KCAL/MOL
REMARK 923 INTER-LIGAND FREE ENERGY PREDICTED BY IDOCK:  -11.25 KCAL/MOL
REMARK 924 INTRA-LIGAND FREE ENERGY PREDICTED BY IDOCK:   -1.49 KCAL/MOL
REMARK 927      BINDING AFFINITY PREDICTED BY RF-SCORE:    0.00 PKD
ROOT
HETATM    1  C   UNL     1      -9.009   4.699  69.034  1.00  0.00    -0.149 C  
HETATM    2  C   UNL     1      -9.506   6.130  68.859  1.00  0.00    -0.123 C  
HETATM    3  C   UNL     1     -10.647   6.187  67.851  1.00  0.00    -0.331 C  
ENDROOT
BRANCH   2   4
HETATM    4  O   UNL     1     -10.014   6.618  70.115  1.00  0.00    -0.172 OA 
BRANCH   4   5
HETATM    5  C   UNL     1      -9.212   7.518  70.754  1.00  0.00    -0.158 C  
HETATM    6  O   UNL     1      -8.012   7.663  70.556  1.00  0.00    -0.097 OA 
BRANCH   5   7
HETATM    7  C   UNL     1     -10.021   8.295  71.760  1.00  0.00    -0.284 C  
BRANCH   7   8
HETATM    8  C   UNL     1     -11.125   9.097  71.068  1.00  0.00    -0.374 C  
BRANCH   8   9
HETATM    9  C   UNL     1     -10.590  10.091  70.040  1.00  0.00    -0.344 C  
BRANCH   9  10
HETATM   10  C   UNL     1     -11.687  10.720  69.228  1.00  0.00    -0.374 C  
HETATM   11  C   UNL     1     -11.643  11.024  67.920  1.00  0.00    -0.306 C  
BRANCH  11  12
HETATM   12  C   UNL     1     -10.499  10.779  66.979  1.00  0.00    -0.297 C  
BRANCH  12  13
HETATM   13  C   UNL     1     -10.391  11.740  65.782  1.00  0.00    -0.293 C  
HETATM   14  C   UNL     1      -9.618  11.086  64.621  1.00  0.00    -0.254 C  
HETATM   15  C   UNL     1      -9.918  12.000  63.448  1.00  0.00    -0.384 C  
HETATM   16  O   UNL     1     -10.131   9.790  64.310  1.00  0.00    -0.407 OA 
HETATM   17  C   UNL     1     -11.403  12.306  63.613  1.00  0.00    -0.470 C  
HETATM   18  H   UNL     1      -9.654   9.387  63.594  1.00  0.00     0.000 HD 
HETATM   19  C   UNL     1     -11.732  12.150  65.122  1.00  0.00    -0.366 C  
HETATM   20  O   UNL     1     -12.182  11.370  62.871  1.00  0.00    -0.940 OA 
HETATM   21  H   UNL     1     -13.106  11.561  62.974  1.00  0.00     0.000 HD 
BRANCH  19  22
HETATM   22  C   UNL     1     -12.318  13.451  65.702  1.00  0.00    -0.521 C  
BRANCH  22  23
HETATM   23  C   UNL     1     -12.385  14.542  64.630  1.00  0.00    -0.419 C  
BRANCH  23  24
HETATM   24  C   UNL     1     -11.159  15.463  64.583  1.00  0.00    -0.347 C  
HETATM   25  O   UNL     1     -11.483  16.673  63.898  1.00  0.00    -1.604 OA 
HETATM   26  H   UNL     1     -10.724  17.243  63.869  1.00  0.00     0.000 HD 
BRANCH  24  27
HETATM   27  C   UNL     1     -10.695  15.850  65.995  1.00  0.00    -0.289 C  
BRANCH  27  28
HETATM   28  C   UNL     1     -10.562  17.361  66.183  1.00  0.00    -0.208 C  
BRANCH  28  29
HETATM   29  C   UNL     1      -9.276  17.740  66.865  1.00  0.00    -0.263 A  
HETATM   30  C   UNL     1      -8.087  17.073  66.540  1.00  0.00    -0.320 A  
HETATM   31  C   UNL     1      -6.890  17.422  67.163  1.00  0.00    -0.205 A  
HETATM   32  C   UNL     1      -6.873  18.435  68.120  1.00  0.00    -0.234 A  
HETATM   33  C   UNL     1      -8.053  19.097  68.457  1.00  0.00    -0.394 A  
HETATM   34  C   UNL     1      -9.252  18.749  67.833  1.00  0.00    -0.324 A  
ENDBRANCH  28  29
ENDBRANCH  27  28
ENDBRANCH  24  27
ENDBRANCH  23  24
ENDBRANCH  22  23
ENDBRANCH  19  22
ENDBRANCH  12  13
ENDBRANCH  11  12
ENDBRANCH   9  10
ENDBRANCH   8   9
ENDBRANCH   7   8
ENDBRANCH   5   7
ENDBRANCH   4   5
ENDBRANCH   2   4
TORSDOF 14
ENDMDL
MODEL       85
REMARK 921   NORMALIZED FREE ENERGY PREDICTED BY IDOCK:   -5.17 KCAL/MOL
REMARK 922        TOTAL FREE ENERGY PREDICTED BY IDOCK:  -12.70 KCAL/MOL
REMARK 923 INTER-LIGAND FREE ENERGY PREDICTED BY IDOCK:  -10.16 KCAL/MOL
REMARK 924 INTRA-LIGAND FREE ENERGY PREDICTED BY IDOCK:   -2.55 KCAL/MOL
REMARK 927      BINDING AFFINITY PREDICTED BY RF-SCORE:    0.00 PKD
ROOT
HETATM    1  C   UNL     1      -8.119   4.423  67.203  1.00  0.00    -0.101 C  
HETATM    2  C   UNL     1      -9.197   4.978  66.279  1.00  0.00    -0.144 C  
HETATM    3  C   UNL     1      -9.372   4.088  65.056  1.00  0.00    -0.163 C  
ENDROOT
BRANCH   2   4
HETATM    4  O   UNL     1     -10.456   5.009  66.976  1.00  0.00    -0.211 OA 
BRANCH   4   5
HETATM    5  C   UNL     1     -10.572   5.986  67.922  1.00  0.00    -0.267 C  
HETATM    6  O   UNL     1     -10.761   5.795  69.117  1.00  0.00    -0.281 OA 
BRANCH   5   7
HETATM    7  C   UNL     1     -10.454   7.340  67.271  1.00  0.00    -0.380 C  
BRANCH   7   8
HETATM    8  C   UNL     1      -9.625   8.290  68.136  1.00  0.00    -0.163 C  
BRANCH   8   9
HETATM    9  C   UNL     1     -10.062   9.748  68.017  1.00  0.00    -0.204 C  
BRANCH   9  10
HETATM   10  C   UNL     1      -9.042  10.699  68.575  1.00  0.00    -0.159 C  
HETATM   11  C   UNL     1      -8.568  11.807  67.981  1.00  0.00    -0.158 C  
BRANCH  11  12
HETATM   12  C   UNL     1      -8.974  12.351  66.641  1.00  0.00    -0.184 C  
BRANCH  12  13
HETATM   13  C   UNL     1      -9.990  13.505  66.660  1.00  0.00    -0.282 C  
HETATM   14  C   UNL     1      -9.947  14.297  65.340  1.00  0.00    -0.303 C  
HETATM   15  C   UNL     1     -11.215  15.128  65.393  1.00  0.00    -0.338 C  
HETATM   16  O   UNL     1     -10.034  13.435  64.205  1.00  0.00    -0.757 OA 
HETATM   17  C   UNL     1     -12.251  14.151  65.938  1.00  0.00    -0.439 C  
HETATM   18  H   UNL     1     -10.007  13.924  63.391  1.00  0.00     0.000 HD 
HETATM   19  C   UNL     1     -11.480  13.092  66.771  1.00  0.00    -0.392 C  
HETATM   20  O   UNL     1     -12.921  13.496  64.863  1.00  0.00    -0.708 OA 
HETATM   21  H   UNL     1     -13.566  12.887  65.203  1.00  0.00     0.000 HD 
BRANCH  19  22
HETATM   22  C   UNL     1     -11.989  13.045  68.223  1.00  0.00    -0.306 C  
BRANCH  22  23
HETATM   23  C   UNL     1     -11.246  14.064  69.092  1.00  0.00    -0.308 C  
BRANCH  23  24
HETATM   24  C   UNL     1     -12.017  15.364  69.349  1.00  0.00    -0.327 C  
HETATM   25  O   UNL     1     -12.973  15.167  70.392  1.00  0.00    -0.581 OA 
HETATM   26  H   UNL     1     -13.450  15.972  70.551  1.00  0.00     0.000 HD 
BRANCH  24  27
HETATM   27  C   UNL     1     -11.078  16.492  69.802  1.00  0.00    -0.248 C  
BRANCH  27  28
HETATM   28  C   UNL     1      -9.811  16.588  68.952  1.00  0.00    -0.260 C  
BRANCH  28  29
HETATM   29  C   UNL     1      -9.743  17.873  68.173  1.00  0.00    -0.320 A  
HETATM   30  C   UNL     1      -8.644  18.730  68.326  1.00  0.00    -0.357 A  
HETATM   31  C   UNL     1      -8.573  19.920  67.603  1.00  0.00    -0.385 A  
HETATM   32  C   UNL     1      -9.600  20.266  66.728  1.00  0.00    -0.548 A  
HETATM   33  C   UNL     1     -10.701  19.424  66.577  1.00  0.00    -0.516 A  
HETATM   34  C   UNL     1     -10.775  18.232  67.299  1.00  0.00    -0.366 A  
ENDBRANCH  28  29
ENDBRANCH  27  28
ENDBRANCH  24  27
ENDBRANCH  23  24
ENDBRANCH  22  23
ENDBRANCH  19  22
ENDBRANCH  12  13
ENDBRANCH  11  12
ENDBRANCH   9  10
ENDBRANCH   8   9
ENDBRANCH   7   8
ENDBRANCH   5   7
ENDBRANCH   4   5
ENDBRANCH   2   4
TORSDOF 14
ENDMDL
MODEL       86
REMARK 921   NORMALIZED FREE ENERGY PREDICTED BY IDOCK:   -5.17 KCAL/MOL
REMARK 922        TOTAL FREE ENERGY PREDICTED BY IDOCK:  -12.69 KCAL/MOL
REMARK 923 INTER-LIGAND FREE ENERGY PREDICTED BY IDOCK:  -10.64 KCAL/MOL
REMARK 924 INTRA-LIGAND FREE ENERGY PREDICTED BY IDOCK:   -2.05 KCAL/MOL
REMARK 927      BINDING AFFINITY PREDICTED BY RF-SCORE:    0.00 PKD
ROOT
HETATM    1  C   UNL     1     -10.497  18.409  67.945  1.00  0.00    -0.416 C  
HETATM    2  C   UNL     1     -10.527  18.590  66.431  1.00  0.00    -0.406 C  
HETATM    3  C   UNL     1      -9.881  19.910  66.032  1.00  0.00    -0.515 C  
ENDROOT
BRANCH   2   4
HETATM    4  O   UNL     1      -9.776  17.533  65.807  1.00  0.00    -0.534 OA 
BRANCH   4   5
HETATM    5  C   UNL     1     -10.519  16.629  65.105  1.00  0.00    -0.093 C  
HETATM    6  O   UNL     1     -11.287  16.902  64.191  1.00  0.00    -1.208 OA 
BRANCH   5   7
HETATM    7  C   UNL     1     -10.270  15.242  65.640  1.00  0.00    -0.398 C  
BRANCH   7   8
HETATM    8  C   UNL     1     -11.456  14.761  66.478  1.00  0.00    -0.328 C  
BRANCH   8   9
HETATM    9  C   UNL     1     -11.221  14.891  67.981  1.00  0.00    -0.318 C  
BRANCH   9  10
HETATM   10  C   UNL     1     -11.993  13.873  68.771  1.00  0.00    -0.393 C  
HETATM   11  C   UNL     1     -11.803  12.542  68.768  1.00  0.00    -0.347 C  
BRANCH  11  12
HETATM   12  C   UNL     1     -10.762  11.786  67.993  1.00  0.00    -0.244 C  
BRANCH  12  13
HETATM   13  C   UNL     1     -10.731  10.264  68.211  1.00  0.00    -0.276 C  
HETATM   14  C   UNL     1     -10.382   9.528  66.904  1.00  0.00    -0.237 C  
HETATM   15  C   UNL     1     -10.049   8.125  67.375  1.00  0.00    -0.298 C  
HETATM   16  O   UNL     1      -9.214  10.073  66.289  1.00  0.00    -0.153 OA 
HETATM   17  C   UNL     1      -9.228   8.365  68.637  1.00  0.00    -0.143 C  
HETATM   18  H   UNL     1      -8.999   9.619  65.483  1.00  0.00     0.000 HD 
HETATM   19  C   UNL     1      -9.659   9.745  69.202  1.00  0.00    -0.192 C  
HETATM   20  O   UNL     1      -7.839   8.409  68.317  1.00  0.00    -0.107 OA 
HETATM   21  H   UNL     1      -7.327   8.559  69.104  1.00  0.00     0.000 HD 
BRANCH  19  22
HETATM   22  C   UNL     1     -10.179   9.618  70.646  1.00  0.00    -0.346 C  
BRANCH  22  23
HETATM   23  C   UNL     1     -11.710   9.647  70.676  1.00  0.00    -0.353 C  
BRANCH  23  24
HETATM   24  C   UNL     1     -12.321   9.527  72.078  1.00  0.00    -0.329 C  
HETATM   25  O   UNL     1     -13.407  10.443  72.218  1.00  0.00    -0.597 OA 
HETATM   26  H   UNL     1     -13.786  10.368  73.086  1.00  0.00     0.000 HD 
BRANCH  24  27
HETATM   27  C   UNL     1     -12.881   8.118  72.326  1.00  0.00    -0.263 C  
BRANCH  27  28
HETATM   28  C   UNL     1     -12.699   7.186  71.127  1.00  0.00    -0.363 C  
BRANCH  28  29
HETATM   29  C   UNL     1     -11.553   6.230  71.318  1.00  0.00    -0.336 A  
HETATM   30  C   UNL     1     -10.865   5.728  70.206  1.00  0.00    -0.373 A  
HETATM   31  C   UNL     1      -9.799   4.845  70.375  1.00  0.00    -0.302 A  
HETATM   32  C   UNL     1      -9.417   4.454  71.657  1.00  0.00    -0.214 A  
HETATM   33  C   UNL     1     -10.103   4.941  72.769  1.00  0.00    -0.215 A  
HETATM   34  C   UNL     1     -11.169   5.825  72.601  1.00  0.00    -0.348 A  
ENDBRANCH  28  29
ENDBRANCH  27  28
ENDBRANCH  24  27
ENDBRANCH  23  24
ENDBRANCH  22  23
ENDBRANCH  19  22
ENDBRANCH  12  13
ENDBRANCH  11  12
ENDBRANCH   9  10
ENDBRANCH   8   9
ENDBRANCH   7   8
ENDBRANCH   5   7
ENDBRANCH   4   5
ENDBRANCH   2   4
TORSDOF 14
ENDMDL
MODEL       87
REMARK 921   NORMALIZED FREE ENERGY PREDICTED BY IDOCK:   -5.16 KCAL/MOL
REMARK 922        TOTAL FREE ENERGY PREDICTED BY IDOCK:  -12.68 KCAL/MOL
REMARK 923 INTER-LIGAND FREE ENERGY PREDICTED BY IDOCK:  -10.42 KCAL/MOL
REMARK 924 INTRA-LIGAND FREE ENERGY PREDICTED BY IDOCK:   -2.26 KCAL/MOL
REMARK 927      BINDING AFFINITY PREDICTED BY RF-SCORE:    0.00 PKD
ROOT
HETATM    1  C   UNL     1     -12.370  14.353  64.396  1.00  0.00    -0.428 C  
HETATM    2  C   UNL     1     -11.411  14.370  65.581  1.00  0.00    -0.336 C  
HETATM    3  C   UNL     1     -10.337  15.434  65.392  1.00  0.00    -0.422 C  
ENDROOT
BRANCH   2   4
HETATM    4  O   UNL     1     -12.137  14.696  66.781  1.00  0.00    -0.353 OA 
BRANCH   4   5
HETATM    5  C   UNL     1     -11.975  13.819  67.813  1.00  0.00    -0.356 C  
HETATM    6  O   UNL     1     -12.167  12.611  67.752  1.00  0.00    -0.338 OA 
BRANCH   5   7
HETATM    7  C   UNL     1     -11.545  14.565  69.050  1.00  0.00    -0.330 C  
BRANCH   7   8
HETATM    8  C   UNL     1     -12.684  14.631  70.070  1.00  0.00    -0.197 C  
BRANCH   8   9
HETATM    9  C   UNL     1     -12.252  14.232  71.479  1.00  0.00    -0.378 C  
BRANCH   9  10
HETATM   10  C   UNL     1     -13.234  13.304  72.137  1.00  0.00    -0.562 C  
HETATM   11  C   UNL     1     -13.367  11.986  71.911  1.00  0.00    -0.408 C  
BRANCH  11  12
HETATM   12  C   UNL     1     -12.547  11.149  70.971  1.00  0.00    -0.503 C  
BRANCH  12  13
HETATM   13  C   UNL     1     -11.942   9.865  71.564  1.00  0.00    -0.473 C  
HETATM   14  C   UNL     1     -13.042   8.953  72.137  1.00  0.00    -0.421 C  
HETATM   15  C   UNL     1     -12.326   7.630  72.336  1.00  0.00    -0.162 C  
HETATM   16  O   UNL     1     -14.097   8.744  71.198  1.00  0.00    -0.594 OA 
HETATM   17  C   UNL     1     -11.476   7.500  71.076  1.00  0.00    -0.278 C  
HETATM   18  H   UNL     1     -14.776   8.181  71.552  1.00  0.00     0.000 HD 
HETATM   19  C   UNL     1     -11.208   8.939  70.561  1.00  0.00    -0.287 C  
HETATM   20  O   UNL     1     -12.190   6.776  70.076  1.00  0.00    -0.641 OA 
HETATM   21  H   UNL     1     -11.660   6.695  69.292  1.00  0.00     0.000 HD 
BRANCH  19  22
HETATM   22  C   UNL     1      -9.697   9.225  70.467  1.00  0.00    -0.316 C  
BRANCH  22  23
HETATM   23  C   UNL     1      -9.215   9.131  69.017  1.00  0.00    -0.143 C  
BRANCH  23  24
HETATM   24  C   UNL     1     -10.340   9.061  67.977  1.00  0.00    -0.224 C  
HETATM   25  O   UNL     1     -10.465  10.317  67.308  1.00  0.00    -0.221 OA 
HETATM   26  H   UNL     1     -11.161  10.274  66.663  1.00  0.00     0.000 HD 
BRANCH  24  27
HETATM   27  C   UNL     1     -10.045   8.003  66.903  1.00  0.00    -0.362 C  
BRANCH  27  28
HETATM   28  C   UNL     1     -10.963   6.784  67.002  1.00  0.00    -0.439 C  
BRANCH  28  29
HETATM   29  C   UNL     1     -10.204   5.523  67.316  1.00  0.00    -0.255 A  
HETATM   30  C   UNL     1      -9.884   4.623  66.292  1.00  0.00    -0.241 A  
HETATM   31  C   UNL     1      -9.177   3.455  66.575  1.00  0.00    -0.178 A  
HETATM   32  C   UNL     1      -8.789   3.177  67.884  1.00  0.00    -0.163 A  
HETATM   33  C   UNL     1      -9.112   4.063  68.911  1.00  0.00    -0.191 A  
HETATM   34  C   UNL     1      -9.820   5.232  68.629  1.00  0.00    -0.216 A  
ENDBRANCH  28  29
ENDBRANCH  27  28
ENDBRANCH  24  27
ENDBRANCH  23  24
ENDBRANCH  22  23
ENDBRANCH  19  22
ENDBRANCH  12  13
ENDBRANCH  11  12
ENDBRANCH   9  10
ENDBRANCH   8   9
ENDBRANCH   7   8
ENDBRANCH   5   7
ENDBRANCH   4   5
ENDBRANCH   2   4
TORSDOF 14
ENDMDL
MODEL       88
REMARK 921   NORMALIZED FREE ENERGY PREDICTED BY IDOCK:   -5.14 KCAL/MOL
REMARK 922        TOTAL FREE ENERGY PREDICTED BY IDOCK:  -12.65 KCAL/MOL
REMARK 923 INTER-LIGAND FREE ENERGY PREDICTED BY IDOCK:   -8.95 KCAL/MOL
REMARK 924 INTRA-LIGAND FREE ENERGY PREDICTED BY IDOCK:   -3.70 KCAL/MOL
REMARK 927      BINDING AFFINITY PREDICTED BY RF-SCORE:    0.00 PKD
ROOT
HETATM    1  C   UNL     1      -9.685  13.755  67.646  1.00  0.00    -0.227 C  
HETATM    2  C   UNL     1     -10.944  13.005  67.225  1.00  0.00    -0.264 C  
HETATM    3  C   UNL     1     -11.813  12.684  68.434  1.00  0.00    -0.347 C  
ENDROOT
BRANCH   2   4
HETATM    4  O   UNL     1     -11.721  13.833  66.340  1.00  0.00    -0.343 OA 
BRANCH   4   5
HETATM    5  C   UNL     1     -12.063  13.253  65.153  1.00  0.00    -0.413 C  
HETATM    6  O   UNL     1     -13.153  12.758  64.895  1.00  0.00    -0.833 OA 
BRANCH   5   7
HETATM    7  C   UNL     1     -10.886  13.293  64.212  1.00  0.00    -0.414 C  
BRANCH   7   8
HETATM    8  C   UNL     1     -10.801  12.005  63.392  1.00  0.00    -0.471 C  
BRANCH   8   9
HETATM    9  C   UNL     1     -10.415  10.786  64.227  1.00  0.00    -0.330 C  
BRANCH   9  10
HETATM   10  C   UNL     1      -9.207  10.078  63.682  1.00  0.00    -0.314 C  
HETATM   11  C   UNL     1      -8.014   9.946  64.287  1.00  0.00    -0.146 C  
BRANCH  11  12
HETATM   12  C   UNL     1      -7.637  10.453  65.649  1.00  0.00    -0.150 C  
BRANCH  12  13
HETATM   13  C   UNL     1      -7.834   9.468  66.815  1.00  0.00    -0.101 C  
HETATM   14  C   UNL     1      -6.570   9.395  67.692  1.00  0.00    -0.063 C  
HETATM   15  C   UNL     1      -7.057   8.689  68.943  1.00  0.00    -0.066 C  
HETATM   16  O   UNL     1      -6.116  10.695  68.070  1.00  0.00    -0.047 OA 
HETATM   17  C   UNL     1      -8.417   9.331  69.200  1.00  0.00    -0.133 C  
HETATM   18  H   UNL     1      -5.336  10.649  68.611  1.00  0.00     0.000 HD 
HETATM   19  C   UNL     1      -8.944   9.838  67.831  1.00  0.00    -0.119 C  
HETATM   20  O   UNL     1      -8.275  10.443  70.082  1.00  0.00    -0.352 OA 
HETATM   21  H   UNL     1      -9.122  10.843  70.242  1.00  0.00     0.000 HD 
BRANCH  19  22
HETATM   22  C   UNL     1     -10.309   9.210  67.492  1.00  0.00    -0.324 C  
BRANCH  22  23
HETATM   23  C   UNL     1     -10.128   7.901  66.718  1.00  0.00    -0.352 C  
BRANCH  23  24
HETATM   24  C   UNL     1     -11.061   6.767  67.159  1.00  0.00    -0.333 C  
HETATM   25  O   UNL     1     -11.218   5.824  66.098  1.00  0.00    -0.735 OA 
HETATM   26  H   UNL     1     -11.796   5.121  66.371  1.00  0.00     0.000 HD 
BRANCH  24  27
HETATM   27  C   UNL     1     -10.488   6.006  68.363  1.00  0.00    -0.290 C  
BRANCH  27  28
HETATM   28  C   UNL     1     -11.244   6.289  69.661  1.00  0.00    -0.506 C  
BRANCH  28  29
HETATM   29  C   UNL     1     -10.332   6.761  70.761  1.00  0.00    -0.227 A  
HETATM   30  C   UNL     1     -10.745   7.787  71.622  1.00  0.00    -0.257 A  
HETATM   31  C   UNL     1      -9.907   8.226  72.646  1.00  0.00    -0.357 A  
HETATM   32  C   UNL     1      -8.650   7.649  72.813  1.00  0.00    -0.177 A  
HETATM   33  C   UNL     1      -8.228   6.635  71.954  1.00  0.00    -0.103 A  
HETATM   34  C   UNL     1      -9.066   6.193  70.929  1.00  0.00    -0.155 A  
ENDBRANCH  28  29
ENDBRANCH  27  28
ENDBRANCH  24  27
ENDBRANCH  23  24
ENDBRANCH  22  23
ENDBRANCH  19  22
ENDBRANCH  12  13
ENDBRANCH  11  12
ENDBRANCH   9  10
ENDBRANCH   8   9
ENDBRANCH   7   8
ENDBRANCH   5   7
ENDBRANCH   4   5
ENDBRANCH   2   4
TORSDOF 14
ENDMDL
MODEL       89
REMARK 921   NORMALIZED FREE ENERGY PREDICTED BY IDOCK:   -5.11 KCAL/MOL
REMARK 922        TOTAL FREE ENERGY PREDICTED BY IDOCK:  -12.58 KCAL/MOL
REMARK 923 INTER-LIGAND FREE ENERGY PREDICTED BY IDOCK:  -10.27 KCAL/MOL
REMARK 924 INTRA-LIGAND FREE ENERGY PREDICTED BY IDOCK:   -2.31 KCAL/MOL
REMARK 927      BINDING AFFINITY PREDICTED BY RF-SCORE:    0.00 PKD
ROOT
HETATM    1  C   UNL     1      -8.032  16.408  68.812  1.00  0.00    -0.233 C  
HETATM    2  C   UNL     1      -6.693  16.592  68.106  1.00  0.00    -0.144 C  
HETATM    3  C   UNL     1      -6.082  15.245  67.746  1.00  0.00    -0.169 C  
ENDROOT
BRANCH   2   4
HETATM    4  O   UNL     1      -6.895  17.318  66.880  1.00  0.00    -0.159 OA 
BRANCH   4   5
HETATM    5  C   UNL     1      -6.262  18.526  66.810  1.00  0.00    -0.170 C  
HETATM    6  O   UNL     1      -5.220  18.813  67.385  1.00  0.00    -0.155 OA 
BRANCH   5   7
HETATM    7  C   UNL     1      -7.053  19.464  65.935  1.00  0.00    -0.307 C  
BRANCH   7   8
HETATM    8  C   UNL     1      -8.187  20.120  66.725  1.00  0.00    -0.351 C  
BRANCH   8   9
HETATM    9  C   UNL     1      -9.569  19.829  66.147  1.00  0.00    -0.484 C  
BRANCH   9  10
HETATM   10  C   UNL     1     -10.418  19.010  67.078  1.00  0.00    -0.514 C  
HETATM   11  C   UNL     1     -10.709  17.704  66.959  1.00  0.00    -0.176 C  
BRANCH  11  12
HETATM   12  C   UNL     1     -10.230  16.771  65.884  1.00  0.00    -0.345 C  
BRANCH  12  13
HETATM   13  C   UNL     1     -10.907  15.391  65.836  1.00  0.00    -0.328 C  
HETATM   14  C   UNL     1     -12.128  15.410  64.897  1.00  0.00     0.063 C  
HETATM   15  C   UNL     1     -12.434  13.938  64.697  1.00  0.00    -0.361 C  
HETATM   16  O   UNL     1     -11.804  15.968  63.623  1.00  0.00    -1.280 OA 
HETATM   17  C   UNL     1     -11.053  13.313  64.528  1.00  0.00    -0.372 C  
HETATM   18  H   UNL     1     -12.558  15.980  63.044  1.00  0.00     0.000 HD 
HETATM   19  C   UNL     1     -10.046  14.235  65.266  1.00  0.00    -0.378 C  
HETATM   20  O   UNL     1     -10.705  13.259  63.146  1.00  0.00    -0.101 OA 
HETATM   21  H   UNL     1      -9.845  12.870  63.041  1.00  0.00     0.000 HD 
BRANCH  19  22
HETATM   22  C   UNL     1      -9.274  13.463  66.352  1.00  0.00    -0.131 C  
BRANCH  22  23
HETATM   23  C   UNL     1      -9.845  12.052  66.525  1.00  0.00    -0.225 C  
BRANCH  23  24
HETATM   24  C   UNL     1     -10.055  11.626  67.982  1.00  0.00    -0.189 C  
HETATM   25  O   UNL     1      -9.584  12.647  68.863  1.00  0.00    -0.406 OA 
HETATM   26  H   UNL     1      -9.715  12.383  69.766  1.00  0.00     0.000 HD 
BRANCH  24  27
HETATM   27  C   UNL     1     -11.544  11.410  68.294  1.00  0.00    -0.376 C  
BRANCH  27  28
HETATM   28  C   UNL     1     -11.907  11.759  69.737  1.00  0.00    -0.420 C  
BRANCH  28  29
HETATM   29  C   UNL     1     -12.053  10.534  70.600  1.00  0.00    -0.452 A  
HETATM   30  C   UNL     1     -13.270  10.270  71.243  1.00  0.00    -0.447 A  
HETATM   31  C   UNL     1     -13.414   9.135  72.039  1.00  0.00    -0.510 A  
HETATM   32  C   UNL     1     -12.342   8.259  72.203  1.00  0.00    -0.410 A  
HETATM   33  C   UNL     1     -11.125   8.520  71.575  1.00  0.00    -0.343 A  
HETATM   34  C   UNL     1     -10.980   9.656  70.777  1.00  0.00    -0.397 A  
ENDBRANCH  28  29
ENDBRANCH  27  28
ENDBRANCH  24  27
ENDBRANCH  23  24
ENDBRANCH  22  23
ENDBRANCH  19  22
ENDBRANCH  12  13
ENDBRANCH  11  12
ENDBRANCH   9  10
ENDBRANCH   8   9
ENDBRANCH   7   8
ENDBRANCH   5   7
ENDBRANCH   4   5
ENDBRANCH   2   4
TORSDOF 14
ENDMDL
MODEL       90
REMARK 921   NORMALIZED FREE ENERGY PREDICTED BY IDOCK:   -5.08 KCAL/MOL
REMARK 922        TOTAL FREE ENERGY PREDICTED BY IDOCK:  -12.53 KCAL/MOL
REMARK 923 INTER-LIGAND FREE ENERGY PREDICTED BY IDOCK:   -9.10 KCAL/MOL
REMARK 924 INTRA-LIGAND FREE ENERGY PREDICTED BY IDOCK:   -3.43 KCAL/MOL
REMARK 927      BINDING AFFINITY PREDICTED BY RF-SCORE:    0.00 PKD
ROOT
HETATM    1  C   UNL     1      -9.975  19.595  68.922  1.00  0.00    -0.524 C  
HETATM    2  C   UNL     1      -9.660  19.027  67.542  1.00  0.00    -0.305 C  
HETATM    3  C   UNL     1     -10.681  19.501  66.516  1.00  0.00    -0.535 C  
ENDROOT
BRANCH   2   4
HETATM    4  O   UNL     1      -8.367  19.494  67.115  1.00  0.00    -0.275 OA 
BRANCH   4   5
HETATM    5  C   UNL     1      -7.303  18.880  67.709  1.00  0.00    -0.234 C  
HETATM    6  O   UNL     1      -6.509  19.418  68.470  1.00  0.00    -0.239 OA 
BRANCH   5   7
HETATM    7  C   UNL     1      -7.238  17.440  67.268  1.00  0.00    -0.192 C  
BRANCH   7   8
HETATM    8  C   UNL     1      -7.219  16.501  68.476  1.00  0.00    -0.175 C  
BRANCH   8   9
HETATM    9  C   UNL     1      -8.406  15.542  68.510  1.00  0.00    -0.161 C  
BRANCH   9  10
HETATM   10  C   UNL     1      -7.987  14.122  68.766  1.00  0.00    -0.102 C  
HETATM   11  C   UNL     1      -8.162  13.073  67.944  1.00  0.00    -0.166 C  
BRANCH  11  12
HETATM   12  C   UNL     1      -8.790  13.096  66.581  1.00  0.00    -0.076 C  
BRANCH  12  13
HETATM   13  C   UNL     1     -10.180  13.750  66.488  1.00  0.00    -0.284 C  
HETATM   14  C   UNL     1     -10.406  14.365  65.095  1.00  0.00    -0.421 C  
HETATM   15  C   UNL     1     -11.899  14.628  65.070  1.00  0.00    -0.377 C  
HETATM   16  O   UNL     1     -10.107  13.436  64.053  1.00  0.00    -0.764 OA 
HETATM   17  C   UNL     1     -12.485  13.378  65.717  1.00  0.00    -0.439 C  
HETATM   18  H   UNL     1     -10.246  13.816  63.193  1.00  0.00     0.000 HD 
HETATM   19  C   UNL     1     -11.389  12.794  66.648  1.00  0.00    -0.364 C  
HETATM   20  O   UNL     1     -12.805  12.412  64.718  1.00  0.00    -0.728 OA 
HETATM   21  H   UNL     1     -13.170  11.633  65.121  1.00  0.00     0.000 HD 
BRANCH  19  22
HETATM   22  C   UNL     1     -11.889  12.689  68.101  1.00  0.00    -0.366 C  
BRANCH  22  23
HETATM   23  C   UNL     1     -12.078  11.224  68.506  1.00  0.00    -0.161 C  
BRANCH  23  24
HETATM   24  C   UNL     1     -11.099  10.729  69.578  1.00  0.00    -0.278 C  
HETATM   25  O   UNL     1     -11.754   9.808  70.450  1.00  0.00    -0.281 OA 
HETATM   26  H   UNL     1     -11.148   9.502  71.114  1.00  0.00     0.000 HD 
BRANCH  24  27
HETATM   27  C   UNL     1      -9.908   9.990  68.950  1.00  0.00    -0.187 C  
BRANCH  27  28
HETATM   28  C   UNL     1     -10.281   9.236  67.673  1.00  0.00    -0.285 C  
BRANCH  28  29
HETATM   29  C   UNL     1      -9.367   9.570  66.526  1.00  0.00    -0.220 A  
HETATM   30  C   UNL     1      -7.987   9.687  66.740  1.00  0.00    -0.105 A  
HETATM   31  C   UNL     1      -7.132   9.991  65.681  1.00  0.00    -0.119 A  
HETATM   32  C   UNL     1      -7.651  10.186  64.403  1.00  0.00    -0.130 A  
HETATM   33  C   UNL     1      -9.024  10.081  64.183  1.00  0.00    -0.268 A  
HETATM   34  C   UNL     1      -9.880   9.776  65.242  1.00  0.00    -0.335 A  
ENDBRANCH  28  29
ENDBRANCH  27  28
ENDBRANCH  24  27
ENDBRANCH  23  24
ENDBRANCH  22  23
ENDBRANCH  19  22
ENDBRANCH  12  13
ENDBRANCH  11  12
ENDBRANCH   9  10
ENDBRANCH   8   9
ENDBRANCH   7   8
ENDBRANCH   5   7
ENDBRANCH   4   5
ENDBRANCH   2   4
TORSDOF 14
ENDMDL
MODEL       91
REMARK 921   NORMALIZED FREE ENERGY PREDICTED BY IDOCK:   -5.06 KCAL/MOL
REMARK 922        TOTAL FREE ENERGY PREDICTED BY IDOCK:  -12.49 KCAL/MOL
REMARK 923 INTER-LIGAND FREE ENERGY PREDICTED BY IDOCK:  -10.08 KCAL/MOL
REMARK 924 INTRA-LIGAND FREE ENERGY PREDICTED BY IDOCK:   -2.41 KCAL/MOL
REMARK 927      BINDING AFFINITY PREDICTED BY RF-SCORE:    0.00 PKD
ROOT
HETATM    1  C   UNL     1     -12.846  11.880  63.408  1.00  0.00    -0.393 C  
HETATM    2  C   UNL     1     -11.606  12.374  64.144  1.00  0.00    -0.386 C  
HETATM    3  C   UNL     1     -10.369  11.606  63.697  1.00  0.00    -0.466 C  
ENDROOT
BRANCH   2   4
HETATM    4  O   UNL     1     -11.388  13.764  63.835  1.00  0.00    -0.240 OA 
BRANCH   4   5
HETATM    5  C   UNL     1     -12.206  14.638  64.490  1.00  0.00    -0.456 C  
HETATM    6  O   UNL     1     -12.922  15.474  63.954  1.00  0.00    -0.478 OA 
BRANCH   5   7
HETATM    7  C   UNL     1     -12.078  14.436  65.978  1.00  0.00    -0.370 C  
BRANCH   7   8
HETATM    8  C   UNL     1     -10.970  15.318  66.555  1.00  0.00    -0.295 C  
BRANCH   8   9
HETATM    9  C   UNL     1      -9.666  15.239  65.764  1.00  0.00    -0.385 C  
BRANCH   9  10
HETATM   10  C   UNL     1      -8.526  15.917  66.470  1.00  0.00    -0.348 C  
HETATM   11  C   UNL     1      -7.983  15.557  67.646  1.00  0.00    -0.168 C  
BRANCH  11  12
HETATM   12  C   UNL     1      -8.380  14.385  68.497  1.00  0.00    -0.157 C  
BRANCH  12  13
HETATM   13  C   UNL     1      -7.850  13.013  68.046  1.00  0.00    -0.146 C  
HETATM   14  C   UNL     1      -6.496  12.701  68.709  1.00  0.00    -0.085 C  
HETATM   15  C   UNL     1      -6.314  11.218  68.446  1.00  0.00    -0.046 C  
HETATM   16  O   UNL     1      -6.545  12.893  70.123  1.00  0.00    -0.364 OA 
HETATM   17  C   UNL     1      -7.705  10.646  68.698  1.00  0.00    -0.110 C  
HETATM   18  H   UNL     1      -5.709  12.702  70.532  1.00  0.00     0.000 HD 
HETATM   19  C   UNL     1      -8.720  11.791  68.436  1.00  0.00    -0.155 C  
HETATM   20  O   UNL     1      -7.824  10.223  70.054  1.00  0.00    -0.282 OA 
HETATM   21  H   UNL     1      -8.691   9.867  70.211  1.00  0.00     0.000 HD 
BRANCH  19  22
HETATM   22  C   UNL     1      -9.737  11.399  67.348  1.00  0.00    -0.196 C  
BRANCH  22  23
HETATM   23  C   UNL     1     -11.132  11.929  67.691  1.00  0.00    -0.314 C  
BRANCH  23  24
HETATM   24  C   UNL     1     -11.902  11.079  68.709  1.00  0.00    -0.282 C  
HETATM   25  O   UNL     1     -11.450   9.726  68.657  1.00  0.00    -0.494 OA 
HETATM   26  H   UNL     1     -11.926   9.199  69.288  1.00  0.00     0.000 HD 
BRANCH  24  27
HETATM   27  C   UNL     1     -11.674  11.579  70.143  1.00  0.00    -0.395 C  
BRANCH  27  28
HETATM   28  C   UNL     1     -12.928  12.191  70.766  1.00  0.00     0.017 C  
BRANCH  28  29
HETATM   29  C   UNL     1     -12.679  13.571  71.312  1.00  0.00    -0.432 A  
HETATM   30  C   UNL     1     -11.813  14.445  70.641  1.00  0.00    -0.361 A  
HETATM   31  C   UNL     1     -11.581  15.727  71.138  1.00  0.00    -0.469 A  
HETATM   32  C   UNL     1     -12.208  16.142  72.310  1.00  0.00    -0.577 A  
HETATM   33  C   UNL     1     -13.064  15.276  72.989  1.00  0.00    -0.612 A  
HETATM   34  C   UNL     1     -13.298  13.993  72.493  1.00  0.00    -0.639 A  
ENDBRANCH  28  29
ENDBRANCH  27  28
ENDBRANCH  24  27
ENDBRANCH  23  24
ENDBRANCH  22  23
ENDBRANCH  19  22
ENDBRANCH  12  13
ENDBRANCH  11  12
ENDBRANCH   9  10
ENDBRANCH   8   9
ENDBRANCH   7   8
ENDBRANCH   5   7
ENDBRANCH   4   5
ENDBRANCH   2   4
TORSDOF 14
ENDMDL
MODEL       92
REMARK 921   NORMALIZED FREE ENERGY PREDICTED BY IDOCK:   -5.05 KCAL/MOL
REMARK 922        TOTAL FREE ENERGY PREDICTED BY IDOCK:  -12.47 KCAL/MOL
REMARK 923 INTER-LIGAND FREE ENERGY PREDICTED BY IDOCK:   -9.79 KCAL/MOL
REMARK 924 INTRA-LIGAND FREE ENERGY PREDICTED BY IDOCK:   -2.69 KCAL/MOL
REMARK 927      BINDING AFFINITY PREDICTED BY RF-SCORE:    0.00 PKD
ROOT
HETATM    1  C   UNL     1     -12.704  13.187  65.158  1.00  0.00    -0.468 C  
HETATM    2  C   UNL     1     -11.569  13.908  65.877  1.00  0.00    -0.340 C  
HETATM    3  C   UNL     1     -11.011  15.033  65.015  1.00  0.00    -0.436 C  
ENDROOT
BRANCH   2   4
HETATM    4  O   UNL     1     -12.069  14.499  67.090  1.00  0.00    -0.397 OA 
BRANCH   4   5
HETATM    5  C   UNL     1     -11.255  14.368  68.178  1.00  0.00    -0.281 C  
HETATM    6  O   UNL     1     -10.042  14.531  68.177  1.00  0.00    -0.218 OA 
BRANCH   5   7
HETATM    7  C   UNL     1     -12.074  13.969  69.379  1.00  0.00    -0.386 C  
BRANCH   7   8
HETATM    8  C   UNL     1     -12.061  12.450  69.566  1.00  0.00    -0.250 C  
BRANCH   8   9
HETATM    9  C   UNL     1     -12.357  12.019  71.000  1.00  0.00    -0.340 C  
BRANCH   9  10
HETATM   10  C   UNL     1     -13.004  10.665  71.069  1.00  0.00    -0.456 C  
HETATM   11  C   UNL     1     -12.391   9.493  71.305  1.00  0.00    -0.430 C  
BRANCH  11  12
HETATM   12  C   UNL     1     -10.929   9.285  71.577  1.00  0.00    -0.446 C  
BRANCH  12  13
HETATM   13  C   UNL     1     -10.436   7.828  71.540  1.00  0.00    -0.239 C  
HETATM   14  C   UNL     1      -9.943   7.378  72.928  1.00  0.00    -0.232 C  
HETATM   15  C   UNL     1      -9.846   5.871  72.789  1.00  0.00    -0.181 C  
HETATM   16  O   UNL     1     -10.903   7.664  73.946  1.00  0.00    -0.469 OA 
HETATM   17  C   UNL     1     -11.106   5.509  72.011  1.00  0.00    -0.184 C  
HETATM   18  H   UNL     1     -10.598   7.387  74.802  1.00  0.00     0.000 HD 
HETATM   19  C   UNL     1     -11.504   6.762  71.186  1.00  0.00    -0.361 C  
HETATM   20  O   UNL     1     -12.165   5.192  72.912  1.00  0.00    -0.402 OA 
HETATM   21  H   UNL     1     -12.950   4.967  72.427  1.00  0.00     0.000 HD 
BRANCH  19  22
HETATM   22  C   UNL     1     -11.566   6.443  69.681  1.00  0.00    -0.351 C  
BRANCH  22  23
HETATM   23  C   UNL     1     -10.344   5.627  69.248  1.00  0.00    -0.340 C  
BRANCH  23  24
HETATM   24  C   UNL     1     -10.265   5.351  67.742  1.00  0.00    -0.178 C  
HETATM   25  O   UNL     1     -11.360   5.975  67.072  1.00  0.00    -0.543 OA 
HETATM   26  H   UNL     1     -11.311   5.805  66.139  1.00  0.00     0.000 HD 
BRANCH  24  27
HETATM   27  C   UNL     1      -8.975   5.925  67.134  1.00  0.00    -0.113 C  
BRANCH  27  28
HETATM   28  C   UNL     1      -8.574   7.266  67.748  1.00  0.00    -0.120 C  
BRANCH  28  29
HETATM   29  C   UNL     1      -9.167   8.432  67.005  1.00  0.00    -0.186 A  
HETATM   30  C   UNL     1     -10.065   9.293  67.651  1.00  0.00    -0.266 A  
HETATM   31  C   UNL     1     -10.615  10.379  66.970  1.00  0.00    -0.305 A  
HETATM   32  C   UNL     1     -10.276  10.609  65.639  1.00  0.00    -0.319 A  
HETATM   33  C   UNL     1      -9.391   9.752  64.985  1.00  0.00    -0.325 A  
HETATM   34  C   UNL     1      -8.839   8.665  65.666  1.00  0.00    -0.227 A  
ENDBRANCH  28  29
ENDBRANCH  27  28
ENDBRANCH  24  27
ENDBRANCH  23  24
ENDBRANCH  22  23
ENDBRANCH  19  22
ENDBRANCH  12  13
ENDBRANCH  11  12
ENDBRANCH   9  10
ENDBRANCH   8   9
ENDBRANCH   7   8
ENDBRANCH   5   7
ENDBRANCH   4   5
ENDBRANCH   2   4
TORSDOF 14
ENDMDL
MODEL       93
REMARK 921   NORMALIZED FREE ENERGY PREDICTED BY IDOCK:   -5.04 KCAL/MOL
REMARK 922        TOTAL FREE ENERGY PREDICTED BY IDOCK:  -12.46 KCAL/MOL
REMARK 923 INTER-LIGAND FREE ENERGY PREDICTED BY IDOCK:   -9.15 KCAL/MOL
REMARK 924 INTRA-LIGAND FREE ENERGY PREDICTED BY IDOCK:   -3.31 KCAL/MOL
REMARK 927      BINDING AFFINITY PREDICTED BY RF-SCORE:    0.00 PKD
ROOT
HETATM    1  C   UNL     1      -9.087   8.848  71.406  1.00  0.00    -0.318 C  
HETATM    2  C   UNL     1      -9.316   7.595  72.243  1.00  0.00    -0.151 C  
HETATM    3  C   UNL     1      -8.804   7.793  73.664  1.00  0.00    -0.323 C  
ENDROOT
BRANCH   2   4
HETATM    4  O   UNL     1     -10.727   7.324  72.325  1.00  0.00    -0.215 OA 
BRANCH   4   5
HETATM    5  C   UNL     1     -11.073   6.009  72.208  1.00  0.00    -0.278 C  
HETATM    6  O   UNL     1     -11.769   5.387  73.000  1.00  0.00    -0.275 OA 
BRANCH   5   7
HETATM    7  C   UNL     1     -10.447   5.428  70.966  1.00  0.00    -0.302 C  
BRANCH   7   8
HETATM    8  C   UNL     1     -11.142   5.955  69.709  1.00  0.00    -0.422 C  
BRANCH   8   9
HETATM    9  C   UNL     1     -10.165   6.444  68.643  1.00  0.00    -0.201 C  
BRANCH   9  10
HETATM   10  C   UNL     1     -10.866   7.029  67.450  1.00  0.00    -0.371 C  
HETATM   11  C   UNL     1     -10.392   7.979  66.626  1.00  0.00    -0.273 C  
BRANCH  11  12
HETATM   12  C   UNL     1      -9.048   8.645  66.704  1.00  0.00    -0.203 C  
BRANCH  12  13
HETATM   13  C   UNL     1      -9.034  10.075  67.271  1.00  0.00    -0.144 C  
HETATM   14  C   UNL     1      -7.971  10.218  68.375  1.00  0.00    -0.108 C  
HETATM   15  C   UNL     1      -7.854  11.721  68.551  1.00  0.00    -0.144 C  
HETATM   16  O   UNL     1      -6.700   9.726  67.950  1.00  0.00    -0.064 OA 
HETATM   17  C   UNL     1      -7.884  12.244  67.119  1.00  0.00    -0.149 C  
HETATM   18  H   UNL     1      -6.044   9.815  68.632  1.00  0.00     0.000 HD 
HETATM   19  C   UNL     1      -8.652  11.195  66.270  1.00  0.00    -0.180 C  
HETATM   20  O   UNL     1      -6.556  12.365  66.613  1.00  0.00    -0.438 OA 
HETATM   21  H   UNL     1      -6.575  12.691  65.721  1.00  0.00     0.000 HD 
BRANCH  19  22
HETATM   22  C   UNL     1      -9.872  11.827  65.573  1.00  0.00    -0.262 C  
BRANCH  22  23
HETATM   23  C   UNL     1     -10.066  13.277  66.026  1.00  0.00    -0.301 C  
BRANCH  23  24
HETATM   24  C   UNL     1     -11.522  13.759  66.007  1.00  0.00    -0.326 C  
HETATM   25  O   UNL     1     -12.387  12.686  65.635  1.00  0.00    -0.581 OA 
HETATM   26  H   UNL     1     -13.288  12.984  65.624  1.00  0.00     0.000 HD 
BRANCH  24  27
HETATM   27  C   UNL     1     -11.970  14.243  67.395  1.00  0.00    -0.426 C  
BRANCH  27  28
HETATM   28  C   UNL     1     -11.000  13.841  68.506  1.00  0.00    -0.283 C  
BRANCH  28  29
HETATM   29  C   UNL     1     -11.613  12.860  69.469  1.00  0.00    -0.348 A  
HETATM   30  C   UNL     1     -11.577  11.487  69.190  1.00  0.00    -0.382 A  
HETATM   31  C   UNL     1     -12.138  10.572  70.079  1.00  0.00    -0.351 A  
HETATM   32  C   UNL     1     -12.743  11.022  71.251  1.00  0.00    -0.537 A  
HETATM   33  C   UNL     1     -12.792  12.387  71.532  1.00  0.00    -0.377 A  
HETATM   34  C   UNL     1     -12.230  13.304  70.642  1.00  0.00    -0.417 A  
ENDBRANCH  28  29
ENDBRANCH  27  28
ENDBRANCH  24  27
ENDBRANCH  23  24
ENDBRANCH  22  23
ENDBRANCH  19  22
ENDBRANCH  12  13
ENDBRANCH  11  12
ENDBRANCH   9  10
ENDBRANCH   8   9
ENDBRANCH   7   8
ENDBRANCH   5   7
ENDBRANCH   4   5
ENDBRANCH   2   4
TORSDOF 14
ENDMDL
MODEL       94
REMARK 921   NORMALIZED FREE ENERGY PREDICTED BY IDOCK:   -5.03 KCAL/MOL
REMARK 922        TOTAL FREE ENERGY PREDICTED BY IDOCK:  -12.44 KCAL/MOL
REMARK 923 INTER-LIGAND FREE ENERGY PREDICTED BY IDOCK:   -9.04 KCAL/MOL
REMARK 924 INTRA-LIGAND FREE ENERGY PREDICTED BY IDOCK:   -3.40 KCAL/MOL
REMARK 927      BINDING AFFINITY PREDICTED BY RF-SCORE:    0.00 PKD
ROOT
HETATM    1  C   UNL     1     -12.436  12.139  63.484  1.00  0.00    -0.666 C  
HETATM    2  C   UNL     1     -11.123  12.071  64.255  1.00  0.00    -0.351 C  
HETATM    3  C   UNL     1      -9.956  11.807  63.313  1.00  0.00    -0.435 C  
ENDROOT
BRANCH   2   4
HETATM    4  O   UNL     1     -10.881  13.333  64.902  1.00  0.00    -0.311 OA 
BRANCH   4   5
HETATM    5  C   UNL     1     -11.458  13.476  66.130  1.00  0.00    -0.325 C  
HETATM    6  O   UNL     1     -12.459  14.139  66.370  1.00  0.00    -0.461 OA 
BRANCH   5   7
HETATM    7  C   UNL     1     -10.664  12.709  67.157  1.00  0.00    -0.264 C  
BRANCH   7   8
HETATM    8  C   UNL     1     -11.584  11.858  68.033  1.00  0.00    -0.401 C  
BRANCH   8   9
HETATM    9  C   UNL     1     -11.134  10.403  68.142  1.00  0.00    -0.344 C  
BRANCH   9  10
HETATM   10  C   UNL     1     -10.287   9.977  66.976  1.00  0.00    -0.305 C  
HETATM   11  C   UNL     1     -10.115   8.723  66.525  1.00  0.00    -0.349 C  
BRANCH  11  12
HETATM   12  C   UNL     1     -10.751   7.477  67.071  1.00  0.00    -0.367 C  
BRANCH  12  13
HETATM   13  C   UNL     1      -9.814   6.273  67.272  1.00  0.00    -0.165 C  
HETATM   14  C   UNL     1     -10.519   4.959  66.888  1.00  0.00    -0.144 C  
HETATM   15  C   UNL     1      -9.376   3.966  66.802  1.00  0.00    -0.203 C  
HETATM   16  O   UNL     1     -11.125   5.043  65.598  1.00  0.00    -0.778 OA 
HETATM   17  C   UNL     1      -8.279   4.755  66.095  1.00  0.00    -0.107 C  
HETATM   18  H   UNL     1     -11.560   4.232  65.361  1.00  0.00     0.000 HD 
HETATM   19  C   UNL     1      -8.538   6.256  66.391  1.00  0.00    -0.133 C  
HETATM   20  O   UNL     1      -8.352   4.542  64.686  1.00  0.00    -0.107 OA 
HETATM   21  H   UNL     1      -7.669   5.034  64.246  1.00  0.00     0.000 HD 
BRANCH  19  22
HETATM   22  C   UNL     1      -7.322   6.908  67.075  1.00  0.00    -0.086 C  
BRANCH  22  23
HETATM   23  C   UNL     1      -7.563   7.062  68.580  1.00  0.00    -0.115 C  
BRANCH  23  24
HETATM   24  C   UNL     1      -7.065   8.387  69.171  1.00  0.00    -0.064 C  
HETATM   25  O   UNL     1      -6.464   9.182  68.148  1.00  0.00    -0.058 OA 
HETATM   26  H   UNL     1      -6.156  10.003  68.514  1.00  0.00     0.000 HD 
BRANCH  24  27
HETATM   27  C   UNL     1      -8.221   9.206  69.763  1.00  0.00    -0.128 C  
BRANCH  27  28
HETATM   28  C   UNL     1      -8.629   8.736  71.159  1.00  0.00    -0.244 C  
BRANCH  28  29
HETATM   29  C   UNL     1     -10.088   8.375  71.236  1.00  0.00    -0.260 A  
HETATM   30  C   UNL     1     -10.503   7.067  70.950  1.00  0.00    -0.233 A  
HETATM   31  C   UNL     1     -11.852   6.724  71.024  1.00  0.00    -0.427 A  
HETATM   32  C   UNL     1     -12.796   7.686  71.378  1.00  0.00    -0.354 A  
HETATM   33  C   UNL     1     -12.393   8.992  71.654  1.00  0.00    -0.416 A  
HETATM   34  C   UNL     1     -11.042   9.337  71.581  1.00  0.00    -0.438 A  
ENDBRANCH  28  29
ENDBRANCH  27  28
ENDBRANCH  24  27
ENDBRANCH  23  24
ENDBRANCH  22  23
ENDBRANCH  19  22
ENDBRANCH  12  13
ENDBRANCH  11  12
ENDBRANCH   9  10
ENDBRANCH   8   9
ENDBRANCH   7   8
ENDBRANCH   5   7
ENDBRANCH   4   5
ENDBRANCH   2   4
TORSDOF 14
ENDMDL
MODEL       95
REMARK 921   NORMALIZED FREE ENERGY PREDICTED BY IDOCK:   -5.02 KCAL/MOL
REMARK 922        TOTAL FREE ENERGY PREDICTED BY IDOCK:  -12.43 KCAL/MOL
REMARK 923 INTER-LIGAND FREE ENERGY PREDICTED BY IDOCK:   -9.98 KCAL/MOL
REMARK 924 INTRA-LIGAND FREE ENERGY PREDICTED BY IDOCK:   -2.45 KCAL/MOL
REMARK 927      BINDING AFFINITY PREDICTED BY RF-SCORE:    0.00 PKD
ROOT
HETATM    1  C   UNL     1     -10.464  16.842  65.781  1.00  0.00    -0.305 C  
HETATM    2  C   UNL     1      -9.798  17.963  66.571  1.00  0.00    -0.343 C  
HETATM    3  C   UNL     1     -10.649  19.226  66.539  1.00  0.00    -0.538 C  
ENDROOT
BRANCH   2   4
HETATM    4  O   UNL     1      -9.664  17.565  67.948  1.00  0.00    -0.264 OA 
BRANCH   4   5
HETATM    5  C   UNL     1      -8.582  18.081  68.598  1.00  0.00    -0.264 C  
HETATM    6  O   UNL     1      -8.504  19.215  69.055  1.00  0.00    -0.311 OA 
BRANCH   5   7
HETATM    7  C   UNL     1      -7.482  17.051  68.650  1.00  0.00    -0.229 C  
BRANCH   7   8
HETATM    8  C   UNL     1      -8.059  15.636  68.598  1.00  0.00    -0.158 C  
BRANCH   8   9
HETATM    9  C   UNL     1      -7.564  14.829  67.400  1.00  0.00    -0.228 C  
BRANCH   9  10
HETATM   10  C   UNL     1      -7.578  13.349  67.662  1.00  0.00    -0.177 C  
HETATM   11  C   UNL     1      -8.613  12.512  67.479  1.00  0.00    -0.183 C  
BRANCH  11  12
HETATM   12  C   UNL     1      -9.973  12.868  66.950  1.00  0.00    -0.238 C  
BRANCH  12  13
HETATM   13  C   UNL     1     -10.490  12.007  65.784  1.00  0.00    -0.290 C  
HETATM   14  C   UNL     1     -11.006  12.892  64.634  1.00  0.00    -0.332 C  
HETATM   15  C   UNL     1     -11.128  11.920  63.476  1.00  0.00    -0.506 C  
HETATM   16  O   UNL     1     -10.053  13.891  64.269  1.00  0.00    -0.727 OA 
HETATM   17  C   UNL     1      -9.866  11.073  63.597  1.00  0.00    -0.351 C  
HETATM   18  H   UNL     1     -10.371  14.437  63.560  1.00  0.00     0.000 HD 
HETATM   19  C   UNL     1      -9.437  11.108  65.088  1.00  0.00    -0.257 C  
HETATM   20  O   UNL     1      -8.822  11.632  62.802  1.00  0.00    -0.623 OA 
HETATM   21  H   UNL     1      -8.036  11.104  62.877  1.00  0.00     0.000 HD 
BRANCH  19  22
HETATM   22  C   UNL     1      -9.365   9.689  65.682  1.00  0.00    -0.296 C  
BRANCH  22  23
HETATM   23  C   UNL     1     -10.599   9.396  66.539  1.00  0.00    -0.125 C  
BRANCH  23  24
HETATM   24  C   UNL     1     -10.694   7.951  67.043  1.00  0.00    -0.219 C  
HETATM   25  O   UNL     1      -9.589   7.189  66.554  1.00  0.00    -0.208 OA 
HETATM   26  H   UNL     1      -9.648   6.294  66.867  1.00  0.00     0.000 HD 
BRANCH  24  27
HETATM   27  C   UNL     1     -10.644   7.888  68.577  1.00  0.00    -0.146 C  
BRANCH  27  28
HETATM   28  C   UNL     1     -10.161   9.194  69.210  1.00  0.00    -0.196 C  
BRANCH  28  29
HETATM   29  C   UNL     1     -11.205   9.819  70.095  1.00  0.00    -0.324 A  
HETATM   30  C   UNL     1     -11.674  11.111  69.822  1.00  0.00    -0.419 A  
HETATM   31  C   UNL     1     -12.645  11.695  70.634  1.00  0.00    -0.319 A  
HETATM   32  C   UNL     1     -13.151  10.994  71.727  1.00  0.00    -0.554 A  
HETATM   33  C   UNL     1     -12.683   9.712  72.011  1.00  0.00    -0.470 A  
HETATM   34  C   UNL     1     -11.711   9.126  71.199  1.00  0.00    -0.380 A  
ENDBRANCH  28  29
ENDBRANCH  27  28
ENDBRANCH  24  27
ENDBRANCH  23  24
ENDBRANCH  22  23
ENDBRANCH  19  22
ENDBRANCH  12  13
ENDBRANCH  11  12
ENDBRANCH   9  10
ENDBRANCH   8   9
ENDBRANCH   7   8
ENDBRANCH   5   7
ENDBRANCH   4   5
ENDBRANCH   2   4
TORSDOF 14
ENDMDL
MODEL       96
REMARK 921   NORMALIZED FREE ENERGY PREDICTED BY IDOCK:   -5.02 KCAL/MOL
REMARK 922        TOTAL FREE ENERGY PREDICTED BY IDOCK:  -12.42 KCAL/MOL
REMARK 923 INTER-LIGAND FREE ENERGY PREDICTED BY IDOCK:   -8.27 KCAL/MOL
REMARK 924 INTRA-LIGAND FREE ENERGY PREDICTED BY IDOCK:   -4.15 KCAL/MOL
REMARK 927      BINDING AFFINITY PREDICTED BY RF-SCORE:    0.00 PKD
ROOT
HETATM    1  C   UNL     1     -10.506  10.971  63.882  1.00  0.00    -0.422 C  
HETATM    2  C   UNL     1     -11.187  12.335  63.860  1.00  0.00    -0.421 C  
HETATM    3  C   UNL     1     -12.635  12.209  63.405  1.00  0.00    -0.584 C  
ENDROOT
BRANCH   2   4
HETATM    4  O   UNL     1     -11.196  12.888  65.189  1.00  0.00    -0.281 OA 
BRANCH   4   5
HETATM    5  C   UNL     1     -10.808  14.193  65.277  1.00  0.00    -0.349 C  
HETATM    6  O   UNL     1     -10.328  14.852  64.364  1.00  0.00    -0.012 OA 
BRANCH   5   7
HETATM    7  C   UNL     1     -11.038  14.697  66.679  1.00  0.00    -0.334 C  
BRANCH   7   8
HETATM    8  C   UNL     1     -12.240  14.000  67.318  1.00  0.00    -0.325 C  
BRANCH   8   9
HETATM    9  C   UNL     1     -11.853  13.052  68.450  1.00  0.00    -0.370 C  
BRANCH   9  10
HETATM   10  C   UNL     1     -11.713  11.630  67.983  1.00  0.00    -0.351 C  
HETATM   11  C   UNL     1     -11.164  10.611  68.666  1.00  0.00    -0.337 C  
BRANCH  11  12
HETATM   12  C   UNL     1     -10.594  10.665  70.054  1.00  0.00    -0.150 C  
BRANCH  12  13
HETATM   13  C   UNL     1     -10.591   9.340  70.835  1.00  0.00    -0.366 C  
HETATM   14  C   UNL     1     -11.722   9.315  71.880  1.00  0.00    -0.350 C  
HETATM   15  C   UNL     1     -11.792   7.853  72.280  1.00  0.00    -0.404 C  
HETATM   16  O   UNL     1     -12.979   9.673  71.304  1.00  0.00    -0.345 OA 
HETATM   17  C   UNL     1     -11.642   7.120  70.951  1.00  0.00    -0.311 C  
HETATM   18  H   UNL     1     -13.677   9.657  71.949  1.00  0.00     0.000 HD 
HETATM   19  C   UNL     1     -10.858   8.062  69.999  1.00  0.00    -0.235 C  
HETATM   20  O   UNL     1     -12.926   6.857  70.388  1.00  0.00    -0.464 OA 
HETATM   21  H   UNL     1     -12.832   6.400  69.561  1.00  0.00     0.000 HD 
BRANCH  19  22
HETATM   22  C   UNL     1      -9.569   7.393  69.487  1.00  0.00    -0.155 C  
BRANCH  22  23
HETATM   23  C   UNL     1      -9.867   6.485  68.290  1.00  0.00    -0.132 C  
BRANCH  23  24
HETATM   24  C   UNL     1      -9.408   7.044  66.938  1.00  0.00    -0.153 C  
HETATM   25  O   UNL     1     -10.365   7.983  66.447  1.00  0.00    -0.471 OA 
HETATM   26  H   UNL     1     -10.081   8.329  65.610  1.00  0.00     0.000 HD 
BRANCH  24  27
HETATM   27  C   UNL     1      -8.069   7.786  67.065  1.00  0.00    -0.117 C  
BRANCH  27  28
HETATM   28  C   UNL     1      -8.013   9.061  66.223  1.00  0.00    -0.103 C  
BRANCH  28  29
HETATM   29  C   UNL     1      -7.826  10.293  67.066  1.00  0.00    -0.107 A  
HETATM   30  C   UNL     1      -7.271  10.188  68.348  1.00  0.00    -0.076 A  
HETATM   31  C   UNL     1      -7.090  11.326  69.133  1.00  0.00    -0.122 A  
HETATM   32  C   UNL     1      -7.468  12.575  68.645  1.00  0.00    -0.090 A  
HETATM   33  C   UNL     1      -8.031  12.687  67.374  1.00  0.00    -0.177 A  
HETATM   34  C   UNL     1      -8.212  11.549  66.587  1.00  0.00    -0.156 A  
ENDBRANCH  28  29
ENDBRANCH  27  28
ENDBRANCH  24  27
ENDBRANCH  23  24
ENDBRANCH  22  23
ENDBRANCH  19  22
ENDBRANCH  12  13
ENDBRANCH  11  12
ENDBRANCH   9  10
ENDBRANCH   8   9
ENDBRANCH   7   8
ENDBRANCH   5   7
ENDBRANCH   4   5
ENDBRANCH   2   4
TORSDOF 14
ENDMDL
MODEL       97
REMARK 921   NORMALIZED FREE ENERGY PREDICTED BY IDOCK:   -5.02 KCAL/MOL
REMARK 922        TOTAL FREE ENERGY PREDICTED BY IDOCK:  -12.42 KCAL/MOL
REMARK 923 INTER-LIGAND FREE ENERGY PREDICTED BY IDOCK:   -8.54 KCAL/MOL
REMARK 924 INTRA-LIGAND FREE ENERGY PREDICTED BY IDOCK:   -3.89 KCAL/MOL
REMARK 927      BINDING AFFINITY PREDICTED BY RF-SCORE:    0.00 PKD
ROOT
HETATM    1  C   UNL     1     -11.869   9.538  71.478  1.00  0.00    -0.478 C  
HETATM    2  C   UNL     1     -12.639  10.739  70.941  1.00  0.00    -0.401 C  
HETATM    3  C   UNL     1     -13.387  11.448  72.063  1.00  0.00    -0.388 C  
ENDROOT
BRANCH   2   4
HETATM    4  O   UNL     1     -11.716  11.685  70.371  1.00  0.00    -0.313 OA 
BRANCH   4   5
HETATM    5  C   UNL     1     -11.833  11.871  69.024  1.00  0.00    -0.308 C  
HETATM    6  O   UNL     1     -12.390  11.103  68.250  1.00  0.00    -0.532 OA 
BRANCH   5   7
HETATM    7  C   UNL     1     -11.151  13.155  68.627  1.00  0.00    -0.304 C  
BRANCH   7   8
HETATM    8  C   UNL     1     -11.472  13.515  67.176  1.00  0.00    -0.368 C  
BRANCH   8   9
HETATM    9  C   UNL     1     -10.352  13.148  66.205  1.00  0.00    -0.287 C  
BRANCH   9  10
HETATM   10  C   UNL     1     -10.826  12.247  65.099  1.00  0.00    -0.340 C  
HETATM   11  C   UNL     1     -10.391  11.003  64.836  1.00  0.00    -0.378 C  
BRANCH  11  12
HETATM   12  C   UNL     1      -9.356  10.233  65.604  1.00  0.00    -0.241 C  
BRANCH  12  13
HETATM   13  C   UNL     1      -9.794   9.697  66.978  1.00  0.00    -0.249 C  
HETATM   14  C   UNL     1     -10.495   8.333  66.838  1.00  0.00    -0.295 C  
HETATM   15  C   UNL     1     -10.526   7.811  68.262  1.00  0.00    -0.215 C  
HETATM   16  O   UNL     1      -9.725   7.422  66.053  1.00  0.00    -0.423 OA 
HETATM   17  C   UNL     1      -9.145   8.175  68.797  1.00  0.00    -0.144 C  
HETATM   18  H   UNL     1     -10.158   6.581  65.966  1.00  0.00     0.000 HD 
HETATM   19  C   UNL     1      -8.653   9.401  67.984  1.00  0.00    -0.120 C  
HETATM   20  O   UNL     1      -8.240   7.091  68.594  1.00  0.00    -0.119 OA 
HETATM   21  H   UNL     1      -7.380   7.318  68.928  1.00  0.00     0.000 HD 
BRANCH  19  22
HETATM   22  C   UNL     1      -8.336  10.592  68.907  1.00  0.00    -0.150 C  
BRANCH  22  23
HETATM   23  C   UNL     1      -7.302  11.520  68.262  1.00  0.00    -0.091 C  
BRANCH  23  24
HETATM   24  C   UNL     1      -7.410  12.988  68.692  1.00  0.00    -0.097 C  
HETATM   25  O   UNL     1      -6.627  13.212  69.865  1.00  0.00    -0.335 OA 
HETATM   26  H   UNL     1      -6.694  14.122  70.131  1.00  0.00     0.000 HD 
BRANCH  24  27
HETATM   27  C   UNL     1      -6.876  13.931  67.603  1.00  0.00    -0.193 C  
BRANCH  27  28
HETATM   28  C   UNL     1      -6.905  15.401  68.023  1.00  0.00    -0.152 C  
BRANCH  28  29
HETATM   29  C   UNL     1      -8.258  16.025  67.816  1.00  0.00    -0.159 A  
HETATM   30  C   UNL     1      -8.658  16.428  66.535  1.00  0.00    -0.329 A  
HETATM   31  C   UNL     1      -9.912  17.003  66.335  1.00  0.00    -0.318 A  
HETATM   32  C   UNL     1     -10.774  17.184  67.415  1.00  0.00    -0.242 A  
HETATM   33  C   UNL     1     -10.381  16.795  68.695  1.00  0.00    -0.318 A  
HETATM   34  C   UNL     1      -9.126  16.219  68.896  1.00  0.00    -0.250 A  
ENDBRANCH  28  29
ENDBRANCH  27  28
ENDBRANCH  24  27
ENDBRANCH  23  24
ENDBRANCH  22  23
ENDBRANCH  19  22
ENDBRANCH  12  13
ENDBRANCH  11  12
ENDBRANCH   9  10
ENDBRANCH   8   9
ENDBRANCH   7   8
ENDBRANCH   5   7
ENDBRANCH   4   5
ENDBRANCH   2   4
TORSDOF 14
ENDMDL
MODEL       98
REMARK 921   NORMALIZED FREE ENERGY PREDICTED BY IDOCK:   -5.01 KCAL/MOL
REMARK 922        TOTAL FREE ENERGY PREDICTED BY IDOCK:  -12.41 KCAL/MOL
REMARK 923 INTER-LIGAND FREE ENERGY PREDICTED BY IDOCK:   -9.59 KCAL/MOL
REMARK 924 INTRA-LIGAND FREE ENERGY PREDICTED BY IDOCK:   -2.82 KCAL/MOL
REMARK 927      BINDING AFFINITY PREDICTED BY RF-SCORE:    0.00 PKD
ROOT
HETATM    1  C   UNL     1     -10.970   6.042  66.892  1.00  0.00    -0.350 C  
HETATM    2  C   UNL     1      -9.875   6.579  67.808  1.00  0.00    -0.123 C  
HETATM    3  C   UNL     1     -10.322   6.543  69.264  1.00  0.00    -0.237 C  
ENDROOT
BRANCH   2   4
HETATM    4  O   UNL     1      -8.705   5.748  67.693  1.00  0.00    -0.110 OA 
BRANCH   4   5
HETATM    5  C   UNL     1      -8.035   5.850  66.509  1.00  0.00    -0.102 C  
HETATM    6  O   UNL     1      -7.830   4.928  65.730  1.00  0.00    -0.093 OA 
BRANCH   5   7
HETATM    7  C   UNL     1      -7.564   7.268  66.312  1.00  0.00    -0.092 C  
BRANCH   7   8
HETATM    8  C   UNL     1      -7.709   7.692  64.850  1.00  0.00    -0.107 C  
BRANCH   8   9
HETATM    9  C   UNL     1      -8.145   9.146  64.687  1.00  0.00    -0.136 C  
BRANCH   9  10
HETATM   10  C   UNL     1      -9.377   9.467  65.486  1.00  0.00    -0.317 C  
HETATM   11  C   UNL     1     -10.351  10.328  65.147  1.00  0.00    -0.198 C  
BRANCH  11  12
HETATM   12  C   UNL     1     -10.436  11.137  63.885  1.00  0.00    -0.445 C  
BRANCH  12  13
HETATM   13  C   UNL     1     -10.664  12.648  64.065  1.00  0.00    -0.457 C  
HETATM   14  C   UNL     1     -12.012  13.076  63.455  1.00  0.00    -0.545 C  
HETATM   15  C   UNL     1     -12.225  14.465  64.028  1.00  0.00    -0.300 C  
HETATM   16  O   UNL     1     -13.082  12.247  63.907  1.00  0.00    -0.772 OA 
HETATM   17  C   UNL     1     -11.788  14.315  65.481  1.00  0.00    -0.363 C  
HETATM   18  H   UNL     1     -13.914  12.511  63.530  1.00  0.00     0.000 HD 
HETATM   19  C   UNL     1     -10.769  13.145  65.529  1.00  0.00    -0.297 C  
HETATM   20  O   UNL     1     -12.910  13.985  66.299  1.00  0.00    -0.480 OA 
HETATM   21  H   UNL     1     -12.637  13.891  67.204  1.00  0.00     0.000 HD 
BRANCH  19  22
HETATM   22  C   UNL     1      -9.419  13.606  66.110  1.00  0.00    -0.166 C  
BRANCH  22  23
HETATM   23  C   UNL     1      -9.380  13.394  67.627  1.00  0.00    -0.217 C  
BRANCH  23  24
HETATM   24  C   UNL     1      -8.674  12.108  68.071  1.00  0.00    -0.180 C  
HETATM   25  O   UNL     1      -7.620  12.419  68.983  1.00  0.00    -0.305 OA 
HETATM   26  H   UNL     1      -7.183  11.622  69.259  1.00  0.00     0.000 HD 
BRANCH  24  27
HETATM   27  C   UNL     1      -9.640  11.162  68.800  1.00  0.00    -0.180 C  
BRANCH  27  28
HETATM   28  C   UNL     1     -11.108  11.465  68.501  1.00  0.00    -0.287 C  
BRANCH  28  29
HETATM   29  C   UNL     1     -11.888  11.790  69.746  1.00  0.00    -0.420 A  
HETATM   30  C   UNL     1     -12.099  13.126  70.113  1.00  0.00    -0.392 A  
HETATM   31  C   UNL     1     -12.825  13.434  71.263  1.00  0.00    -0.407 A  
HETATM   32  C   UNL     1     -13.340  12.411  72.056  1.00  0.00    -0.511 A  
HETATM   33  C   UNL     1     -13.127  11.079  71.703  1.00  0.00    -0.543 A  
HETATM   34  C   UNL     1     -12.401  10.769  70.552  1.00  0.00    -0.458 A  
ENDBRANCH  28  29
ENDBRANCH  27  28
ENDBRANCH  24  27
ENDBRANCH  23  24
ENDBRANCH  22  23
ENDBRANCH  19  22
ENDBRANCH  12  13
ENDBRANCH  11  12
ENDBRANCH   9  10
ENDBRANCH   8   9
ENDBRANCH   7   8
ENDBRANCH   5   7
ENDBRANCH   4   5
ENDBRANCH   2   4
TORSDOF 14
ENDMDL
MODEL       99
REMARK 921   NORMALIZED FREE ENERGY PREDICTED BY IDOCK:   -5.01 KCAL/MOL
REMARK 922        TOTAL FREE ENERGY PREDICTED BY IDOCK:  -12.41 KCAL/MOL
REMARK 923 INTER-LIGAND FREE ENERGY PREDICTED BY IDOCK:   -8.95 KCAL/MOL
REMARK 924 INTRA-LIGAND FREE ENERGY PREDICTED BY IDOCK:   -3.46 KCAL/MOL
REMARK 927      BINDING AFFINITY PREDICTED BY RF-SCORE:    0.00 PKD
ROOT
HETATM    1  C   UNL     1     -10.805  11.414  64.405  1.00  0.00    -0.397 C  
HETATM    2  C   UNL     1     -11.289  12.585  65.252  1.00  0.00    -0.324 C  
HETATM    3  C   UNL     1     -12.158  13.526  64.428  1.00  0.00    -0.468 C  
ENDROOT
BRANCH   2   4
HETATM    4  O   UNL     1     -12.094  12.090  66.338  1.00  0.00    -0.610 OA 
BRANCH   4   5
HETATM    5  C   UNL     1     -11.623  12.375  67.586  1.00  0.00    -0.357 C  
HETATM    6  O   UNL     1     -11.040  13.404  67.905  1.00  0.00    -0.250 OA 
BRANCH   5   7
HETATM    7  C   UNL     1     -11.909  11.221  68.513  1.00  0.00    -0.355 C  
BRANCH   7   8
HETATM    8  C   UNL     1     -11.441  11.536  69.935  1.00  0.00    -0.340 C  
BRANCH   8   9
HETATM    9  C   UNL     1     -12.551  11.409  70.975  1.00  0.00    -0.487 C  
BRANCH   9  10
HETATM   10  C   UNL     1     -13.268  10.091  70.889  1.00  0.00    -0.336 C  
HETATM   11  C   UNL     1     -12.892   8.935  71.460  1.00  0.00    -0.383 C  
BRANCH  11  12
HETATM   12  C   UNL     1     -11.688   8.712  72.329  1.00  0.00    -0.428 C  
BRANCH  12  13
HETATM   13  C   UNL     1     -10.644   7.716  71.794  1.00  0.00    -0.250 C  
HETATM   14  C   UNL     1      -9.688   7.268  72.915  1.00  0.00    -0.169 C  
HETATM   15  C   UNL     1      -8.991   6.062  72.315  1.00  0.00    -0.141 C  
HETATM   16  O   UNL     1     -10.400   6.832  74.073  1.00  0.00    -0.352 OA 
HETATM   17  C   UNL     1     -10.122   5.320  71.610  1.00  0.00    -0.199 C  
HETATM   18  H   UNL     1      -9.810   6.555  74.765  1.00  0.00     0.000 HD 
HETATM   19  C   UNL     1     -11.204   6.375  71.256  1.00  0.00    -0.346 C  
HETATM   20  O   UNL     1     -10.691   4.349  72.485  1.00  0.00    -0.173 OA 
HETATM   21  H   UNL     1     -11.395   3.887  72.045  1.00  0.00     0.000 HD 
BRANCH  19  22
HETATM   22  C   UNL     1     -11.484   6.401  69.741  1.00  0.00    -0.468 C  
BRANCH  22  23
HETATM   23  C   UNL     1     -10.525   5.468  68.996  1.00  0.00    -0.296 C  
BRANCH  23  24
HETATM   24  C   UNL     1     -10.462   5.700  67.481  1.00  0.00    -0.229 C  
HETATM   25  O   UNL     1     -11.584   6.474  67.058  1.00  0.00    -0.729 OA 
HETATM   26  H   UNL     1     -11.545   6.618  66.120  1.00  0.00     0.000 HD 
BRANCH  24  27
HETATM   27  C   UNL     1      -9.198   6.479  67.087  1.00  0.00    -0.134 C  
BRANCH  27  28
HETATM   28  C   UNL     1      -8.032   6.248  68.048  1.00  0.00    -0.108 C  
BRANCH  28  29
HETATM   29  C   UNL     1      -7.797   7.427  68.952  1.00  0.00    -0.117 A  
HETATM   30  C   UNL     1      -8.587   8.578  68.826  1.00  0.00    -0.131 A  
HETATM   31  C   UNL     1      -8.378   9.672  69.663  1.00  0.00    -0.173 A  
HETATM   32  C   UNL     1      -7.374   9.628  70.628  1.00  0.00    -0.112 A  
HETATM   33  C   UNL     1      -6.577   8.491  70.754  1.00  0.00    -0.041 A  
HETATM   34  C   UNL     1      -6.785   7.394  69.917  1.00  0.00    -0.047 A  
ENDBRANCH  28  29
ENDBRANCH  27  28
ENDBRANCH  24  27
ENDBRANCH  23  24
ENDBRANCH  22  23
ENDBRANCH  19  22
ENDBRANCH  12  13
ENDBRANCH  11  12
ENDBRANCH   9  10
ENDBRANCH   8   9
ENDBRANCH   7   8
ENDBRANCH   5   7
ENDBRANCH   4   5
ENDBRANCH   2   4
TORSDOF 14
ENDMDL
MODEL      100
REMARK 921   NORMALIZED FREE ENERGY PREDICTED BY IDOCK:   -4.99 KCAL/MOL
REMARK 922        TOTAL FREE ENERGY PREDICTED BY IDOCK:  -12.37 KCAL/MOL
REMARK 923 INTER-LIGAND FREE ENERGY PREDICTED BY IDOCK:   -8.95 KCAL/MOL
REMARK 924 INTRA-LIGAND FREE ENERGY PREDICTED BY IDOCK:   -3.41 KCAL/MOL
REMARK 927      BINDING AFFINITY PREDICTED BY RF-SCORE:    0.00 PKD
ROOT
HETATM    1  C   UNL     1      -7.997  10.676  69.180  1.00  0.00    -0.139 C  
HETATM    2  C   UNL     1      -6.684  10.367  69.891  1.00  0.00    -0.134 C  
HETATM    3  C   UNL     1      -6.228   8.946  69.589  1.00  0.00    -0.039 C  
ENDROOT
BRANCH   2   4
HETATM    4  O   UNL     1      -5.660  11.261  69.416  1.00  0.00    -0.044 OA 
BRANCH   4   5
HETATM    5  C   UNL     1      -5.725  12.531  69.910  1.00  0.00    -0.124 C  
HETATM    6  O   UNL     1      -5.758  12.828  71.098  1.00  0.00    -0.339 OA 
BRANCH   5   7
HETATM    7  C   UNL     1      -5.772  13.517  68.771  1.00  0.00    -0.082 C  
BRANCH   7   8
HETATM    8  C   UNL     1      -6.455  14.816  69.203  1.00  0.00    -0.109 C  
BRANCH   8   9
HETATM    9  C   UNL     1      -7.979  14.729  69.183  1.00  0.00    -0.133 C  
BRANCH   9  10
HETATM   10  C   UNL     1      -8.508  14.266  67.855  1.00  0.00    -0.168 C  
HETATM   11  C   UNL     1      -8.581  14.989  66.724  1.00  0.00    -0.279 C  
BRANCH  11  12
HETATM   12  C   UNL     1      -8.127  16.408  66.534  1.00  0.00    -0.345 C  
BRANCH  12  13
HETATM   13  C   UNL     1      -8.769  17.452  67.465  1.00  0.00    -0.221 C  
HETATM   14  C   UNL     1      -8.201  18.856  67.188  1.00  0.00    -0.269 C  
HETATM   15  C   UNL     1      -9.172  19.771  67.910  1.00  0.00    -0.427 C  
HETATM   16  O   UNL     1      -8.246  19.179  65.798  1.00  0.00    -0.441 OA 
HETATM   17  C   UNL     1     -10.532  19.161  67.587  1.00  0.00    -0.441 C  
HETATM   18  H   UNL     1      -7.896  20.045  65.627  1.00  0.00     0.000 HD 
HETATM   19  C   UNL     1     -10.297  17.654  67.302  1.00  0.00    -0.354 C  
HETATM   20  O   UNL     1     -11.080  19.773  66.421  1.00  0.00    -0.297 OA 
HETATM   21  H   UNL     1     -11.927  19.393  66.221  1.00  0.00     0.000 HD 
BRANCH  19  22
HETATM   22  C   UNL     1     -11.129  16.770  68.250  1.00  0.00    -0.259 C  
BRANCH  22  23
HETATM   23  C   UNL     1     -10.645  16.918  69.695  1.00  0.00    -0.172 C  
BRANCH  23  24
HETATM   24  C   UNL     1     -11.279  15.930  70.682  1.00  0.00    -0.378 C  
HETATM   25  O   UNL     1     -11.940  16.641  71.729  1.00  0.00    -0.622 OA 
HETATM   26  H   UNL     1     -12.333  16.030  72.340  1.00  0.00     0.000 HD 
BRANCH  24  27
HETATM   27  C   UNL     1     -12.334  15.051  69.994  1.00  0.00    -0.353 C  
BRANCH  27  28
HETATM   28  C   UNL     1     -11.917  13.583  69.902  1.00  0.00    -0.416 C  
BRANCH  28  29
HETATM   29  C   UNL     1     -11.795  13.114  68.478  1.00  0.00    -0.377 A  
HETATM   30  C   UNL     1     -11.312  11.827  68.202  1.00  0.00    -0.348 A  
HETATM   31  C   UNL     1     -11.201  11.384  66.885  1.00  0.00    -0.331 A  
HETATM   32  C   UNL     1     -11.565  12.224  65.835  1.00  0.00    -0.450 A  
HETATM   33  C   UNL     1     -12.037  13.509  66.100  1.00  0.00    -0.482 A  
HETATM   34  C   UNL     1     -12.150  13.954  67.418  1.00  0.00    -0.380 A  
ENDBRANCH  28  29
ENDBRANCH  27  28
ENDBRANCH  24  27
ENDBRANCH  23  24
ENDBRANCH  22  23
ENDBRANCH  19  22
ENDBRANCH  12  13
ENDBRANCH  11  12
ENDBRANCH   9  10
ENDBRANCH   8   9
ENDBRANCH   7   8
ENDBRANCH   5   7
ENDBRANCH   4   5
ENDBRANCH   2   4
TORSDOF 14
ENDMDL
MODEL      101
REMARK 921   NORMALIZED FREE ENERGY PREDICTED BY IDOCK:   -4.98 KCAL/MOL
REMARK 922        TOTAL FREE ENERGY PREDICTED BY IDOCK:  -12.35 KCAL/MOL
REMARK 923 INTER-LIGAND FREE ENERGY PREDICTED BY IDOCK:   -9.71 KCAL/MOL
REMARK 924 INTRA-LIGAND FREE ENERGY PREDICTED BY IDOCK:   -2.64 KCAL/MOL
REMARK 927      BINDING AFFINITY PREDICTED BY RF-SCORE:    0.00 PKD
ROOT
HETATM    1  C   UNL     1     -10.419  17.471  66.107  1.00  0.00    -0.288 C  
HETATM    2  C   UNL     1     -10.204  15.987  65.836  1.00  0.00    -0.365 C  
HETATM    3  C   UNL     1      -8.827  15.543  66.313  1.00  0.00    -0.338 C  
ENDROOT
BRANCH   2   4
HETATM    4  O   UNL     1     -11.182  15.220  66.563  1.00  0.00    -0.316 OA 
BRANCH   4   5
HETATM    5  C   UNL     1     -11.867  14.301  65.822  1.00  0.00    -0.374 C  
HETATM    6  O   UNL     1     -12.107  14.394  64.624  1.00  0.00    -0.430 OA 
BRANCH   5   7
HETATM    7  C   UNL     1     -12.305  13.161  66.705  1.00  0.00    -0.207 C  
BRANCH   7   8
HETATM    8  C   UNL     1     -11.939  13.432  68.165  1.00  0.00    -0.356 C  
BRANCH   8   9
HETATM    9  C   UNL     1     -11.951  12.175  69.031  1.00  0.00    -0.302 C  
BRANCH   9  10
HETATM   10  C   UNL     1     -12.061  12.490  70.496  1.00  0.00    -0.361 C  
HETATM   11  C   UNL     1     -12.636  11.725  71.440  1.00  0.00    -0.367 C  
BRANCH  11  12
HETATM   12  C   UNL     1     -13.271  10.379  71.241  1.00  0.00    -0.431 C  
BRANCH  12  13
HETATM   13  C   UNL     1     -12.410   9.163  71.624  1.00  0.00    -0.434 C  
HETATM   14  C   UNL     1     -13.286   7.913  71.828  1.00  0.00    -0.329 C  
HETATM   15  C   UNL     1     -12.276   6.781  71.838  1.00  0.00    -0.377 C  
HETATM   16  O   UNL     1     -14.170   7.702  70.727  1.00  0.00    -0.565 OA 
HETATM   17  C   UNL     1     -11.318   7.158  70.713  1.00  0.00    -0.289 C  
HETATM   18  H   UNL     1     -14.710   6.931  70.853  1.00  0.00     0.000 HD 
HETATM   19  C   UNL     1     -11.382   8.701  70.560  1.00  0.00    -0.241 C  
HETATM   20  O   UNL     1     -11.736   6.554  69.490  1.00  0.00    -0.640 OA 
HETATM   21  H   UNL     1     -11.139   6.789  68.789  1.00  0.00     0.000 HD 
BRANCH  19  22
HETATM   22  C   UNL     1      -9.993   9.338  70.744  1.00  0.00    -0.357 C  
BRANCH  22  23
HETATM   23  C   UNL     1      -9.396   9.740  69.392  1.00  0.00    -0.212 C  
BRANCH  23  24
HETATM   24  C   UNL     1      -8.022   9.127  69.096  1.00  0.00    -0.097 C  
HETATM   25  O   UNL     1      -8.091   7.704  69.191  1.00  0.00    -0.121 OA 
HETATM   26  H   UNL     1      -7.241   7.324  69.007  1.00  0.00     0.000 HD 
BRANCH  24  27
HETATM   27  C   UNL     1      -7.553   9.465  67.673  1.00  0.00    -0.088 C  
BRANCH  27  28
HETATM   28  C   UNL     1      -8.125   8.519  66.618  1.00  0.00    -0.104 C  
BRANCH  28  29
HETATM   29  C   UNL     1      -8.733   9.259  65.458  1.00  0.00    -0.204 A  
HETATM   30  C   UNL     1      -8.319   8.976  64.149  1.00  0.00    -0.178 A  
HETATM   31  C   UNL     1      -8.881   9.655  63.069  1.00  0.00    -0.254 A  
HETATM   32  C   UNL     1      -9.857  10.625  63.289  1.00  0.00    -0.364 A  
HETATM   33  C   UNL     1     -10.268  10.920  64.588  1.00  0.00    -0.411 A  
HETATM   34  C   UNL     1      -9.706  10.241  65.671  1.00  0.00    -0.308 A  
ENDBRANCH  28  29
ENDBRANCH  27  28
ENDBRANCH  24  27
ENDBRANCH  23  24
ENDBRANCH  22  23
ENDBRANCH  19  22
ENDBRANCH  12  13
ENDBRANCH  11  12
ENDBRANCH   9  10
ENDBRANCH   8   9
ENDBRANCH   7   8
ENDBRANCH   5   7
ENDBRANCH   4   5
ENDBRANCH   2   4
TORSDOF 14
ENDMDL
MODEL      102
REMARK 921   NORMALIZED FREE ENERGY PREDICTED BY IDOCK:   -4.97 KCAL/MOL
REMARK 922        TOTAL FREE ENERGY PREDICTED BY IDOCK:  -12.33 KCAL/MOL
REMARK 923 INTER-LIGAND FREE ENERGY PREDICTED BY IDOCK:   -9.84 KCAL/MOL
REMARK 924 INTRA-LIGAND FREE ENERGY PREDICTED BY IDOCK:   -2.48 KCAL/MOL
REMARK 927      BINDING AFFINITY PREDICTED BY RF-SCORE:    0.00 PKD
ROOT
HETATM    1  C   UNL     1     -11.024   6.460  67.889  1.00  0.00    -0.416 C  
HETATM    2  C   UNL     1      -9.602   6.070  68.275  1.00  0.00    -0.119 C  
HETATM    3  C   UNL     1      -9.609   4.953  69.310  1.00  0.00    -0.241 C  
ENDROOT
BRANCH   2   4
HETATM    4  O   UNL     1      -8.907   5.580  67.113  1.00  0.00    -0.109 OA 
BRANCH   4   5
HETATM    5  C   UNL     1      -8.359   6.542  66.316  1.00  0.00    -0.124 C  
HETATM    6  O   UNL     1      -8.672   6.761  65.153  1.00  0.00    -0.024 OA 
BRANCH   5   7
HETATM    7  C   UNL     1      -7.289   7.283  67.078  1.00  0.00    -0.093 C  
BRANCH   7   8
HETATM    8  C   UNL     1      -7.380   8.788  66.818  1.00  0.00    -0.082 C  
BRANCH   8   9
HETATM    9  C   UNL     1      -8.168   9.536  67.890  1.00  0.00    -0.114 C  
BRANCH   9  10
HETATM   10  C   UNL     1      -9.623   9.675  67.539  1.00  0.00    -0.180 C  
HETATM   11  C   UNL     1     -10.165  10.584  66.711  1.00  0.00    -0.288 C  
BRANCH  11  12
HETATM   12  C   UNL     1      -9.434  11.642  65.937  1.00  0.00    -0.246 C  
BRANCH  12  13
HETATM   13  C   UNL     1     -10.309  12.718  65.270  1.00  0.00    -0.313 C  
HETATM   14  C   UNL     1     -10.648  12.329  63.819  1.00  0.00    -0.451 C  
HETATM   15  C   UNL     1     -11.770  13.283  63.458  1.00  0.00    -0.390 C  
HETATM   16  O   UNL     1     -11.159  10.998  63.735  1.00  0.00    -0.521 OA 
HETATM   17  C   UNL     1     -12.633  13.300  64.715  1.00  0.00    -0.337 C  
HETATM   18  H   UNL     1     -11.368  10.758  62.840  1.00  0.00     0.000 HD 
HETATM   19  C   UNL     1     -11.704  12.943  65.906  1.00  0.00    -0.449 C  
HETATM   20  O   UNL     1     -13.660  12.316  64.618  1.00  0.00    -0.442 OA 
HETATM   21  H   UNL     1     -14.198  12.327  65.402  1.00  0.00     0.000 HD 
BRANCH  19  22
HETATM   22  C   UNL     1     -11.711  14.055  66.972  1.00  0.00    -0.425 C  
BRANCH  22  23
HETATM   23  C   UNL     1     -10.893  13.638  68.198  1.00  0.00    -0.262 C  
BRANCH  23  24
HETATM   24  C   UNL     1     -11.488  14.082  69.539  1.00  0.00    -0.275 C  
HETATM   25  O   UNL     1     -12.582  14.972  69.318  1.00  0.00    -0.576 OA 
HETATM   26  H   UNL     1     -12.951  15.247  70.149  1.00  0.00     0.000 HD 
BRANCH  24  27
HETATM   27  C   UNL     1     -12.030  12.885  70.335  1.00  0.00    -0.329 C  
BRANCH  27  28
HETATM   28  C   UNL     1     -11.607  11.539  69.747  1.00  0.00    -0.401 C  
BRANCH  28  29
HETATM   29  C   UNL     1     -11.784  10.409  70.724  1.00  0.00    -0.464 A  
HETATM   30  C   UNL     1     -10.814   9.401  70.815  1.00  0.00    -0.372 A  
HETATM   31  C   UNL     1     -10.969   8.354  71.722  1.00  0.00    -0.359 A  
HETATM   32  C   UNL     1     -12.095   8.303  72.540  1.00  0.00    -0.400 A  
HETATM   33  C   UNL     1     -13.070   9.296  72.450  1.00  0.00    -0.481 A  
HETATM   34  C   UNL     1     -12.916  10.345  71.542  1.00  0.00    -0.562 A  
ENDBRANCH  28  29
ENDBRANCH  27  28
ENDBRANCH  24  27
ENDBRANCH  23  24
ENDBRANCH  22  23
ENDBRANCH  19  22
ENDBRANCH  12  13
ENDBRANCH  11  12
ENDBRANCH   9  10
ENDBRANCH   8   9
ENDBRANCH   7   8
ENDBRANCH   5   7
ENDBRANCH   4   5
ENDBRANCH   2   4
TORSDOF 14
ENDMDL
MODEL      103
REMARK 921   NORMALIZED FREE ENERGY PREDICTED BY IDOCK:   -4.96 KCAL/MOL
REMARK 922        TOTAL FREE ENERGY PREDICTED BY IDOCK:  -12.32 KCAL/MOL
REMARK 923 INTER-LIGAND FREE ENERGY PREDICTED BY IDOCK:   -9.49 KCAL/MOL
REMARK 924 INTRA-LIGAND FREE ENERGY PREDICTED BY IDOCK:   -2.82 KCAL/MOL
REMARK 927      BINDING AFFINITY PREDICTED BY RF-SCORE:    0.00 PKD
ROOT
HETATM    1  C   UNL     1     -12.615  10.909  70.921  1.00  0.00    -0.494 C  
HETATM    2  C   UNL     1     -12.491   9.685  71.822  1.00  0.00    -0.402 C  
HETATM    3  C   UNL     1     -13.850   9.288  72.384  1.00  0.00    -0.484 C  
ENDROOT
BRANCH   2   4
HETATM    4  O   UNL     1     -11.999   8.572  71.053  1.00  0.00    -0.284 OA 
BRANCH   4   5
HETATM    5  C   UNL     1     -11.101   7.773  71.699  1.00  0.00    -0.237 C  
HETATM    6  O   UNL     1     -11.289   6.603  72.008  1.00  0.00    -0.255 OA 
BRANCH   5   7
HETATM    7  C   UNL     1      -9.847   8.555  71.997  1.00  0.00    -0.383 C  
BRANCH   7   8
HETATM    8  C   UNL     1      -8.785   8.310  70.923  1.00  0.00    -0.163 C  
BRANCH   8   9
HETATM    9  C   UNL     1      -8.360   9.584  70.197  1.00  0.00    -0.212 C  
BRANCH   9  10
HETATM   10  C   UNL     1      -9.482  10.192  69.404  1.00  0.00    -0.240 C  
HETATM   11  C   UNL     1      -9.367  11.072  68.395  1.00  0.00    -0.179 C  
BRANCH  11  12
HETATM   12  C   UNL     1      -8.091  11.621  67.824  1.00  0.00    -0.139 C  
BRANCH  12  13
HETATM   13  C   UNL     1      -7.845  11.345  66.331  1.00  0.00    -0.067 C  
HETATM   14  C   UNL     1      -6.875  10.163  66.143  1.00  0.00    -0.108 C  
HETATM   15  C   UNL     1      -7.033   9.816  64.675  1.00  0.00    -0.124 C  
HETATM   16  O   UNL     1      -7.274   9.026  66.908  1.00  0.00    -0.084 OA 
HETATM   17  C   UNL     1      -8.538   9.918  64.451  1.00  0.00    -0.185 C  
HETATM   18  H   UNL     1      -6.675   8.298  66.793  1.00  0.00     0.000 HD 
HETATM   19  C   UNL     1      -9.087  10.911  65.510  1.00  0.00    -0.221 C  
HETATM   20  O   UNL     1      -9.151   8.645  64.649  1.00  0.00    -0.417 OA 
HETATM   21  H   UNL     1     -10.089   8.710  64.510  1.00  0.00     0.000 HD 
BRANCH  19  22
HETATM   22  C   UNL     1      -9.814  12.093  64.843  1.00  0.00    -0.173 C  
BRANCH  22  23
HETATM   23  C   UNL     1     -10.640  11.617  63.645  1.00  0.00    -0.493 C  
BRANCH  23  24
HETATM   24  C   UNL     1     -11.962  12.367  63.445  1.00  0.00    -0.504 C  
HETATM   25  O   UNL     1     -12.860  11.577  62.666  1.00  0.00    -0.743 OA 
HETATM   26  H   UNL     1     -13.679  12.042  62.543  1.00  0.00     0.000 HD 
BRANCH  24  27
HETATM   27  C   UNL     1     -12.654  12.651  64.788  1.00  0.00    -0.530 C  
BRANCH  27  28
HETATM   28  C   UNL     1     -12.760  14.144  65.098  1.00  0.00    -0.387 C  
BRANCH  28  29
HETATM   29  C   UNL     1     -11.580  14.648  65.883  1.00  0.00    -0.327 A  
HETATM   30  C   UNL     1     -11.441  14.313  67.236  1.00  0.00    -0.371 A  
HETATM   31  C   UNL     1     -10.347  14.772  67.968  1.00  0.00    -0.237 A  
HETATM   32  C   UNL     1      -9.387  15.574  67.354  1.00  0.00    -0.211 A  
HETATM   33  C   UNL     1      -9.522  15.920  66.010  1.00  0.00    -0.389 A  
HETATM   34  C   UNL     1     -10.616  15.460  65.276  1.00  0.00    -0.450 A  
ENDBRANCH  28  29
ENDBRANCH  27  28
ENDBRANCH  24  27
ENDBRANCH  23  24
ENDBRANCH  22  23
ENDBRANCH  19  22
ENDBRANCH  12  13
ENDBRANCH  11  12
ENDBRANCH   9  10
ENDBRANCH   8   9
ENDBRANCH   7   8
ENDBRANCH   5   7
ENDBRANCH   4   5
ENDBRANCH   2   4
TORSDOF 14
ENDMDL
MODEL      104
REMARK 921   NORMALIZED FREE ENERGY PREDICTED BY IDOCK:   -4.95 KCAL/MOL
REMARK 922        TOTAL FREE ENERGY PREDICTED BY IDOCK:  -12.29 KCAL/MOL
REMARK 923 INTER-LIGAND FREE ENERGY PREDICTED BY IDOCK:  -10.54 KCAL/MOL
REMARK 924 INTRA-LIGAND FREE ENERGY PREDICTED BY IDOCK:   -1.75 KCAL/MOL
REMARK 927      BINDING AFFINITY PREDICTED BY RF-SCORE:    0.00 PKD
ROOT
HETATM    1  C   UNL     1     -10.699   4.693  72.808  1.00  0.00    -0.273 C  
HETATM    2  C   UNL     1      -9.228   5.015  73.047  1.00  0.00    -0.123 C  
HETATM    3  C   UNL     1      -8.337   3.901  72.515  1.00  0.00    -0.098 C  
ENDROOT
BRANCH   2   4
HETATM    4  O   UNL     1      -8.882   6.222  72.343  1.00  0.00    -0.132 OA 
BRANCH   4   5
HETATM    5  C   UNL     1      -8.829   7.348  73.111  1.00  0.00    -0.149 C  
HETATM    6  O   UNL     1      -8.311   7.426  74.218  1.00  0.00    -0.165 OA 
BRANCH   5   7
HETATM    7  C   UNL     1      -9.527   8.480  72.402  1.00  0.00    -0.350 C  
BRANCH   7   8
HETATM    8  C   UNL     1     -11.045   8.290  72.435  1.00  0.00    -0.447 C  
BRANCH   8   9
HETATM    9  C   UNL     1     -11.753   8.903  71.230  1.00  0.00    -0.370 C  
BRANCH   9  10
HETATM   10  C   UNL     1     -13.141   9.375  71.561  1.00  0.00    -0.451 C  
HETATM   11  C   UNL     1     -13.519  10.639  71.818  1.00  0.00    -0.325 C  
BRANCH  11  12
HETATM   12  C   UNL     1     -12.642  11.858  71.806  1.00  0.00    -0.158 C  
BRANCH  12  13
HETATM   13  C   UNL     1     -13.242  13.115  71.153  1.00  0.00    -0.109 C  
HETATM   14  C   UNL     1     -13.929  14.006  72.206  1.00  0.00    -0.553 C  
HETATM   15  C   UNL     1     -14.130  15.317  71.471  1.00  0.00    -0.625 C  
HETATM   16  O   UNL     1     -13.076  14.255  73.323  1.00  0.00    -0.583 OA 
HETATM   17  C   UNL     1     -12.821  15.497  70.711  1.00  0.00    -0.458 C  
HETATM   18  H   UNL     1     -13.499  14.805  73.972  1.00  0.00     0.000 HD 
HETATM   19  C   UNL     1     -12.229  14.080  70.486  1.00  0.00    -0.435 C  
HETATM   20  O   UNL     1     -11.903  16.264  71.488  1.00  0.00    -0.577 OA 
HETATM   21  H   UNL     1     -11.088  16.375  71.014  1.00  0.00     0.000 HD 
BRANCH  19  22
HETATM   22  C   UNL     1     -12.018  13.794  68.988  1.00  0.00    -0.399 C  
BRANCH  22  23
HETATM   23  C   UNL     1     -11.664  15.079  68.234  1.00  0.00    -0.338 C  
BRANCH  23  24
HETATM   24  C   UNL     1     -11.623  14.931  66.709  1.00  0.00    -0.269 C  
HETATM   25  O   UNL     1     -10.270  14.877  66.258  1.00  0.00    -0.272 OA 
HETATM   26  H   UNL     1     -10.244  14.785  65.314  1.00  0.00     0.000 HD 
BRANCH  24  27
HETATM   27  C   UNL     1     -12.305  13.632  66.254  1.00  0.00    -0.464 C  
BRANCH  27  28
HETATM   28  C   UNL     1     -11.761  13.108  64.924  1.00  0.00    -0.377 C  
BRANCH  28  29
HETATM   29  C   UNL     1     -10.926  11.869  65.098  1.00  0.00    -0.365 A  
HETATM   30  C   UNL     1     -10.878  11.224  66.342  1.00  0.00    -0.306 A  
HETATM   31  C   UNL     1     -10.110  10.072  66.509  1.00  0.00    -0.296 A  
HETATM   32  C   UNL     1      -9.381   9.561  65.438  1.00  0.00    -0.324 A  
HETATM   33  C   UNL     1      -9.415  10.202  64.200  1.00  0.00    -0.353 A  
HETATM   34  C   UNL     1     -10.184  11.355  64.031  1.00  0.00    -0.398 A  
ENDBRANCH  28  29
ENDBRANCH  27  28
ENDBRANCH  24  27
ENDBRANCH  23  24
ENDBRANCH  22  23
ENDBRANCH  19  22
ENDBRANCH  12  13
ENDBRANCH  11  12
ENDBRANCH   9  10
ENDBRANCH   8   9
ENDBRANCH   7   8
ENDBRANCH   5   7
ENDBRANCH   4   5
ENDBRANCH   2   4
TORSDOF 14
ENDMDL
MODEL      105
REMARK 921   NORMALIZED FREE ENERGY PREDICTED BY IDOCK:   -4.94 KCAL/MOL
REMARK 922        TOTAL FREE ENERGY PREDICTED BY IDOCK:  -12.28 KCAL/MOL
REMARK 923 INTER-LIGAND FREE ENERGY PREDICTED BY IDOCK:  -10.52 KCAL/MOL
REMARK 924 INTRA-LIGAND FREE ENERGY PREDICTED BY IDOCK:   -1.76 KCAL/MOL
REMARK 927      BINDING AFFINITY PREDICTED BY RF-SCORE:    0.00 PKD
ROOT
HETATM    1  C   UNL     1      -7.341  20.846  67.284  1.00  0.00    -0.378 C  
HETATM    2  C   UNL     1      -7.110  19.403  67.720  1.00  0.00    -0.245 C  
HETATM    3  C   UNL     1      -6.462  19.352  69.098  1.00  0.00    -0.338 C  
ENDROOT
BRANCH   2   4
HETATM    4  O   UNL     1      -8.375  18.722  67.812  1.00  0.00    -0.264 OA 
BRANCH   4   5
HETATM    5  C   UNL     1      -8.786  18.105  66.666  1.00  0.00    -0.264 C  
HETATM    6  O   UNL     1      -8.065  17.821  65.718  1.00  0.00    -0.541 OA 
BRANCH   5   7
HETATM    7  C   UNL     1     -10.269  17.845  66.733  1.00  0.00    -0.360 C  
BRANCH   7   8
HETATM    8  C   UNL     1     -10.597  16.843  67.841  1.00  0.00    -0.361 C  
BRANCH   8   9
HETATM    9  C   UNL     1     -11.250  15.565  67.321  1.00  0.00    -0.226 C  
BRANCH   9  10
HETATM   10  C   UNL     1     -11.170  14.437  68.311  1.00  0.00    -0.295 C  
HETATM   11  C   UNL     1     -10.468  13.300  68.178  1.00  0.00    -0.251 C  
BRANCH  11  12
HETATM   12  C   UNL     1      -9.589  12.918  67.021  1.00  0.00    -0.231 C  
BRANCH  12  13
HETATM   13  C   UNL     1     -10.208  11.957  65.991  1.00  0.00    -0.262 C  
HETATM   14  C   UNL     1     -10.855  12.737  64.831  1.00  0.00    -0.299 C  
HETATM   15  C   UNL     1     -11.077  11.669  63.777  1.00  0.00    -0.499 C  
HETATM   16  O   UNL     1      -9.962  13.710  64.288  1.00  0.00    -0.749 OA 
HETATM   17  C   UNL     1      -9.794  10.847  63.836  1.00  0.00    -0.331 C  
HETATM   18  H   UNL     1     -10.361  14.192  63.573  1.00  0.00     0.000 HD 
HETATM   19  C   UNL     1      -9.215  11.013  65.266  1.00  0.00    -0.229 C  
HETATM   20  O   UNL     1      -8.848  11.347  62.893  1.00  0.00    -0.489 OA 
HETATM   21  H   UNL     1      -8.049  10.835  62.930  1.00  0.00     0.000 HD 
BRANCH  19  22
HETATM   22  C   UNL     1      -9.057   9.650  65.966  1.00  0.00    -0.212 C  
BRANCH  22  23
HETATM   23  C   UNL     1     -10.288   9.330  66.819  1.00  0.00    -0.296 C  
BRANCH  23  24
HETATM   24  C   UNL     1     -10.011   8.414  68.017  1.00  0.00    -0.182 C  
HETATM   25  O   UNL     1      -8.755   7.756  67.849  1.00  0.00    -0.125 OA 
HETATM   26  H   UNL     1      -8.583   7.189  68.591  1.00  0.00     0.000 HD 
BRANCH  24  27
HETATM   27  C   UNL     1      -9.934   9.213  69.327  1.00  0.00    -0.187 C  
BRANCH  27  28
HETATM   28  C   UNL     1     -10.135   8.342  70.567  1.00  0.00    -0.210 C  
BRANCH  28  29
HETATM   29  C   UNL     1     -11.545   8.409  71.087  1.00  0.00    -0.317 A  
HETATM   30  C   UNL     1     -12.342   7.257  71.108  1.00  0.00    -0.381 A  
HETATM   31  C   UNL     1     -13.648   7.311  71.594  1.00  0.00    -0.435 A  
HETATM   32  C   UNL     1     -14.168   8.518  72.057  1.00  0.00    -0.535 A  
HETATM   33  C   UNL     1     -13.386   9.672  72.031  1.00  0.00    -0.547 A  
HETATM   34  C   UNL     1     -12.078   9.619  71.545  1.00  0.00    -0.482 A  
ENDBRANCH  28  29
ENDBRANCH  27  28
ENDBRANCH  24  27
ENDBRANCH  23  24
ENDBRANCH  22  23
ENDBRANCH  19  22
ENDBRANCH  12  13
ENDBRANCH  11  12
ENDBRANCH   9  10
ENDBRANCH   8   9
ENDBRANCH   7   8
ENDBRANCH   5   7
ENDBRANCH   4   5
ENDBRANCH   2   4
TORSDOF 14
ENDMDL
MODEL      106
REMARK 921   NORMALIZED FREE ENERGY PREDICTED BY IDOCK:   -4.94 KCAL/MOL
REMARK 922        TOTAL FREE ENERGY PREDICTED BY IDOCK:  -12.28 KCAL/MOL
REMARK 923 INTER-LIGAND FREE ENERGY PREDICTED BY IDOCK:   -9.92 KCAL/MOL
REMARK 924 INTRA-LIGAND FREE ENERGY PREDICTED BY IDOCK:   -2.36 KCAL/MOL
REMARK 927      BINDING AFFINITY PREDICTED BY RF-SCORE:    0.00 PKD
ROOT
HETATM    1  C   UNL     1      -5.781   8.337  70.758  1.00  0.00    -0.032 C  
HETATM    2  C   UNL     1      -6.398   8.066  72.126  1.00  0.00    -0.051 C  
HETATM    3  C   UNL     1      -5.399   8.362  73.237  1.00  0.00    -0.054 C  
ENDROOT
BRANCH   2   4
HETATM    4  O   UNL     1      -7.532   8.931  72.320  1.00  0.00    -0.338 OA 
BRANCH   4   5
HETATM    5  C   UNL     1      -8.741   8.301  72.365  1.00  0.00    -0.213 C  
HETATM    6  O   UNL     1      -8.968   7.246  72.945  1.00  0.00    -0.127 OA 
BRANCH   5   7
HETATM    7  C   UNL     1      -9.754   9.088  71.574  1.00  0.00    -0.365 C  
BRANCH   7   8
HETATM    8  C   UNL     1     -10.969   8.224  71.232  1.00  0.00    -0.290 C  
BRANCH   8   9
HETATM    9  C   UNL     1     -12.286   8.994  71.275  1.00  0.00    -0.361 C  
BRANCH   9  10
HETATM   10  C   UNL     1     -12.078  10.479  71.371  1.00  0.00    -0.380 C  
HETATM   11  C   UNL     1     -11.936  11.337  70.346  1.00  0.00    -0.471 C  
BRANCH  11  12
HETATM   12  C   UNL     1     -11.981  11.003  68.883  1.00  0.00    -0.332 C  
BRANCH  12  13
HETATM   13  C   UNL     1     -11.062  11.835  67.971  1.00  0.00    -0.297 C  
HETATM   14  C   UNL     1      -9.967  10.953  67.344  1.00  0.00    -0.186 C  
HETATM   15  C   UNL     1      -9.408  11.829  66.239  1.00  0.00    -0.235 C  
HETATM   16  O   UNL     1     -10.514   9.781  66.740  1.00  0.00    -0.231 OA 
HETATM   17  C   UNL     1     -10.655  12.460  65.628  1.00  0.00    -0.265 C  
HETATM   18  H   UNL     1      -9.838   9.237  66.353  1.00  0.00     0.000 HD 
HETATM   19  C   UNL     1     -11.741  12.481  66.737  1.00  0.00    -0.453 C  
HETATM   20  O   UNL     1     -11.121  11.667  64.538  1.00  0.00    -0.321 OA 
HETATM   21  H   UNL     1     -11.898  12.060  64.158  1.00  0.00     0.000 HD 
BRANCH  19  22
HETATM   22  C   UNL     1     -12.240  13.914  67.001  1.00  0.00    -0.392 C  
BRANCH  22  23
HETATM   23  C   UNL     1     -11.284  14.943  66.393  1.00  0.00    -0.331 C  
BRANCH  23  24
HETATM   24  C   UNL     1     -10.396  15.666  67.413  1.00  0.00    -0.275 C  
HETATM   25  O   UNL     1      -9.746  16.777  66.794  1.00  0.00    -0.243 OA 
HETATM   26  H   UNL     1      -9.196  17.225  67.426  1.00  0.00     0.000 HD 
BRANCH  24  27
HETATM   27  C   UNL     1     -11.223  16.220  68.583  1.00  0.00    -0.354 C  
BRANCH  27  28
HETATM   28  C   UNL     1     -10.661  15.823  69.948  1.00  0.00    -0.332 C  
BRANCH  28  29
HETATM   29  C   UNL     1     -11.747  15.545  70.953  1.00  0.00    -0.413 A  
HETATM   30  C   UNL     1     -12.817  14.705  70.615  1.00  0.00    -0.399 A  
HETATM   31  C   UNL     1     -13.823  14.439  71.542  1.00  0.00    -0.455 A  
HETATM   32  C   UNL     1     -13.771  15.015  72.810  1.00  0.00    -0.526 A  
HETATM   33  C   UNL     1     -12.716  15.860  73.151  1.00  0.00    -0.631 A  
HETATM   34  C   UNL     1     -11.707  16.126  72.224  1.00  0.00    -0.564 A  
ENDBRANCH  28  29
ENDBRANCH  27  28
ENDBRANCH  24  27
ENDBRANCH  23  24
ENDBRANCH  22  23
ENDBRANCH  19  22
ENDBRANCH  12  13
ENDBRANCH  11  12
ENDBRANCH   9  10
ENDBRANCH   8   9
ENDBRANCH   7   8
ENDBRANCH   5   7
ENDBRANCH   4   5
ENDBRANCH   2   4
TORSDOF 14
ENDMDL
MODEL      107
REMARK 921   NORMALIZED FREE ENERGY PREDICTED BY IDOCK:   -4.94 KCAL/MOL
REMARK 922        TOTAL FREE ENERGY PREDICTED BY IDOCK:  -12.27 KCAL/MOL
REMARK 923 INTER-LIGAND FREE ENERGY PREDICTED BY IDOCK:   -8.27 KCAL/MOL
REMARK 924 INTRA-LIGAND FREE ENERGY PREDICTED BY IDOCK:   -4.01 KCAL/MOL
REMARK 927      BINDING AFFINITY PREDICTED BY RF-SCORE:    0.00 PKD
ROOT
HETATM    1  C   UNL     1     -10.504  12.961  64.284  1.00  0.00    -0.430 C  
HETATM    2  C   UNL     1     -12.010  12.899  64.515  1.00  0.00    -0.395 C  
HETATM    3  C   UNL     1     -12.682  12.025  63.464  1.00  0.00    -0.567 C  
ENDROOT
BRANCH   2   4
HETATM    4  O   UNL     1     -12.273  12.309  65.802  1.00  0.00    -0.622 OA 
BRANCH   4   5
HETATM    5  C   UNL     1     -12.023  13.117  66.872  1.00  0.00    -0.362 C  
HETATM    6  O   UNL     1     -12.188  14.331  66.897  1.00  0.00    -0.438 OA 
BRANCH   5   7
HETATM    7  C   UNL     1     -11.488  12.294  68.016  1.00  0.00    -0.378 C  
BRANCH   7   8
HETATM    8  C   UNL     1     -11.410  10.815  67.632  1.00  0.00    -0.328 C  
BRANCH   8   9
HETATM    9  C   UNL     1      -9.978  10.319  67.442  1.00  0.00    -0.230 C  
BRANCH   9  10
HETATM   10  C   UNL     1      -9.725   9.824  66.046  1.00  0.00    -0.319 C  
HETATM   11  C   UNL     1      -9.076   8.700  65.699  1.00  0.00    -0.221 C  
BRANCH  11  12
HETATM   12  C   UNL     1      -8.485   7.681  66.630  1.00  0.00    -0.130 C  
BRANCH  12  13
HETATM   13  C   UNL     1      -9.368   6.460  66.944  1.00  0.00    -0.150 C  
HETATM   14  C   UNL     1      -8.652   5.151  66.562  1.00  0.00    -0.111 C  
HETATM   15  C   UNL     1      -9.484   4.088  67.253  1.00  0.00    -0.229 C  
HETATM   16  O   UNL     1      -7.332   5.096  67.103  1.00  0.00    -0.080 OA 
HETATM   17  C   UNL     1      -9.779   4.705  68.616  1.00  0.00    -0.149 C  
HETATM   18  H   UNL     1      -6.890   4.288  66.867  1.00  0.00     0.000 HD 
HETATM   19  C   UNL     1      -9.717   6.245  68.439  1.00  0.00    -0.130 C  
HETATM   20  O   UNL     1      -8.787   4.307  69.559  1.00  0.00    -0.082 OA 
HETATM   21  H   UNL     1      -8.971   4.691  70.408  1.00  0.00     0.000 HD 
BRANCH  19  22
HETATM   22  C   UNL     1     -11.044   6.909  68.852  1.00  0.00    -0.171 C  
BRANCH  22  23
HETATM   23  C   UNL     1     -11.462   6.459  70.255  1.00  0.00    -0.468 C  
BRANCH  23  24
HETATM   24  C   UNL     1     -12.118   7.555  71.104  1.00  0.00    -0.307 C  
HETATM   25  O   UNL     1     -12.178   7.144  72.470  1.00  0.00    -0.497 OA 
HETATM   26  H   UNL     1     -12.584   7.822  72.996  1.00  0.00     0.000 HD 
BRANCH  24  27
HETATM   27  C   UNL     1     -11.309   8.860  71.058  1.00  0.00    -0.350 C  
BRANCH  27  28
HETATM   28  C   UNL     1     -10.084   8.833  71.973  1.00  0.00    -0.397 C  
BRANCH  28  29
HETATM   29  C   UNL     1      -8.804   8.640  71.205  1.00  0.00    -0.263 A  
HETATM   30  C   UNL     1      -8.056   7.467  71.372  1.00  0.00    -0.096 A  
HETATM   31  C   UNL     1      -6.871   7.280  70.661  1.00  0.00    -0.053 A  
HETATM   32  C   UNL     1      -6.424   8.265  69.783  1.00  0.00    -0.036 A  
HETATM   33  C   UNL     1      -7.157   9.439  69.618  1.00  0.00    -0.064 A  
HETATM   34  C   UNL     1      -8.343   9.628  70.329  1.00  0.00    -0.216 A  
ENDBRANCH  28  29
ENDBRANCH  27  28
ENDBRANCH  24  27
ENDBRANCH  23  24
ENDBRANCH  22  23
ENDBRANCH  19  22
ENDBRANCH  12  13
ENDBRANCH  11  12
ENDBRANCH   9  10
ENDBRANCH   8   9
ENDBRANCH   7   8
ENDBRANCH   5   7
ENDBRANCH   4   5
ENDBRANCH   2   4
TORSDOF 14
ENDMDL
MODEL      108
REMARK 921   NORMALIZED FREE ENERGY PREDICTED BY IDOCK:   -4.94 KCAL/MOL
REMARK 922        TOTAL FREE ENERGY PREDICTED BY IDOCK:  -12.27 KCAL/MOL
REMARK 923 INTER-LIGAND FREE ENERGY PREDICTED BY IDOCK:   -9.80 KCAL/MOL
REMARK 924 INTRA-LIGAND FREE ENERGY PREDICTED BY IDOCK:   -2.48 KCAL/MOL
REMARK 927      BINDING AFFINITY PREDICTED BY RF-SCORE:    0.00 PKD
ROOT
HETATM    1  C   UNL     1      -9.629   9.741  69.236  1.00  0.00    -0.204 C  
HETATM    2  C   UNL     1     -10.655   9.528  68.128  1.00  0.00    -0.217 C  
HETATM    3  C   UNL     1     -11.347  10.837  67.773  1.00  0.00    -0.354 C  
ENDROOT
BRANCH   2   4
HETATM    4  O   UNL     1      -9.989   9.054  66.943  1.00  0.00    -0.202 OA 
BRANCH   4   5
HETATM    5  C   UNL     1     -10.104   7.715  66.709  1.00  0.00    -0.255 C  
HETATM    6  O   UNL     1     -11.074   7.026  66.998  1.00  0.00    -0.373 OA 
BRANCH   5   7
HETATM    7  C   UNL     1      -8.843   7.203  66.061  1.00  0.00    -0.154 C  
BRANCH   7   8
HETATM    8  C   UNL     1      -8.723   5.687  66.227  1.00  0.00    -0.131 C  
BRANCH   8   9
HETATM    9  C   UNL     1      -7.930   5.279  67.466  1.00  0.00    -0.100 C  
BRANCH   9  10
HETATM   10  C   UNL     1      -8.594   4.169  68.231  1.00  0.00    -0.110 C  
HETATM   11  C   UNL     1      -9.345   4.296  69.338  1.00  0.00    -0.236 C  
BRANCH  11  12
HETATM   12  C   UNL     1      -9.704   5.575  70.038  1.00  0.00    -0.238 C  
BRANCH  12  13
HETATM   13  C   UNL     1     -10.257   5.431  71.467  1.00  0.00    -0.280 C  
HETATM   14  C   UNL     1      -9.156   4.966  72.438  1.00  0.00    -0.129 C  
HETATM   15  C   UNL     1      -9.766   5.224  73.802  1.00  0.00    -0.151 C  
HETATM   16  O   UNL     1      -7.980   5.767  72.325  1.00  0.00    -0.105 OA 
HETATM   17  C   UNL     1     -10.440   6.581  73.633  1.00  0.00    -0.311 C  
HETATM   18  H   UNL     1      -7.300   5.479  72.924  1.00  0.00     0.000 HD 
HETATM   19  C   UNL     1     -10.775   6.735  72.125  1.00  0.00    -0.249 C  
HETATM   20  O   UNL     1      -9.547   7.624  74.017  1.00  0.00    -0.387 OA 
HETATM   21  H   UNL     1      -9.968   8.469  73.911  1.00  0.00     0.000 HD 
BRANCH  19  22
HETATM   22  C   UNL     1     -12.283   6.964  71.909  1.00  0.00    -0.370 C  
BRANCH  22  23
HETATM   23  C   UNL     1     -12.535   8.313  71.228  1.00  0.00    -0.264 C  
BRANCH  23  24
HETATM   24  C   UNL     1     -13.803   9.035  71.698  1.00  0.00    -0.368 C  
HETATM   25  O   UNL     1     -14.397   8.323  72.784  1.00  0.00    -0.782 OA 
HETATM   26  H   UNL     1     -15.183   8.770  73.075  1.00  0.00     0.000 HD 
BRANCH  24  27
HETATM   27  C   UNL     1     -13.488  10.451  72.203  1.00  0.00    -0.301 C  
BRANCH  27  28
HETATM   28  C   UNL     1     -12.591  11.237  71.246  1.00  0.00    -0.487 C  
BRANCH  28  29
HETATM   29  C   UNL     1     -12.861  12.717  71.298  1.00  0.00    -0.344 A  
HETATM   30  C   UNL     1     -12.255  13.574  70.370  1.00  0.00    -0.426 A  
HETATM   31  C   UNL     1     -12.505  14.945  70.409  1.00  0.00    -0.403 A  
HETATM   32  C   UNL     1     -13.356  15.469  71.379  1.00  0.00    -0.592 A  
HETATM   33  C   UNL     1     -13.955  14.625  72.313  1.00  0.00    -0.589 A  
HETATM   34  C   UNL     1     -13.707  13.252  72.275  1.00  0.00    -0.686 A  
ENDBRANCH  28  29
ENDBRANCH  27  28
ENDBRANCH  24  27
ENDBRANCH  23  24
ENDBRANCH  22  23
ENDBRANCH  19  22
ENDBRANCH  12  13
ENDBRANCH  11  12
ENDBRANCH   9  10
ENDBRANCH   8   9
ENDBRANCH   7   8
ENDBRANCH   5   7
ENDBRANCH   4   5
ENDBRANCH   2   4
TORSDOF 14
ENDMDL
MODEL      109
REMARK 921   NORMALIZED FREE ENERGY PREDICTED BY IDOCK:   -4.94 KCAL/MOL
REMARK 922        TOTAL FREE ENERGY PREDICTED BY IDOCK:  -12.27 KCAL/MOL
REMARK 923 INTER-LIGAND FREE ENERGY PREDICTED BY IDOCK:   -8.13 KCAL/MOL
REMARK 924 INTRA-LIGAND FREE ENERGY PREDICTED BY IDOCK:   -4.14 KCAL/MOL
REMARK 927      BINDING AFFINITY PREDICTED BY RF-SCORE:    0.00 PKD
ROOT
HETATM    1  C   UNL     1     -10.444  11.241  63.725  1.00  0.00    -0.459 C  
HETATM    2  C   UNL     1     -10.810  12.626  64.248  1.00  0.00    -0.379 C  
HETATM    3  C   UNL     1     -12.172  13.060  63.722  1.00  0.00    -0.536 C  
ENDROOT
BRANCH   2   4
HETATM    4  O   UNL     1     -10.893  12.589  65.685  1.00  0.00    -0.266 OA 
BRANCH   4   5
HETATM    5  C   UNL     1     -10.499  13.732  66.318  1.00  0.00    -0.291 C  
HETATM    6  O   UNL     1      -9.842  14.632  65.810  1.00  0.00    -0.317 OA 
BRANCH   5   7
HETATM    7  C   UNL     1     -10.975  13.710  67.748  1.00  0.00    -0.276 C  
BRANCH   7   8
HETATM    8  C   UNL     1     -11.748  12.424  68.045  1.00  0.00    -0.414 C  
BRANCH   8   9
HETATM    9  C   UNL     1     -11.039  11.515  69.046  1.00  0.00    -0.302 C  
BRANCH   9  10
HETATM   10  C   UNL     1     -11.590  10.116  69.038  1.00  0.00    -0.076 C  
HETATM   11  C   UNL     1     -11.249   9.115  69.867  1.00  0.00    -0.118 C  
BRANCH  11  12
HETATM   12  C   UNL     1     -10.263   9.182  70.997  1.00  0.00    -0.372 C  
BRANCH  12  13
HETATM   13  C   UNL     1      -9.915   7.843  71.671  1.00  0.00    -0.227 C  
HETATM   14  C   UNL     1     -10.430   7.808  73.122  1.00  0.00    -0.349 C  
HETATM   15  C   UNL     1     -10.326   6.340  73.490  1.00  0.00    -0.269 C  
HETATM   16  O   UNL     1     -11.805   8.185  73.203  1.00  0.00    -0.568 OA 
HETATM   17  C   UNL     1     -10.823   5.629  72.236  1.00  0.00    -0.242 C  
HETATM   18  H   UNL     1     -12.122   8.163  74.098  1.00  0.00     0.000 HD 
HETATM   19  C   UNL     1     -10.560   6.582  71.040  1.00  0.00    -0.275 C  
HETATM   20  O   UNL     1     -12.225   5.385  72.334  1.00  0.00    -0.077 OA 
HETATM   21  H   UNL     1     -12.535   4.942  71.552  1.00  0.00     0.000 HD 
BRANCH  19  22
HETATM   22  C   UNL     1      -9.668   5.913  69.978  1.00  0.00    -0.209 C  
BRANCH  22  23
HETATM   23  C   UNL     1     -10.518   5.147  68.959  1.00  0.00    -0.149 C  
BRANCH  23  24
HETATM   24  C   UNL     1     -10.543   5.769  67.558  1.00  0.00    -0.253 C  
HETATM   25  O   UNL     1     -11.548   6.780  67.490  1.00  0.00    -0.668 OA 
HETATM   26  H   UNL     1     -11.564   7.165  66.622  1.00  0.00     0.000 HD 
BRANCH  24  27
HETATM   27  C   UNL     1      -9.202   6.438  67.218  1.00  0.00    -0.122 C  
BRANCH  27  28
HETATM   28  C   UNL     1      -9.370   7.739  66.432  1.00  0.00    -0.237 C  
BRANCH  28  29
HETATM   29  C   UNL     1      -8.650   8.892  67.079  1.00  0.00    -0.120 A  
HETATM   30  C   UNL     1      -7.949   8.699  68.277  1.00  0.00    -0.110 A  
HETATM   31  C   UNL     1      -7.276   9.761  68.878  1.00  0.00    -0.072 A  
HETATM   32  C   UNL     1      -7.304  11.024  68.291  1.00  0.00    -0.088 A  
HETATM   33  C   UNL     1      -8.007  11.227  67.104  1.00  0.00    -0.151 A  
HETATM   34  C   UNL     1      -8.681  10.165  66.500  1.00  0.00    -0.139 A  
ENDBRANCH  28  29
ENDBRANCH  27  28
ENDBRANCH  24  27
ENDBRANCH  23  24
ENDBRANCH  22  23
ENDBRANCH  19  22
ENDBRANCH  12  13
ENDBRANCH  11  12
ENDBRANCH   9  10
ENDBRANCH   8   9
ENDBRANCH   7   8
ENDBRANCH   5   7
ENDBRANCH   4   5
ENDBRANCH   2   4
TORSDOF 14
ENDMDL
MODEL      110
REMARK 921   NORMALIZED FREE ENERGY PREDICTED BY IDOCK:   -4.93 KCAL/MOL
REMARK 922        TOTAL FREE ENERGY PREDICTED BY IDOCK:  -12.25 KCAL/MOL
REMARK 923 INTER-LIGAND FREE ENERGY PREDICTED BY IDOCK:   -9.15 KCAL/MOL
REMARK 924 INTRA-LIGAND FREE ENERGY PREDICTED BY IDOCK:   -3.10 KCAL/MOL
REMARK 927      BINDING AFFINITY PREDICTED BY RF-SCORE:    0.00 PKD
ROOT
HETATM    1  C   UNL     1      -7.010   4.547  65.967  1.00  0.00    -0.066 C  
HETATM    2  C   UNL     1      -8.379   5.005  65.478  1.00  0.00    -0.126 C  
HETATM    3  C   UNL     1      -8.475   4.900  63.962  1.00  0.00    -0.137 C  
ENDROOT
BRANCH   2   4
HETATM    4  O   UNL     1      -9.397   4.154  66.037  1.00  0.00    -0.142 OA 
BRANCH   4   5
HETATM    5  C   UNL     1      -9.327   3.975  67.388  1.00  0.00    -0.183 C  
HETATM    6  O   UNL     1      -8.897   2.974  67.948  1.00  0.00    -0.104 OA 
BRANCH   5   7
HETATM    7  C   UNL     1      -9.880   5.189  68.090  1.00  0.00    -0.204 C  
BRANCH   7   8
HETATM    8  C   UNL     1     -10.130   4.894  69.570  1.00  0.00    -0.286 C  
BRANCH   8   9
HETATM    9  C   UNL     1      -9.366   5.828  70.506  1.00  0.00    -0.189 C  
BRANCH   9  10
HETATM   10  C   UNL     1      -9.025   7.138  69.854  1.00  0.00    -0.142 C  
HETATM   11  C   UNL     1      -9.459   8.355  70.223  1.00  0.00    -0.168 C  
BRANCH  11  12
HETATM   12  C   UNL     1     -10.359   8.673  71.383  1.00  0.00    -0.331 C  
BRANCH  12  13
HETATM   13  C   UNL     1     -11.864   8.742  71.071  1.00  0.00    -0.315 C  
HETATM   14  C   UNL     1     -12.548   7.393  71.361  1.00  0.00    -0.370 C  
HETATM   15  C   UNL     1     -14.024   7.744  71.348  1.00  0.00    -0.416 C  
HETATM   16  O   UNL     1     -12.224   6.908  72.664  1.00  0.00    -0.491 OA 
HETATM   17  C   UNL     1     -14.075   9.072  72.096  1.00  0.00    -0.391 C  
HETATM   18  H   UNL     1     -12.646   6.075  72.843  1.00  0.00     0.000 HD 
HETATM   19  C   UNL     1     -12.686   9.742  71.924  1.00  0.00    -0.501 C  
HETATM   20  O   UNL     1     -14.310   8.844  73.484  1.00  0.00    -1.151 OA 
HETATM   21  H   UNL     1     -14.342   9.671  73.950  1.00  0.00     0.000 HD 
BRANCH  19  22
HETATM   22  C   UNL     1     -12.813  11.132  71.273  1.00  0.00    -0.515 C  
BRANCH  22  23
HETATM   23  C   UNL     1     -12.158  11.145  69.889  1.00  0.00    -0.418 C  
BRANCH  23  24
HETATM   24  C   UNL     1     -12.020  12.539  69.264  1.00  0.00    -0.250 C  
HETATM   25  O   UNL     1     -11.138  13.341  70.050  1.00  0.00    -0.462 OA 
HETATM   26  H   UNL     1     -11.052  14.204  69.663  1.00  0.00     0.000 HD 
BRANCH  24  27
HETATM   27  C   UNL     1     -11.426  12.463  67.850  1.00  0.00    -0.385 C  
BRANCH  27  28
HETATM   28  C   UNL     1      -9.911  12.258  67.851  1.00  0.00    -0.201 C  
BRANCH  28  29
HETATM   29  C   UNL     1      -9.519  10.900  67.334  1.00  0.00    -0.170 A  
HETATM   30  C   UNL     1     -10.507   9.984  66.948  1.00  0.00    -0.284 A  
HETATM   31  C   UNL     1     -10.151   8.727  66.463  1.00  0.00    -0.349 A  
HETATM   32  C   UNL     1      -8.807   8.374  66.365  1.00  0.00    -0.181 A  
HETATM   33  C   UNL     1      -7.818   9.275  66.756  1.00  0.00    -0.104 A  
HETATM   34  C   UNL     1      -8.172  10.535  67.241  1.00  0.00    -0.119 A  
ENDBRANCH  28  29
ENDBRANCH  27  28
ENDBRANCH  24  27
ENDBRANCH  23  24
ENDBRANCH  22  23
ENDBRANCH  19  22
ENDBRANCH  12  13
ENDBRANCH  11  12
ENDBRANCH   9  10
ENDBRANCH   8   9
ENDBRANCH   7   8
ENDBRANCH   5   7
ENDBRANCH   4   5
ENDBRANCH   2   4
TORSDOF 14
ENDMDL
MODEL      111
REMARK 921   NORMALIZED FREE ENERGY PREDICTED BY IDOCK:   -4.91 KCAL/MOL
REMARK 922        TOTAL FREE ENERGY PREDICTED BY IDOCK:  -12.23 KCAL/MOL
REMARK 923 INTER-LIGAND FREE ENERGY PREDICTED BY IDOCK:   -9.79 KCAL/MOL
REMARK 924 INTRA-LIGAND FREE ENERGY PREDICTED BY IDOCK:   -2.44 KCAL/MOL
REMARK 927      BINDING AFFINITY PREDICTED BY RF-SCORE:    0.00 PKD
ROOT
HETATM    1  C   UNL     1     -13.242  10.969  71.827  1.00  0.00    -0.505 C  
HETATM    2  C   UNL     1     -12.836   9.504  71.943  1.00  0.00    -0.420 C  
HETATM    3  C   UNL     1     -14.064   8.603  71.966  1.00  0.00    -0.523 C  
ENDROOT
BRANCH   2   4
HETATM    4  O   UNL     1     -12.048   9.133  70.797  1.00  0.00    -0.254 OA 
BRANCH   4   5
HETATM    5  C   UNL     1     -10.697   9.204  70.975  1.00  0.00    -0.293 C  
HETATM    6  O   UNL     1      -9.937   9.931  70.347  1.00  0.00    -0.259 OA 
BRANCH   5   7
HETATM    7  C   UNL     1     -10.274   8.234  72.048  1.00  0.00    -0.339 C  
BRANCH   7   8
HETATM    8  C   UNL     1     -10.411   6.790  71.561  1.00  0.00    -0.236 C  
BRANCH   8   9
HETATM    9  C   UNL     1      -9.474   6.455  70.404  1.00  0.00    -0.172 C  
BRANCH   9  10
HETATM   10  C   UNL     1     -10.117   5.552  69.390  1.00  0.00    -0.306 C  
HETATM   11  C   UNL     1     -10.710   5.926  68.243  1.00  0.00    -0.319 C  
BRANCH  11  12
HETATM   12  C   UNL     1     -10.836   7.326  67.713  1.00  0.00    -0.214 C  
BRANCH  12  13
HETATM   13  C   UNL     1      -9.539   7.972  67.196  1.00  0.00    -0.227 C  
HETATM   14  C   UNL     1      -8.692   6.953  66.412  1.00  0.00    -0.142 C  
HETATM   15  C   UNL     1      -7.676   7.824  65.698  1.00  0.00    -0.101 C  
HETATM   16  O   UNL     1      -9.465   6.277  65.420  1.00  0.00    -0.341 OA 
HETATM   17  C   UNL     1      -8.507   9.010  65.221  1.00  0.00    -0.166 C  
HETATM   18  H   UNL     1      -8.942   5.648  64.937  1.00  0.00     0.000 HD 
HETATM   19  C   UNL     1      -9.718   9.131  66.183  1.00  0.00    -0.357 C  
HETATM   20  O   UNL     1      -8.988   8.773  63.899  1.00  0.00    -0.419 OA 
HETATM   21  H   UNL     1      -9.505   9.512  63.602  1.00  0.00     0.000 HD 
BRANCH  19  22
HETATM   22  C   UNL     1      -9.764  10.518  66.851  1.00  0.00    -0.218 C  
BRANCH  22  23
HETATM   23  C   UNL     1     -11.018  11.286  66.424  1.00  0.00    -0.285 C  
BRANCH  23  24
HETATM   24  C   UNL     1     -11.765  11.973  67.572  1.00  0.00    -0.280 C  
HETATM   25  O   UNL     1     -12.341  10.993  68.437  1.00  0.00    -0.762 OA 
HETATM   26  H   UNL     1     -12.804  11.419  69.149  1.00  0.00     0.000 HD 
BRANCH  24  27
HETATM   27  C   UNL     1     -10.816  12.829  68.425  1.00  0.00    -0.272 C  
BRANCH  27  28
HETATM   28  C   UNL     1     -11.454  14.137  68.893  1.00  0.00    -0.327 C  
BRANCH  28  29
HETATM   29  C   UNL     1     -11.006  15.315  68.072  1.00  0.00    -0.299 A  
HETATM   30  C   UNL     1     -10.889  16.580  68.664  1.00  0.00    -0.345 A  
HETATM   31  C   UNL     1     -10.469  17.675  67.909  1.00  0.00    -0.392 A  
HETATM   32  C   UNL     1     -10.170  17.515  66.558  1.00  0.00    -0.342 A  
HETATM   33  C   UNL     1     -10.293  16.262  65.959  1.00  0.00    -0.363 A  
HETATM   34  C   UNL     1     -10.712  15.165  66.713  1.00  0.00    -0.311 A  
ENDBRANCH  28  29
ENDBRANCH  27  28
ENDBRANCH  24  27
ENDBRANCH  23  24
ENDBRANCH  22  23
ENDBRANCH  19  22
ENDBRANCH  12  13
ENDBRANCH  11  12
ENDBRANCH   9  10
ENDBRANCH   8   9
ENDBRANCH   7   8
ENDBRANCH   5   7
ENDBRANCH   4   5
ENDBRANCH   2   4
TORSDOF 14
ENDMDL
MODEL      112
REMARK 921   NORMALIZED FREE ENERGY PREDICTED BY IDOCK:   -4.90 KCAL/MOL
REMARK 922        TOTAL FREE ENERGY PREDICTED BY IDOCK:  -12.21 KCAL/MOL
REMARK 923 INTER-LIGAND FREE ENERGY PREDICTED BY IDOCK:   -9.48 KCAL/MOL
REMARK 924 INTRA-LIGAND FREE ENERGY PREDICTED BY IDOCK:   -2.73 KCAL/MOL
REMARK 927      BINDING AFFINITY PREDICTED BY RF-SCORE:    0.00 PKD
ROOT
HETATM    1  C   UNL     1      -7.672  15.635  69.288  1.00  0.00    -0.223 C  
HETATM    2  C   UNL     1      -6.886  15.353  68.013  1.00  0.00    -0.140 C  
HETATM    3  C   UNL     1      -6.880  13.862  67.700  1.00  0.00    -0.193 C  
ENDROOT
BRANCH   2   4
HETATM    4  O   UNL     1      -7.514  16.025  66.905  1.00  0.00    -0.216 OA 
BRANCH   4   5
HETATM    5  C   UNL     1      -7.068  17.292  66.668  1.00  0.00    -0.243 C  
HETATM    6  O   UNL     1      -5.939  17.702  66.908  1.00  0.00    -0.131 OA 
BRANCH   5   7
HETATM    7  C   UNL     1      -8.183  18.122  66.084  1.00  0.00    -0.174 C  
BRANCH   7   8
HETATM    8  C   UNL     1      -8.908  18.907  67.180  1.00  0.00    -0.298 C  
BRANCH   8   9
HETATM    9  C   UNL     1     -10.408  18.628  67.225  1.00  0.00    -0.440 C  
BRANCH   9  10
HETATM   10  C   UNL     1     -10.758  17.540  68.201  1.00  0.00    -0.330 C  
HETATM   11  C   UNL     1     -10.959  16.242  67.918  1.00  0.00    -0.310 C  
BRANCH  11  12
HETATM   12  C   UNL     1     -10.852  15.590  66.570  1.00  0.00    -0.284 C  
BRANCH  12  13
HETATM   13  C   UNL     1     -11.445  14.175  66.455  1.00  0.00    -0.362 C  
HETATM   14  C   UNL     1     -12.173  13.992  65.110  1.00  0.00    -0.436 C  
HETATM   15  C   UNL     1     -12.365  12.490  65.022  1.00  0.00    -0.522 C  
HETATM   16  O   UNL     1     -11.358  14.396  64.010  1.00  0.00    -0.598 OA 
HETATM   17  C   UNL     1     -11.033  11.938  65.521  1.00  0.00    -0.297 C  
HETATM   18  H   UNL     1     -11.807  14.283  63.180  1.00  0.00     0.000 HD 
HETATM   19  C   UNL     1     -10.421  13.012  66.459  1.00  0.00    -0.284 C  
HETATM   20  O   UNL     1     -10.149  11.724  64.423  1.00  0.00    -0.262 OA 
HETATM   21  H   UNL     1      -9.320  11.380  64.734  1.00  0.00     0.000 HD 
BRANCH  19  22
HETATM   22  C   UNL     1     -10.159  12.441  67.865  1.00  0.00    -0.208 C  
BRANCH  22  23
HETATM   23  C   UNL     1     -11.365  12.674  68.779  1.00  0.00    -0.333 C  
BRANCH  23  24
HETATM   24  C   UNL     1     -11.731  11.480  69.668  1.00  0.00    -0.351 C  
HETATM   25  O   UNL     1     -12.707  10.666  69.017  1.00  0.00    -0.675 OA 
HETATM   26  H   UNL     1     -12.933   9.926  69.567  1.00  0.00     0.000 HD 
BRANCH  24  27
HETATM   27  C   UNL     1     -10.508  10.590  69.941  1.00  0.00    -0.213 C  
BRANCH  27  28
HETATM   28  C   UNL     1     -10.873   9.268  70.616  1.00  0.00    -0.339 C  
BRANCH  28  29
HETATM   29  C   UNL     1     -10.676   8.089  69.703  1.00  0.00    -0.207 A  
HETATM   30  C   UNL     1     -10.837   6.786  70.194  1.00  0.00    -0.311 A  
HETATM   31  C   UNL     1     -10.661   5.689  69.352  1.00  0.00    -0.365 A  
HETATM   32  C   UNL     1     -10.318   5.885  68.016  1.00  0.00    -0.257 A  
HETATM   33  C   UNL     1     -10.145   7.177  67.522  1.00  0.00    -0.241 A  
HETATM   34  C   UNL     1     -10.322   8.277  68.363  1.00  0.00    -0.237 A  
ENDBRANCH  28  29
ENDBRANCH  27  28
ENDBRANCH  24  27
ENDBRANCH  23  24
ENDBRANCH  22  23
ENDBRANCH  19  22
ENDBRANCH  12  13
ENDBRANCH  11  12
ENDBRANCH   9  10
ENDBRANCH   8   9
ENDBRANCH   7   8
ENDBRANCH   5   7
ENDBRANCH   4   5
ENDBRANCH   2   4
TORSDOF 14
ENDMDL
MODEL      113
REMARK 921   NORMALIZED FREE ENERGY PREDICTED BY IDOCK:   -4.88 KCAL/MOL
REMARK 922        TOTAL FREE ENERGY PREDICTED BY IDOCK:  -12.17 KCAL/MOL
REMARK 923 INTER-LIGAND FREE ENERGY PREDICTED BY IDOCK:   -9.46 KCAL/MOL
REMARK 924 INTRA-LIGAND FREE ENERGY PREDICTED BY IDOCK:   -2.70 KCAL/MOL
REMARK 927      BINDING AFFINITY PREDICTED BY RF-SCORE:    0.00 PKD
ROOT
HETATM    1  C   UNL     1      -7.448   7.704  64.175  1.00  0.00    -0.102 C  
HETATM    2  C   UNL     1      -7.995   8.744  65.146  1.00  0.00    -0.125 C  
HETATM    3  C   UNL     1      -8.635   9.903  64.392  1.00  0.00    -0.197 C  
ENDROOT
BRANCH   2   4
HETATM    4  O   UNL     1      -9.014   8.145  65.967  1.00  0.00    -0.166 OA 
BRANCH   4   5
HETATM    5  C   UNL     1      -9.020   8.549  67.270  1.00  0.00    -0.129 C  
HETATM    6  O   UNL     1      -8.095   8.404  68.060  1.00  0.00    -0.120 OA 
BRANCH   5   7
HETATM    7  C   UNL     1     -10.349   9.180  67.601  1.00  0.00    -0.314 C  
BRANCH   7   8
HETATM    8  C   UNL     1     -10.187  10.676  67.875  1.00  0.00    -0.206 C  
BRANCH   8   9
HETATM    9  C   UNL     1     -11.463  11.331  68.398  1.00  0.00    -0.377 C  
BRANCH   9  10
HETATM   10  C   UNL     1     -11.418  11.568  69.882  1.00  0.00    -0.340 C  
HETATM   11  C   UNL     1     -12.113  12.490  70.569  1.00  0.00    -0.361 C  
BRANCH  11  12
HETATM   12  C   UNL     1     -13.105  13.468  70.008  1.00  0.00     0.605 C  
BRANCH  12  13
HETATM   13  C   UNL     1     -13.286  14.775  70.799  1.00  0.00    -0.355 C  
HETATM   14  C   UNL     1     -14.347  14.607  71.902  1.00  0.00    -0.571 C  
HETATM   15  C   UNL     1     -14.135  15.828  72.776  1.00  0.00    -0.425 C  
HETATM   16  O   UNL     1     -14.100  13.449  72.700  1.00  0.00    -0.767 OA 
HETATM   17  C   UNL     1     -12.616  15.939  72.859  1.00  0.00    -0.480 C  
HETATM   18  H   UNL     1     -14.755  13.345  73.380  1.00  0.00     0.000 HD 
HETATM   19  C   UNL     1     -12.043  15.269  71.582  1.00  0.00    -0.429 C  
HETATM   20  O   UNL     1     -12.135  15.239  74.005  1.00  0.00    -0.562 OA 
HETATM   21  H   UNL     1     -11.189  15.309  74.056  1.00  0.00     0.000 HD 
BRANCH  19  22
HETATM   22  C   UNL     1     -11.172  16.252  70.778  1.00  0.00    -0.293 C  
BRANCH  22  23
HETATM   23  C   UNL     1     -10.098  15.503  69.984  1.00  0.00    -0.241 C  
BRANCH  23  24
HETATM   24  C   UNL     1     -10.068  15.834  68.487  1.00  0.00    -0.215 C  
HETATM   25  O   UNL     1      -8.769  16.296  68.116  1.00  0.00    -0.176 OA 
HETATM   26  H   UNL     1      -8.750  16.502  67.189  1.00  0.00     0.000 HD 
BRANCH  24  27
HETATM   27  C   UNL     1     -10.370  14.594  67.632  1.00  0.00    -0.233 C  
BRANCH  27  28
HETATM   28  C   UNL     1     -11.516  14.817  66.646  1.00  0.00    -0.339 C  
BRANCH  28  29
HETATM   29  C   UNL     1     -11.504  13.815  65.523  1.00  0.00    -0.319 A  
HETATM   30  C   UNL     1     -10.337  13.616  64.773  1.00  0.00    -0.414 A  
HETATM   31  C   UNL     1     -10.318  12.686  63.734  1.00  0.00    -0.360 A  
HETATM   32  C   UNL     1     -11.464  11.953  63.435  1.00  0.00    -0.470 A  
HETATM   33  C   UNL     1     -12.632  12.153  64.170  1.00  0.00    -0.466 A  
HETATM   34  C   UNL     1     -12.653  13.083  65.210  1.00  0.00    -0.516 A  
ENDBRANCH  28  29
ENDBRANCH  27  28
ENDBRANCH  24  27
ENDBRANCH  23  24
ENDBRANCH  22  23
ENDBRANCH  19  22
ENDBRANCH  12  13
ENDBRANCH  11  12
ENDBRANCH   9  10
ENDBRANCH   8   9
ENDBRANCH   7   8
ENDBRANCH   5   7
ENDBRANCH   4   5
ENDBRANCH   2   4
TORSDOF 14
ENDMDL
MODEL      114
REMARK 921   NORMALIZED FREE ENERGY PREDICTED BY IDOCK:   -4.86 KCAL/MOL
REMARK 922        TOTAL FREE ENERGY PREDICTED BY IDOCK:  -12.13 KCAL/MOL
REMARK 923 INTER-LIGAND FREE ENERGY PREDICTED BY IDOCK:   -9.71 KCAL/MOL
REMARK 924 INTRA-LIGAND FREE ENERGY PREDICTED BY IDOCK:   -2.42 KCAL/MOL
REMARK 927      BINDING AFFINITY PREDICTED BY RF-SCORE:    0.00 PKD
ROOT
HETATM    1  C   UNL     1     -12.540  13.052  71.242  1.00  0.00    -0.373 C  
HETATM    2  C   UNL     1     -12.582  14.067  70.106  1.00  0.00    -0.251 C  
HETATM    3  C   UNL     1     -12.385  15.481  70.637  1.00  0.00    -0.462 C  
ENDROOT
BRANCH   2   4
HETATM    4  O   UNL     1     -11.510  13.798  69.183  1.00  0.00    -0.262 OA 
BRANCH   4   5
HETATM    5  C   UNL     1     -11.897  13.292  67.977  1.00  0.00    -0.355 C  
HETATM    6  O   UNL     1     -12.101  12.108  67.738  1.00  0.00    -0.508 OA 
BRANCH   5   7
HETATM    7  C   UNL     1     -12.015  14.409  66.971  1.00  0.00    -0.424 C  
BRANCH   7   8
HETATM    8  C   UNL     1     -12.621  13.901  65.662  1.00  0.00    -0.553 C  
BRANCH   8   9
HETATM    9  C   UNL     1     -11.643  13.944  64.490  1.00  0.00    -0.409 C  
BRANCH   9  10
HETATM   10  C   UNL     1     -11.715  12.708  63.639  1.00  0.00    -0.597 C  
HETATM   11  C   UNL     1     -11.073  11.547  63.854  1.00  0.00    -0.458 C  
BRANCH  11  12
HETATM   12  C   UNL     1     -10.163  11.224  65.004  1.00  0.00    -0.339 C  
BRANCH  12  13
HETATM   13  C   UNL     1      -9.584   9.799  65.027  1.00  0.00    -0.333 C  
HETATM   14  C   UNL     1      -8.250   9.735  64.260  1.00  0.00    -0.160 C  
HETATM   15  C   UNL     1      -7.670   8.399  64.685  1.00  0.00    -0.112 C  
HETATM   16  O   UNL     1      -7.349  10.759  64.683  1.00  0.00    -0.352 OA 
HETATM   17  C   UNL     1      -7.966   8.349  66.180  1.00  0.00    -0.100 C  
HETATM   18  H   UNL     1      -6.526  10.720  64.209  1.00  0.00     0.000 HD 
HETATM   19  C   UNL     1      -9.210   9.244  66.425  1.00  0.00    -0.227 C  
HETATM   20  O   UNL     1      -6.864   8.875  66.916  1.00  0.00    -0.074 OA 
HETATM   21  H   UNL     1      -7.049   8.843  67.847  1.00  0.00     0.000 HD 
BRANCH  19  22
HETATM   22  C   UNL     1     -10.351   8.447  67.085  1.00  0.00    -0.381 C  
BRANCH  22  23
HETATM   23  C   UNL     1     -10.908   9.198  68.297  1.00  0.00    -0.104 C  
BRANCH  23  24
HETATM   24  C   UNL     1      -9.844   9.683  69.289  1.00  0.00    -0.189 C  
HETATM   25  O   UNL     1     -10.058  11.060  69.601  1.00  0.00    -0.440 OA 
HETATM   26  H   UNL     1      -9.399  11.360  70.216  1.00  0.00     0.000 HD 
BRANCH  24  27
HETATM   27  C   UNL     1      -9.913   8.902  70.611  1.00  0.00    -0.265 C  
BRANCH  27  28
HETATM   28  C   UNL     1     -11.158   8.020  70.716  1.00  0.00    -0.269 C  
BRANCH  28  29
HETATM   29  C   UNL     1     -10.862   6.691  71.356  1.00  0.00    -0.282 A  
HETATM   30  C   UNL     1     -10.245   5.676  70.613  1.00  0.00    -0.292 A  
HETATM   31  C   UNL     1      -9.963   4.444  71.201  1.00  0.00    -0.243 A  
HETATM   32  C   UNL     1     -10.300   4.215  72.533  1.00  0.00    -0.228 A  
HETATM   33  C   UNL     1     -10.923   5.217  73.277  1.00  0.00    -0.375 A  
HETATM   34  C   UNL     1     -11.206   6.451  72.690  1.00  0.00    -0.290 A  
ENDBRANCH  28  29
ENDBRANCH  27  28
ENDBRANCH  24  27
ENDBRANCH  23  24
ENDBRANCH  22  23
ENDBRANCH  19  22
ENDBRANCH  12  13
ENDBRANCH  11  12
ENDBRANCH   9  10
ENDBRANCH   8   9
ENDBRANCH   7   8
ENDBRANCH   5   7
ENDBRANCH   4   5
ENDBRANCH   2   4
TORSDOF 14
ENDMDL
MODEL      115
REMARK 921   NORMALIZED FREE ENERGY PREDICTED BY IDOCK:   -4.85 KCAL/MOL
REMARK 922        TOTAL FREE ENERGY PREDICTED BY IDOCK:  -12.11 KCAL/MOL
REMARK 923 INTER-LIGAND FREE ENERGY PREDICTED BY IDOCK:   -9.19 KCAL/MOL
REMARK 924 INTRA-LIGAND FREE ENERGY PREDICTED BY IDOCK:   -2.92 KCAL/MOL
REMARK 927      BINDING AFFINITY PREDICTED BY RF-SCORE:    0.00 PKD
ROOT
HETATM    1  C   UNL     1      -9.246  11.856  67.525  1.00  0.00    -0.177 C  
HETATM    2  C   UNL     1      -8.442  11.238  68.664  1.00  0.00    -0.143 C  
HETATM    3  C   UNL     1      -8.656   9.731  68.721  1.00  0.00    -0.127 C  
ENDROOT
BRANCH   2   4
HETATM    4  O   UNL     1      -7.039  11.468  68.439  1.00  0.00    -0.071 OA 
BRANCH   4   5
HETATM    5  C   UNL     1      -6.396  12.145  69.434  1.00  0.00    -0.116 C  
HETATM    6  O   UNL     1      -6.251  11.746  70.583  1.00  0.00    -0.292 OA 
BRANCH   5   7
HETATM    7  C   UNL     1      -5.908  13.472  68.912  1.00  0.00    -0.076 C  
BRANCH   7   8
HETATM    8  C   UNL     1      -6.558  14.629  69.673  1.00  0.00    -0.155 C  
BRANCH   8   9
HETATM    9  C   UNL     1      -7.763  15.223  68.949  1.00  0.00    -0.167 C  
BRANCH   9  10
HETATM   10  C   UNL     1      -7.568  15.271  67.459  1.00  0.00    -0.212 C  
HETATM   11  C   UNL     1      -7.355  16.368  66.713  1.00  0.00    -0.261 C  
BRANCH  11  12
HETATM   12  C   UNL     1      -7.239  17.782  67.208  1.00  0.00    -0.199 C  
BRANCH  12  13
HETATM   13  C   UNL     1      -8.564  18.499  67.521  1.00  0.00    -0.272 C  
HETATM   14  C   UNL     1      -8.356  20.022  67.610  1.00  0.00    -0.319 C  
HETATM   15  C   UNL     1      -9.770  20.568  67.560  1.00  0.00    -0.554 C  
HETATM   16  O   UNL     1      -7.651  20.526  66.475  1.00  0.00    -0.439 OA 
HETATM   17  C   UNL     1     -10.438  19.711  66.489  1.00  0.00    -0.503 C  
HETATM   18  H   UNL     1      -7.523  21.466  66.531  1.00  0.00     0.000 HD 
HETATM   19  C   UNL     1      -9.676  18.360  66.450  1.00  0.00    -0.343 C  
HETATM   20  O   UNL     1     -10.325  20.343  65.216  1.00  0.00    -0.340 OA 
HETATM   21  H   UNL     1     -10.741  19.809  64.549  1.00  0.00     0.000 HD 
BRANCH  19  22
HETATM   22  C   UNL     1     -10.625  17.176  66.714  1.00  0.00    -0.192 C  
BRANCH  22  23
HETATM   23  C   UNL     1     -10.863  16.995  68.216  1.00  0.00    -0.341 C  
BRANCH  23  24
HETATM   24  C   UNL     1     -11.719  15.776  68.582  1.00  0.00    -0.344 C  
HETATM   25  O   UNL     1     -11.552  14.751  67.603  1.00  0.00    -0.336 OA 
HETATM   26  H   UNL     1     -12.081  13.995  67.829  1.00  0.00     0.000 HD 
BRANCH  24  27
HETATM   27  C   UNL     1     -11.299  15.183  69.936  1.00  0.00    -0.309 C  
BRANCH  27  28
HETATM   28  C   UNL     1     -12.492  14.766  70.797  1.00  0.00    -0.402 C  
BRANCH  28  29
HETATM   29  C   UNL     1     -12.578  13.274  70.966  1.00  0.00    -0.408 A  
HETATM   30  C   UNL     1     -13.385  12.727  71.974  1.00  0.00    -0.565 A  
HETATM   31  C   UNL     1     -13.474  11.345  72.133  1.00  0.00    -0.203 A  
HETATM   32  C   UNL     1     -12.754  10.500  71.291  1.00  0.00    -0.532 A  
HETATM   33  C   UNL     1     -11.941  11.036  70.292  1.00  0.00    -0.452 A  
HETATM   34  C   UNL     1     -11.852  12.419  70.131  1.00  0.00    -0.341 A  
ENDBRANCH  28  29
ENDBRANCH  27  28
ENDBRANCH  24  27
ENDBRANCH  23  24
ENDBRANCH  22  23
ENDBRANCH  19  22
ENDBRANCH  12  13
ENDBRANCH  11  12
ENDBRANCH   9  10
ENDBRANCH   8   9
ENDBRANCH   7   8
ENDBRANCH   5   7
ENDBRANCH   4   5
ENDBRANCH   2   4
TORSDOF 14
ENDMDL
MODEL      116
REMARK 921   NORMALIZED FREE ENERGY PREDICTED BY IDOCK:   -4.84 KCAL/MOL
REMARK 922        TOTAL FREE ENERGY PREDICTED BY IDOCK:  -12.10 KCAL/MOL
REMARK 923 INTER-LIGAND FREE ENERGY PREDICTED BY IDOCK:   -9.64 KCAL/MOL
REMARK 924 INTRA-LIGAND FREE ENERGY PREDICTED BY IDOCK:   -2.46 KCAL/MOL
REMARK 927      BINDING AFFINITY PREDICTED BY RF-SCORE:    0.00 PKD
ROOT
HETATM    1  C   UNL     1     -12.299  11.507  70.700  1.00  0.00    -0.457 C  
HETATM    2  C   UNL     1     -12.367  12.849  69.980  1.00  0.00    -0.129 C  
HETATM    3  C   UNL     1     -12.188  13.999  70.962  1.00  0.00    -0.430 C  
ENDROOT
BRANCH   2   4
HETATM    4  O   UNL     1     -11.299  12.931  69.018  1.00  0.00    -0.261 OA 
BRANCH   4   5
HETATM    5  C   UNL     1     -11.666  12.703  67.723  1.00  0.00    -0.356 C  
HETATM    6  O   UNL     1     -11.956  11.611  67.251  1.00  0.00    -0.627 OA 
BRANCH   5   7
HETATM    7  C   UNL     1     -11.640  13.999  66.953  1.00  0.00    -0.407 C  
BRANCH   7   8
HETATM    8  C   UNL     1     -12.649  13.968  65.803  1.00  0.00    -0.512 C  
BRANCH   8   9
HETATM    9  C   UNL     1     -11.994  14.060  64.427  1.00  0.00    -0.480 C  
BRANCH   9  10
HETATM   10  C   UNL     1     -12.188  12.810  63.617  1.00  0.00    -0.597 C  
HETATM   11  C   UNL     1     -11.392  11.728  63.607  1.00  0.00    -0.525 C  
BRANCH  11  12
HETATM   12  C   UNL     1     -10.147  11.521  64.422  1.00  0.00    -0.328 C  
BRANCH  12  13
HETATM   13  C   UNL     1      -9.530  10.113  64.368  1.00  0.00    -0.368 C  
HETATM   14  C   UNL     1      -8.689   9.931  63.090  1.00  0.00    -0.222 C  
HETATM   15  C   UNL     1      -7.894   8.671  63.375  1.00  0.00    -0.151 C  
HETATM   16  O   UNL     1      -7.763  11.003  62.911  1.00  0.00    -0.374 OA 
HETATM   17  C   UNL     1      -7.475   8.845  64.831  1.00  0.00    -0.098 C  
HETATM   18  H   UNL     1      -7.245  10.891  62.122  1.00  0.00     0.000 HD 
HETATM   19  C   UNL     1      -8.526   9.771  65.498  1.00  0.00    -0.150 C  
HETATM   20  O   UNL     1      -6.195   9.470  64.902  1.00  0.00    -0.073 OA 
HETATM   21  H   UNL     1      -5.934   9.578  65.809  1.00  0.00     0.000 HD 
BRANCH  19  22
HETATM   22  C   UNL     1      -9.188   9.085  66.708  1.00  0.00    -0.198 C  
BRANCH  22  23
HETATM   23  C   UNL     1      -8.805   7.604  66.768  1.00  0.00    -0.150 C  
BRANCH  23  24
HETATM   24  C   UNL     1      -9.986   6.636  66.630  1.00  0.00    -0.140 C  
HETATM   25  O   UNL     1      -9.543   5.293  66.824  1.00  0.00    -0.130 OA 
HETATM   26  H   UNL     1     -10.275   4.693  66.738  1.00  0.00     0.000 HD 
BRANCH  24  27
HETATM   27  C   UNL     1     -11.066   6.915  67.687  1.00  0.00    -0.251 C  
BRANCH  27  28
HETATM   28  C   UNL     1     -10.950   6.005  68.910  1.00  0.00    -0.395 C  
BRANCH  28  29
HETATM   29  C   UNL     1     -10.731   6.782  70.180  1.00  0.00    -0.274 A  
HETATM   30  C   UNL     1     -10.916   6.162  71.423  1.00  0.00    -0.334 A  
HETATM   31  C   UNL     1     -10.711   6.874  72.603  1.00  0.00    -0.275 A  
HETATM   32  C   UNL     1     -10.325   8.212  72.550  1.00  0.00    -0.401 A  
HETATM   33  C   UNL     1     -10.149   8.840  71.318  1.00  0.00    -0.336 A  
HETATM   34  C   UNL     1     -10.353   8.127  70.135  1.00  0.00    -0.215 A  
ENDBRANCH  28  29
ENDBRANCH  27  28
ENDBRANCH  24  27
ENDBRANCH  23  24
ENDBRANCH  22  23
ENDBRANCH  19  22
ENDBRANCH  12  13
ENDBRANCH  11  12
ENDBRANCH   9  10
ENDBRANCH   8   9
ENDBRANCH   7   8
ENDBRANCH   5   7
ENDBRANCH   4   5
ENDBRANCH   2   4
TORSDOF 14
ENDMDL
MODEL      117
REMARK 921   NORMALIZED FREE ENERGY PREDICTED BY IDOCK:   -4.83 KCAL/MOL
REMARK 922        TOTAL FREE ENERGY PREDICTED BY IDOCK:  -12.08 KCAL/MOL
REMARK 923 INTER-LIGAND FREE ENERGY PREDICTED BY IDOCK:   -9.30 KCAL/MOL
REMARK 924 INTRA-LIGAND FREE ENERGY PREDICTED BY IDOCK:   -2.77 KCAL/MOL
REMARK 927      BINDING AFFINITY PREDICTED BY RF-SCORE:    0.00 PKD
ROOT
HETATM    1  C   UNL     1     -12.255  13.349  65.885  1.00  0.00    -0.502 C  
HETATM    2  C   UNL     1     -11.298  14.388  66.459  1.00  0.00    -0.350 C  
HETATM    3  C   UNL     1     -10.799  15.324  65.367  1.00  0.00    -0.399 C  
ENDROOT
BRANCH   2   4
HETATM    4  O   UNL     1     -11.990  15.190  67.434  1.00  0.00    -0.200 OA 
BRANCH   4   5
HETATM    5  C   UNL     1     -11.186  15.917  68.262  1.00  0.00    -0.354 C  
HETATM    6  O   UNL     1     -10.837  17.076  68.072  1.00  0.00    -0.371 OA 
BRANCH   5   7
HETATM    7  C   UNL     1     -10.772  15.072  69.439  1.00  0.00    -0.267 C  
BRANCH   7   8
HETATM    8  C   UNL     1     -11.992  14.438  70.111  1.00  0.00    -0.386 C  
BRANCH   8   9
HETATM    9  C   UNL     1     -11.999  12.914  70.029  1.00  0.00    -0.380 C  
BRANCH   9  10
HETATM   10  C   UNL     1     -12.720  12.282  71.185  1.00  0.00    -0.340 C  
HETATM   11  C   UNL     1     -12.848  10.967  71.429  1.00  0.00    -0.554 C  
BRANCH  11  12
HETATM   12  C   UNL     1     -12.277   9.843  70.614  1.00  0.00    -0.325 C  
BRANCH  12  13
HETATM   13  C   UNL     1     -11.149   9.033  71.276  1.00  0.00    -0.382 C  
HETATM   14  C   UNL     1     -11.554   8.583  72.692  1.00  0.00    -0.214 C  
HETATM   15  C   UNL     1     -10.513   7.533  73.032  1.00  0.00    -0.396 C  
HETATM   16  O   UNL     1     -12.834   7.950  72.698  1.00  0.00    -0.548 OA 
HETATM   17  C   UNL     1     -10.374   6.745  71.734  1.00  0.00    -0.199 C  
HETATM   18  H   UNL     1     -13.084   7.672  73.571  1.00  0.00     0.000 HD 
HETATM   19  C   UNL     1     -10.774   7.700  70.579  1.00  0.00    -0.241 C  
HETATM   20  O   UNL     1     -11.262   5.629  71.741  1.00  0.00    -0.242 OA 
HETATM   21  H   UNL     1     -11.175   5.138  70.932  1.00  0.00     0.000 HD 
BRANCH  19  22
HETATM   22  C   UNL     1      -9.631   7.852  69.558  1.00  0.00    -0.160 C  
BRANCH  22  23
HETATM   23  C   UNL     1      -9.700   6.749  68.498  1.00  0.00    -0.133 C  
BRANCH  23  24
HETATM   24  C   UNL     1     -10.092   7.237  67.098  1.00  0.00    -0.236 C  
HETATM   25  O   UNL     1     -11.154   6.435  66.580  1.00  0.00    -0.656 OA 
HETATM   26  H   UNL     1     -11.397   6.737  65.713  1.00  0.00     0.000 HD 
BRANCH  24  27
HETATM   27  C   UNL     1     -10.595   8.688  67.131  1.00  0.00    -0.304 C  
BRANCH  27  28
HETATM   28  C   UNL     1      -9.899   9.582  66.105  1.00  0.00    -0.343 C  
BRANCH  28  29
HETATM   29  C   UNL     1      -9.025  10.622  66.754  1.00  0.00    -0.149 A  
HETATM   30  C   UNL     1      -9.537  11.427  67.780  1.00  0.00    -0.177 A  
HETATM   31  C   UNL     1      -8.732  12.388  68.389  1.00  0.00    -0.132 A  
HETATM   32  C   UNL     1      -7.413  12.556  67.974  1.00  0.00    -0.117 A  
HETATM   33  C   UNL     1      -6.899  11.765  66.947  1.00  0.00    -0.104 A  
HETATM   34  C   UNL     1      -7.703  10.802  66.336  1.00  0.00    -0.145 A  
ENDBRANCH  28  29
ENDBRANCH  27  28
ENDBRANCH  24  27
ENDBRANCH  23  24
ENDBRANCH  22  23
ENDBRANCH  19  22
ENDBRANCH  12  13
ENDBRANCH  11  12
ENDBRANCH   9  10
ENDBRANCH   8   9
ENDBRANCH   7   8
ENDBRANCH   5   7
ENDBRANCH   4   5
ENDBRANCH   2   4
TORSDOF 14
ENDMDL
MODEL      118
REMARK 921   NORMALIZED FREE ENERGY PREDICTED BY IDOCK:   -4.82 KCAL/MOL
REMARK 922        TOTAL FREE ENERGY PREDICTED BY IDOCK:  -12.06 KCAL/MOL
REMARK 923 INTER-LIGAND FREE ENERGY PREDICTED BY IDOCK:  -10.20 KCAL/MOL
REMARK 924 INTRA-LIGAND FREE ENERGY PREDICTED BY IDOCK:   -1.86 KCAL/MOL
REMARK 927      BINDING AFFINITY PREDICTED BY RF-SCORE:    0.00 PKD
ROOT
HETATM    1  C   UNL     1     -11.353   2.200  73.387  1.00  0.00    -0.288 C  
HETATM    2  C   UNL     1     -10.883   3.540  73.942  1.00  0.00    -0.220 C  
HETATM    3  C   UNL     1      -9.469   3.429  74.498  1.00  0.00    -0.127 C  
ENDROOT
BRANCH   2   4
HETATM    4  O   UNL     1     -10.856   4.515  72.883  1.00  0.00    -0.209 OA 
BRANCH   4   5
HETATM    5  C   UNL     1      -9.814   4.395  72.011  1.00  0.00    -0.176 C  
HETATM    6  O   UNL     1      -9.606   3.431  71.284  1.00  0.00    -0.144 OA 
BRANCH   5   7
HETATM    7  C   UNL     1      -8.941   5.621  72.091  1.00  0.00    -0.140 C  
BRANCH   7   8
HETATM    8  C   UNL     1      -8.241   5.879  70.756  1.00  0.00    -0.124 C  
BRANCH   8   9
HETATM    9  C   UNL     1      -9.103   6.662  69.768  1.00  0.00    -0.143 C  
BRANCH   9  10
HETATM   10  C   UNL     1      -8.673   8.096  69.644  1.00  0.00    -0.142 C  
HETATM   11  C   UNL     1      -9.119   9.134  70.373  1.00  0.00    -0.270 C  
BRANCH  11  12
HETATM   12  C   UNL     1     -10.126   9.082  71.486  1.00  0.00    -0.409 C  
BRANCH  12  13
HETATM   13  C   UNL     1     -11.600   8.978  71.059  1.00  0.00    -0.360 C  
HETATM   14  C   UNL     1     -12.193   7.614  71.459  1.00  0.00    -0.324 C  
HETATM   15  C   UNL     1     -13.686   7.824  71.296  1.00  0.00    -0.280 C  
HETATM   16  O   UNL     1     -11.940   7.311  72.831  1.00  0.00    -0.541 OA 
HETATM   17  C   UNL     1     -13.908   9.219  71.873  1.00  0.00    -0.349 C  
HETATM   18  H   UNL     1     -12.306   6.470  73.078  1.00  0.00     0.000 HD 
HETATM   19  C   UNL     1     -12.569   9.989  71.723  1.00  0.00    -0.504 C  
HETATM   20  O   UNL     1     -14.239   9.130  73.257  1.00  0.00    -1.124 OA 
HETATM   21  H   UNL     1     -14.377   9.999  73.616  1.00  0.00     0.000 HD 
BRANCH  19  22
HETATM   22  C   UNL     1     -12.755  11.278  70.901  1.00  0.00    -0.412 C  
BRANCH  22  23
HETATM   23  C   UNL     1     -12.798  12.505  71.817  1.00  0.00    -0.347 C  
BRANCH  23  24
HETATM   24  C   UNL     1     -12.421  13.823  71.131  1.00  0.00    -0.370 C  
HETATM   25  O   UNL     1     -11.611  14.613  72.002  1.00  0.00    -0.380 OA 
HETATM   26  H   UNL     1     -11.377  15.430  71.578  1.00  0.00     0.000 HD 
BRANCH  24  27
HETATM   27  C   UNL     1     -11.605  13.577  69.853  1.00  0.00    -0.271 C  
BRANCH  27  28
HETATM   28  C   UNL     1     -12.175  14.303  68.634  1.00  0.00    -0.205 C  
BRANCH  28  29
HETATM   29  C   UNL     1     -11.958  13.534  67.359  1.00  0.00    -0.398 A  
HETATM   30  C   UNL     1     -12.276  14.117  66.125  1.00  0.00    -0.465 A  
HETATM   31  C   UNL     1     -12.073  13.412  64.940  1.00  0.00    -0.430 A  
HETATM   32  C   UNL     1     -11.557  12.118  64.979  1.00  0.00    -0.365 A  
HETATM   33  C   UNL     1     -11.247  11.527  66.203  1.00  0.00    -0.265 A  
HETATM   34  C   UNL     1     -11.449  12.232  67.391  1.00  0.00    -0.422 A  
ENDBRANCH  28  29
ENDBRANCH  27  28
ENDBRANCH  24  27
ENDBRANCH  23  24
ENDBRANCH  22  23
ENDBRANCH  19  22
ENDBRANCH  12  13
ENDBRANCH  11  12
ENDBRANCH   9  10
ENDBRANCH   8   9
ENDBRANCH   7   8
ENDBRANCH   5   7
ENDBRANCH   4   5
ENDBRANCH   2   4
TORSDOF 14
ENDMDL
MODEL      119
REMARK 921   NORMALIZED FREE ENERGY PREDICTED BY IDOCK:   -4.82 KCAL/MOL
REMARK 922        TOTAL FREE ENERGY PREDICTED BY IDOCK:  -12.06 KCAL/MOL
REMARK 923 INTER-LIGAND FREE ENERGY PREDICTED BY IDOCK:   -9.44 KCAL/MOL
REMARK 924 INTRA-LIGAND FREE ENERGY PREDICTED BY IDOCK:   -2.62 KCAL/MOL
REMARK 927      BINDING AFFINITY PREDICTED BY RF-SCORE:    0.00 PKD
ROOT
HETATM    1  C   UNL     1     -13.119   8.922  72.317  1.00  0.00    -0.491 C  
HETATM    2  C   UNL     1     -11.928   8.129  71.792  1.00  0.00    -0.305 C  
HETATM    3  C   UNL     1     -10.677   8.429  72.607  1.00  0.00    -0.312 C  
ENDROOT
BRANCH   2   4
HETATM    4  O   UNL     1     -12.198   6.720  71.917  1.00  0.00    -0.329 OA 
BRANCH   4   5
HETATM    5  C   UNL     1     -11.249   5.898  71.383  1.00  0.00    -0.218 C  
HETATM    6  O   UNL     1     -10.583   5.084  72.011  1.00  0.00    -0.214 OA 
BRANCH   5   7
HETATM    7  C   UNL     1     -11.127   6.158  69.903  1.00  0.00    -0.481 C  
BRANCH   7   8
HETATM    8  C   UNL     1      -9.658   6.236  69.484  1.00  0.00    -0.163 C  
BRANCH   8   9
HETATM    9  C   UNL     1      -9.289   5.229  68.398  1.00  0.00    -0.146 C  
BRANCH   9  10
HETATM   10  C   UNL     1     -10.078   5.434  67.135  1.00  0.00    -0.231 C  
HETATM   11  C   UNL     1      -9.613   5.906  65.966  1.00  0.00    -0.056 C  
BRANCH  11  12
HETATM   12  C   UNL     1      -8.198   6.306  65.658  1.00  0.00    -0.143 C  
BRANCH  12  13
HETATM   13  C   UNL     1      -7.946   7.813  65.483  1.00  0.00    -0.121 C  
HETATM   14  C   UNL     1      -7.720   8.164  64.000  1.00  0.00    -0.137 C  
HETATM   15  C   UNL     1      -7.849   9.675  63.978  1.00  0.00    -0.137 C  
HETATM   16  O   UNL     1      -8.747   7.624  63.169  1.00  0.00    -0.307 OA 
HETATM   17  C   UNL     1      -9.037   9.938  64.897  1.00  0.00    -0.224 C  
HETATM   18  H   UNL     1      -8.607   7.840  62.254  1.00  0.00     0.000 HD 
HETATM   19  C   UNL     1      -9.116   8.746  65.888  1.00  0.00    -0.271 C  
HETATM   20  O   UNL     1     -10.243   9.989  64.138  1.00  0.00    -0.446 OA 
HETATM   21  H   UNL     1     -10.983  10.152  64.711  1.00  0.00     0.000 HD 
BRANCH  19  22
HETATM   22  C   UNL     1      -9.028   9.227  67.348  1.00  0.00    -0.135 C  
BRANCH  22  23
HETATM   23  C   UNL     1     -10.426   9.390  67.952  1.00  0.00    -0.296 C  
BRANCH  23  24
HETATM   24  C   UNL     1     -10.504  10.386  69.116  1.00  0.00    -0.227 C  
HETATM   25  O   UNL     1      -9.355  11.233  69.112  1.00  0.00    -0.396 OA 
HETATM   26  H   UNL     1      -9.403  11.850  69.833  1.00  0.00     0.000 HD 
BRANCH  24  27
HETATM   27  C   UNL     1     -11.738  11.293  68.994  1.00  0.00    -0.410 C  
BRANCH  27  28
HETATM   28  C   UNL     1     -11.423  12.764  69.271  1.00  0.00    -0.349 C  
BRANCH  28  29
HETATM   29  C   UNL     1     -12.326  13.352  70.320  1.00  0.00    -0.354 A  
HETATM   30  C   UNL     1     -12.699  14.702  70.250  1.00  0.00    -0.323 A  
HETATM   31  C   UNL     1     -13.539  15.252  71.216  1.00  0.00    -0.584 A  
HETATM   32  C   UNL     1     -14.009  14.461  72.261  1.00  0.00    -0.610 A  
HETATM   33  C   UNL     1     -13.636  13.120  72.345  1.00  0.00    -0.667 A  
HETATM   34  C   UNL     1     -12.795  12.567  71.378  1.00  0.00    -0.359 A  
ENDBRANCH  28  29
ENDBRANCH  27  28
ENDBRANCH  24  27
ENDBRANCH  23  24
ENDBRANCH  22  23
ENDBRANCH  19  22
ENDBRANCH  12  13
ENDBRANCH  11  12
ENDBRANCH   9  10
ENDBRANCH   8   9
ENDBRANCH   7   8
ENDBRANCH   5   7
ENDBRANCH   4   5
ENDBRANCH   2   4
TORSDOF 14
ENDMDL
MODEL      120
REMARK 921   NORMALIZED FREE ENERGY PREDICTED BY IDOCK:   -4.78 KCAL/MOL
REMARK 922        TOTAL FREE ENERGY PREDICTED BY IDOCK:  -11.99 KCAL/MOL
REMARK 923 INTER-LIGAND FREE ENERGY PREDICTED BY IDOCK:  -10.32 KCAL/MOL
REMARK 924 INTRA-LIGAND FREE ENERGY PREDICTED BY IDOCK:   -1.67 KCAL/MOL
REMARK 927      BINDING AFFINITY PREDICTED BY RF-SCORE:    0.00 PKD
ROOT
HETATM    1  C   UNL     1      -6.676   7.817  71.834  1.00  0.00    -0.056 C  
HETATM    2  C   UNL     1      -7.383   7.613  73.169  1.00  0.00    -0.093 C  
HETATM    3  C   UNL     1      -6.425   7.844  74.330  1.00  0.00    -0.114 C  
ENDROOT
BRANCH   2   4
HETATM    4  O   UNL     1      -8.454   8.568  73.295  1.00  0.00    -0.372 OA 
BRANCH   4   5
HETATM    5  C   UNL     1      -9.709   8.055  73.142  1.00  0.00    -0.270 C  
HETATM    6  O   UNL     1     -10.175   7.122  73.784  1.00  0.00    -0.331 OA 
BRANCH   5   7
HETATM    7  C   UNL     1     -10.430   8.795  72.045  1.00  0.00    -0.414 C  
BRANCH   7   8
HETATM    8  C   UNL     1     -11.760   8.116  71.712  1.00  0.00    -0.343 C  
BRANCH   8   9
HETATM    9  C   UNL     1     -12.860   9.103  71.331  1.00  0.00    -0.376 C  
BRANCH   9  10
HETATM   10  C   UNL     1     -12.396  10.530  71.396  1.00  0.00    -0.477 C  
HETATM   11  C   UNL     1     -12.042  11.307  70.358  1.00  0.00    -0.474 C  
BRANCH  11  12
HETATM   12  C   UNL     1     -12.057  10.926  68.905  1.00  0.00    -0.186 C  
BRANCH  12  13
HETATM   13  C   UNL     1     -10.683  10.798  68.226  1.00  0.00    -0.253 C  
HETATM   14  C   UNL     1     -10.064   9.413  68.493  1.00  0.00    -0.187 C  
HETATM   15  C   UNL     1      -8.932   9.338  67.486  1.00  0.00    -0.127 C  
HETATM   16  O   UNL     1     -10.983   8.360  68.199  1.00  0.00    -0.456 OA 
HETATM   17  C   UNL     1      -9.548   9.931  66.223  1.00  0.00    -0.209 C  
HETATM   18  H   UNL     1     -10.601   7.505  68.364  1.00  0.00     0.000 HD 
HETATM   19  C   UNL     1     -10.682  10.888  66.679  1.00  0.00    -0.289 C  
HETATM   20  O   UNL     1     -10.111   8.896  65.420  1.00  0.00    -0.260 OA 
HETATM   21  H   UNL     1     -10.494   9.265  64.633  1.00  0.00     0.000 HD 
BRANCH  19  22
HETATM   22  C   UNL     1     -10.450  12.317  66.155  1.00  0.00    -0.270 C  
BRANCH  22  23
HETATM   23  C   UNL     1     -11.161  12.528  64.816  1.00  0.00    -0.344 C  
BRANCH  23  24
HETATM   24  C   UNL     1     -11.260  13.992  64.372  1.00  0.00    -0.306 C  
HETATM   25  O   UNL     1     -12.489  14.211  63.678  1.00  0.00    -1.009 OA 
HETATM   26  H   UNL     1     -12.550  15.118  63.403  1.00  0.00     0.000 HD 
BRANCH  24  27
HETATM   27  C   UNL     1     -11.243  14.945  65.577  1.00  0.00    -0.348 C  
BRANCH  27  28
HETATM   28  C   UNL     1      -9.950  15.754  65.678  1.00  0.00    -0.378 C  
BRANCH  28  29
HETATM   29  C   UNL     1     -10.147  17.056  66.407  1.00  0.00    -0.325 A  
HETATM   30  C   UNL     1     -10.005  17.108  67.800  1.00  0.00    -0.290 A  
HETATM   31  C   UNL     1     -10.181  18.311  68.481  1.00  0.00    -0.402 A  
HETATM   32  C   UNL     1     -10.506  19.469  67.777  1.00  0.00    -0.574 A  
HETATM   33  C   UNL     1     -10.659  19.424  66.392  1.00  0.00    -0.558 A  
HETATM   34  C   UNL     1     -10.482  18.220  65.708  1.00  0.00    -0.228 A  
ENDBRANCH  28  29
ENDBRANCH  27  28
ENDBRANCH  24  27
ENDBRANCH  23  24
ENDBRANCH  22  23
ENDBRANCH  19  22
ENDBRANCH  12  13
ENDBRANCH  11  12
ENDBRANCH   9  10
ENDBRANCH   8   9
ENDBRANCH   7   8
ENDBRANCH   5   7
ENDBRANCH   4   5
ENDBRANCH   2   4
TORSDOF 14
ENDMDL
MODEL      121
REMARK 921   NORMALIZED FREE ENERGY PREDICTED BY IDOCK:   -4.78 KCAL/MOL
REMARK 922        TOTAL FREE ENERGY PREDICTED BY IDOCK:  -11.98 KCAL/MOL
REMARK 923 INTER-LIGAND FREE ENERGY PREDICTED BY IDOCK:   -9.72 KCAL/MOL
REMARK 924 INTRA-LIGAND FREE ENERGY PREDICTED BY IDOCK:   -2.26 KCAL/MOL
REMARK 927      BINDING AFFINITY PREDICTED BY RF-SCORE:    0.00 PKD
ROOT
HETATM    1  C   UNL     1     -14.410   7.779  71.474  1.00  0.00    -0.574 C  
HETATM    2  C   UNL     1     -12.892   7.643  71.424  1.00  0.00    -0.319 C  
HETATM    3  C   UNL     1     -12.222   8.781  72.182  1.00  0.00    -0.448 C  
ENDROOT
BRANCH   2   4
HETATM    4  O   UNL     1     -12.500   6.411  72.057  1.00  0.00    -0.333 OA 
BRANCH   4   5
HETATM    5  C   UNL     1     -11.250   5.966  71.737  1.00  0.00    -0.250 C  
HETATM    6  O   UNL     1     -10.441   5.499  72.529  1.00  0.00    -0.198 OA 
BRANCH   5   7
HETATM    7  C   UNL     1     -11.005   6.158  70.263  1.00  0.00    -0.417 C  
BRANCH   7   8
HETATM    8  C   UNL     1      -9.566   5.787  69.898  1.00  0.00    -0.201 C  
BRANCH   8   9
HETATM    9  C   UNL     1      -8.691   7.001  69.598  1.00  0.00    -0.141 C  
BRANCH   9  10
HETATM   10  C   UNL     1      -8.873   8.101  70.606  1.00  0.00    -0.143 C  
HETATM   11  C   UNL     1      -8.990   9.414  70.348  1.00  0.00    -0.294 C  
BRANCH  11  12
HETATM   12  C   UNL     1      -8.990  10.067  68.996  1.00  0.00    -0.163 C  
BRANCH  12  13
HETATM   13  C   UNL     1      -8.162  11.357  68.868  1.00  0.00    -0.054 C  
HETATM   14  C   UNL     1      -6.686  11.100  69.225  1.00  0.00    -0.103 C  
HETATM   15  C   UNL     1      -5.983  12.342  68.710  1.00  0.00    -0.065 C  
HETATM   16  O   UNL     1      -6.161   9.975  68.520  1.00  0.00    -0.045 OA 
HETATM   17  C   UNL     1      -6.657  12.592  67.365  1.00  0.00    -0.152 C  
HETATM   18  H   UNL     1      -5.251   9.816  68.741  1.00  0.00     0.000 HD 
HETATM   19  C   UNL     1      -8.076  11.968  67.446  1.00  0.00    -0.168 C  
HETATM   20  O   UNL     1      -5.928  11.947  66.323  1.00  0.00    -0.495 OA 
HETATM   21  H   UNL     1      -6.348  12.103  65.485  1.00  0.00     0.000 HD 
BRANCH  19  22
HETATM   22  C   UNL     1      -9.166  13.022  67.174  1.00  0.00    -0.226 C  
BRANCH  22  23
HETATM   23  C   UNL     1     -10.307  12.422  66.347  1.00  0.00    -0.255 C  
BRANCH  23  24
HETATM   24  C   UNL     1     -11.682  12.483  67.023  1.00  0.00    -0.367 C  
HETATM   25  O   UNL     1     -11.990  11.223  67.619  1.00  0.00    -0.634 OA 
HETATM   26  H   UNL     1     -12.842  11.261  68.037  1.00  0.00     0.000 HD 
BRANCH  24  27
HETATM   27  C   UNL     1     -11.709  13.534  68.143  1.00  0.00    -0.396 C  
BRANCH  27  28
HETATM   28  C   UNL     1     -11.559  12.922  69.536  1.00  0.00    -0.348 C  
BRANCH  28  29
HETATM   29  C   UNL     1     -12.405  13.626  70.562  1.00  0.00    -0.425 A  
HETATM   30  C   UNL     1     -12.572  15.016  70.500  1.00  0.00    -0.420 A  
HETATM   31  C   UNL     1     -13.358  15.674  71.444  1.00  0.00    -0.512 A  
HETATM   32  C   UNL     1     -13.978  14.949  72.460  1.00  0.00    -0.540 A  
HETATM   33  C   UNL     1     -13.810  13.567  72.535  1.00  0.00    -0.624 A  
HETATM   34  C   UNL     1     -13.023  12.907  71.590  1.00  0.00    -0.410 A  
ENDBRANCH  28  29
ENDBRANCH  27  28
ENDBRANCH  24  27
ENDBRANCH  23  24
ENDBRANCH  22  23
ENDBRANCH  19  22
ENDBRANCH  12  13
ENDBRANCH  11  12
ENDBRANCH   9  10
ENDBRANCH   8   9
ENDBRANCH   7   8
ENDBRANCH   5   7
ENDBRANCH   4   5
ENDBRANCH   2   4
TORSDOF 14
ENDMDL
MODEL      122
REMARK 921   NORMALIZED FREE ENERGY PREDICTED BY IDOCK:   -4.77 KCAL/MOL
REMARK 922        TOTAL FREE ENERGY PREDICTED BY IDOCK:  -11.97 KCAL/MOL
REMARK 923 INTER-LIGAND FREE ENERGY PREDICTED BY IDOCK:   -8.56 KCAL/MOL
REMARK 924 INTRA-LIGAND FREE ENERGY PREDICTED BY IDOCK:   -3.41 KCAL/MOL
REMARK 927      BINDING AFFINITY PREDICTED BY RF-SCORE:    0.00 PKD
ROOT
HETATM    1  C   UNL     1     -11.756   5.920  72.663  1.00  0.00    -0.247 C  
HETATM    2  C   UNL     1     -10.594   5.411  73.508  1.00  0.00    -0.270 C  
HETATM    3  C   UNL     1     -10.684   3.902  73.698  1.00  0.00    -0.310 C  
ENDROOT
BRANCH   2   4
HETATM    4  O   UNL     1      -9.353   5.689  72.834  1.00  0.00    -0.141 OA 
BRANCH   4   5
HETATM    5  C   UNL     1      -8.778   6.886  73.149  1.00  0.00    -0.122 C  
HETATM    6  O   UNL     1      -8.412   7.222  74.268  1.00  0.00    -0.164 OA 
BRANCH   5   7
HETATM    7  C   UNL     1      -8.680   7.743  71.913  1.00  0.00    -0.150 C  
BRANCH   7   8
HETATM    8  C   UNL     1      -9.720   8.864  71.945  1.00  0.00    -0.349 C  
BRANCH   8   9
HETATM    9  C   UNL     1     -10.643   8.862  70.728  1.00  0.00    -0.281 C  
BRANCH   9  10
HETATM   10  C   UNL     1     -11.778   9.836  70.869  1.00  0.00    -0.429 C  
HETATM   11  C   UNL     1     -12.046  10.877  70.062  1.00  0.00    -0.433 C  
BRANCH  11  12
HETATM   12  C   UNL     1     -11.285  11.279  68.831  1.00  0.00    -0.315 C  
BRANCH  12  13
HETATM   13  C   UNL     1     -11.786  12.541  68.109  1.00  0.00    -0.371 C  
HETATM   14  C   UNL     1     -11.557  13.796  68.973  1.00  0.00    -0.313 C  
HETATM   15  C   UNL     1     -11.764  14.934  67.992  1.00  0.00    -0.344 C  
HETATM   16  O   UNL     1     -10.213  13.868  69.451  1.00  0.00    -0.429 OA 
HETATM   17  C   UNL     1     -11.056  14.444  66.733  1.00  0.00    -0.323 C  
HETATM   18  H   UNL     1     -10.072  14.642  69.984  1.00  0.00     0.000 HD 
HETATM   19  C   UNL     1     -11.065  12.893  66.783  1.00  0.00    -0.315 C  
HETATM   20  O   UNL     1      -9.705  14.899  66.722  1.00  0.00    -0.234 OA 
HETATM   21  H   UNL     1      -9.264  14.594  65.938  1.00  0.00     0.000 HD 
BRANCH  19  22
HETATM   22  C   UNL     1     -11.756  12.298  65.542  1.00  0.00    -0.433 C  
BRANCH  22  23
HETATM   23  C   UNL     1     -10.790  12.247  64.355  1.00  0.00    -0.370 C  
BRANCH  23  24
HETATM   24  C   UNL     1     -10.395  10.831  63.917  1.00  0.00    -0.259 C  
HETATM   25  O   UNL     1     -10.340  10.758  62.493  1.00  0.00    -0.748 OA 
HETATM   26  H   UNL     1     -10.095   9.881  62.221  1.00  0.00     0.000 HD 
BRANCH  24  27
HETATM   27  C   UNL     1      -9.004  10.449  64.446  1.00  0.00    -0.247 C  
BRANCH  27  28
HETATM   28  C   UNL     1      -9.064   9.568  65.694  1.00  0.00    -0.250 C  
BRANCH  28  29
HETATM   29  C   UNL     1      -8.393  10.210  66.878  1.00  0.00    -0.122 A  
HETATM   30  C   UNL     1      -7.968  11.543  66.805  1.00  0.00    -0.152 A  
HETATM   31  C   UNL     1      -7.351  12.147  67.900  1.00  0.00    -0.108 A  
HETATM   32  C   UNL     1      -7.149  11.421  69.072  1.00  0.00    -0.117 A  
HETATM   33  C   UNL     1      -7.560  10.091  69.149  1.00  0.00    -0.096 A  
HETATM   34  C   UNL     1      -8.179   9.486  68.055  1.00  0.00    -0.114 A  
ENDBRANCH  28  29
ENDBRANCH  27  28
ENDBRANCH  24  27
ENDBRANCH  23  24
ENDBRANCH  22  23
ENDBRANCH  19  22
ENDBRANCH  12  13
ENDBRANCH  11  12
ENDBRANCH   9  10
ENDBRANCH   8   9
ENDBRANCH   7   8
ENDBRANCH   5   7
ENDBRANCH   4   5
ENDBRANCH   2   4
TORSDOF 14
ENDMDL
MODEL      123
REMARK 921   NORMALIZED FREE ENERGY PREDICTED BY IDOCK:   -4.77 KCAL/MOL
REMARK 922        TOTAL FREE ENERGY PREDICTED BY IDOCK:  -11.97 KCAL/MOL
REMARK 923 INTER-LIGAND FREE ENERGY PREDICTED BY IDOCK:   -8.99 KCAL/MOL
REMARK 924 INTRA-LIGAND FREE ENERGY PREDICTED BY IDOCK:   -2.98 KCAL/MOL
REMARK 927      BINDING AFFINITY PREDICTED BY RF-SCORE:    0.00 PKD
ROOT
HETATM    1  C   UNL     1     -12.791  10.216  71.087  1.00  0.00    -0.494 C  
HETATM    2  C   UNL     1     -12.930   8.844  71.736  1.00  0.00    -0.367 C  
HETATM    3  C   UNL     1     -14.397   8.470  71.902  1.00  0.00    -0.536 C  
ENDROOT
BRANCH   2   4
HETATM    4  O   UNL     1     -12.323   7.850  70.889  1.00  0.00    -0.216 OA 
BRANCH   4   5
HETATM    5  C   UNL     1     -11.530   6.946  71.533  1.00  0.00    -0.277 C  
HETATM    6  O   UNL     1     -11.183   5.861  71.083  1.00  0.00    -0.276 OA 
BRANCH   5   7
HETATM    7  C   UNL     1     -11.160   7.474  72.896  1.00  0.00    -0.426 C  
BRANCH   7   8
HETATM    8  C   UNL     1      -9.831   6.882  73.367  1.00  0.00    -0.247 C  
BRANCH   8   9
HETATM    9  C   UNL     1      -8.615   7.593  72.779  1.00  0.00    -0.177 C  
BRANCH   9  10
HETATM   10  C   UNL     1      -8.993   8.815  71.989  1.00  0.00    -0.227 C  
HETATM   11  C   UNL     1      -8.637   9.094  70.724  1.00  0.00    -0.265 C  
BRANCH  11  12
HETATM   12  C   UNL     1      -7.807   8.235  69.814  1.00  0.00    -0.100 C  
BRANCH  12  13
HETATM   13  C   UNL     1      -8.441   7.876  68.459  1.00  0.00    -0.128 C  
HETATM   14  C   UNL     1      -8.366   6.360  68.202  1.00  0.00    -0.116 C  
HETATM   15  C   UNL     1      -9.325   6.157  67.044  1.00  0.00    -0.132 C  
HETATM   16  O   UNL     1      -8.857   5.612  69.315  1.00  0.00    -0.110 OA 
HETATM   17  C   UNL     1     -10.505   7.052  67.407  1.00  0.00    -0.273 C  
HETATM   18  H   UNL     1      -8.810   4.676  69.156  1.00  0.00     0.000 HD 
HETATM   19  C   UNL     1      -9.954   8.180  68.319  1.00  0.00    -0.212 C  
HETATM   20  O   UNL     1     -11.481   6.307  68.131  1.00  0.00    -0.515 OA 
HETATM   21  H   UNL     1     -12.216   6.865  68.357  1.00  0.00     0.000 HD 
BRANCH  19  22
HETATM   22  C   UNL     1     -10.239   9.571  67.722  1.00  0.00    -0.265 C  
BRANCH  22  23
HETATM   23  C   UNL     1     -10.406   9.485  66.202  1.00  0.00    -0.188 C  
BRANCH  23  24
HETATM   24  C   UNL     1      -9.178   9.936  65.402  1.00  0.00    -0.211 C  
HETATM   25  O   UNL     1      -8.512   8.801  64.848  1.00  0.00    -0.165 OA 
HETATM   26  H   UNL     1      -7.751   9.080  64.352  1.00  0.00     0.000 HD 
BRANCH  24  27
HETATM   27  C   UNL     1      -9.576  10.845  64.229  1.00  0.00    -0.318 C  
BRANCH  27  28
HETATM   28  C   UNL     1     -11.000  11.387  64.354  1.00  0.00    -0.371 C  
BRANCH  28  29
HETATM   29  C   UNL     1     -11.050  12.691  65.104  1.00  0.00    -0.329 A  
HETATM   30  C   UNL     1     -10.220  13.753  64.721  1.00  0.00    -0.362 A  
HETATM   31  C   UNL     1     -10.264  14.965  65.408  1.00  0.00    -0.409 A  
HETATM   32  C   UNL     1     -11.133  15.123  66.486  1.00  0.00    -0.305 A  
HETATM   33  C   UNL     1     -11.955  14.068  66.880  1.00  0.00    -0.479 A  
HETATM   34  C   UNL     1     -11.913  12.854  66.193  1.00  0.00    -0.491 A  
ENDBRANCH  28  29
ENDBRANCH  27  28
ENDBRANCH  24  27
ENDBRANCH  23  24
ENDBRANCH  22  23
ENDBRANCH  19  22
ENDBRANCH  12  13
ENDBRANCH  11  12
ENDBRANCH   9  10
ENDBRANCH   8   9
ENDBRANCH   7   8
ENDBRANCH   5   7
ENDBRANCH   4   5
ENDBRANCH   2   4
TORSDOF 14
ENDMDL
MODEL      124
REMARK 921   NORMALIZED FREE ENERGY PREDICTED BY IDOCK:   -4.77 KCAL/MOL
REMARK 922        TOTAL FREE ENERGY PREDICTED BY IDOCK:  -11.96 KCAL/MOL
REMARK 923 INTER-LIGAND FREE ENERGY PREDICTED BY IDOCK:   -9.32 KCAL/MOL
REMARK 924 INTRA-LIGAND FREE ENERGY PREDICTED BY IDOCK:   -2.64 KCAL/MOL
REMARK 927      BINDING AFFINITY PREDICTED BY RF-SCORE:    0.00 PKD
ROOT
HETATM    1  C   UNL     1      -6.687   9.955  66.594  1.00  0.00    -0.080 C  
HETATM    2  C   UNL     1      -7.190  10.580  67.890  1.00  0.00    -0.084 C  
HETATM    3  C   UNL     1      -7.400   9.516  68.959  1.00  0.00    -0.072 C  
ENDROOT
BRANCH   2   4
HETATM    4  O   UNL     1      -6.206  11.506  68.389  1.00  0.00    -0.049 OA 
BRANCH   4   5
HETATM    5  C   UNL     1      -6.221  12.739  67.804  1.00  0.00    -0.138 C  
HETATM    6  O   UNL     1      -5.336  13.195  67.090  1.00  0.00    -0.341 OA 
BRANCH   5   7
HETATM    7  C   UNL     1      -7.484  13.467  68.187  1.00  0.00    -0.132 C  
BRANCH   7   8
HETATM    8  C   UNL     1      -7.730  14.657  67.257  1.00  0.00    -0.198 C  
BRANCH   8   9
HETATM    9  C   UNL     1      -9.135  15.240  67.386  1.00  0.00    -0.201 C  
BRANCH   9  10
HETATM   10  C   UNL     1      -9.679  15.716  66.069  1.00  0.00    -0.378 C  
HETATM   11  C   UNL     1     -10.868  15.398  65.530  1.00  0.00    -0.384 C  
BRANCH  11  12
HETATM   12  C   UNL     1     -11.923  14.518  66.137  1.00  0.00    -0.323 C  
BRANCH  12  13
HETATM   13  C   UNL     1     -12.031  13.096  65.558  1.00  0.00    -0.457 C  
HETATM   14  C   UNL     1     -12.785  13.106  64.216  1.00  0.00    -0.115 C  
HETATM   15  C   UNL     1     -12.486  11.735  63.640  1.00  0.00    -0.482 C  
HETATM   16  O   UNL     1     -12.255  14.083  63.320  1.00  0.00    -1.071 OA 
HETATM   17  C   UNL     1     -11.006  11.540  63.954  1.00  0.00    -0.401 C  
HETATM   18  H   UNL     1     -12.720  14.089  62.492  1.00  0.00     0.000 HD 
HETATM   19  C   UNL     1     -10.689  12.408  65.200  1.00  0.00    -0.327 C  
HETATM   20  O   UNL     1     -10.210  11.991  62.861  1.00  0.00    -0.534 OA 
HETATM   21  H   UNL     1      -9.288  11.869  63.056  1.00  0.00     0.000 HD 
BRANCH  19  22
HETATM   22  C   UNL     1     -10.123  11.551  66.348  1.00  0.00    -0.250 C  
BRANCH  22  23
HETATM   23  C   UNL     1     -11.183  11.324  67.430  1.00  0.00    -0.370 C  
BRANCH  23  24
HETATM   24  C   UNL     1     -10.705  11.611  68.858  1.00  0.00    -0.207 C  
HETATM   25  O   UNL     1     -10.994  12.965  69.208  1.00  0.00    -0.403 OA 
HETATM   26  H   UNL     1     -10.699  13.143  70.093  1.00  0.00     0.000 HD 
BRANCH  24  27
HETATM   27  C   UNL     1     -11.423  10.716  69.880  1.00  0.00    -0.393 C  
BRANCH  27  28
HETATM   28  C   UNL     1     -11.376   9.233  69.508  1.00  0.00     0.077 C  
BRANCH  28  29
HETATM   29  C   UNL     1     -11.154   8.352  70.707  1.00  0.00    -0.286 A  
HETATM   30  C   UNL     1     -11.953   7.217  70.901  1.00  0.00    -0.375 A  
HETATM   31  C   UNL     1     -11.750   6.393  72.007  1.00  0.00    -0.376 A  
HETATM   32  C   UNL     1     -10.752   6.700  72.930  1.00  0.00    -0.285 A  
HETATM   33  C   UNL     1      -9.959   7.833  72.750  1.00  0.00    -0.321 A  
HETATM   34  C   UNL     1     -10.161   8.658  71.643  1.00  0.00    -0.365 A  
ENDBRANCH  28  29
ENDBRANCH  27  28
ENDBRANCH  24  27
ENDBRANCH  23  24
ENDBRANCH  22  23
ENDBRANCH  19  22
ENDBRANCH  12  13
ENDBRANCH  11  12
ENDBRANCH   9  10
ENDBRANCH   8   9
ENDBRANCH   7   8
ENDBRANCH   5   7
ENDBRANCH   4   5
ENDBRANCH   2   4
TORSDOF 14
ENDMDL
MODEL      125
REMARK 921   NORMALIZED FREE ENERGY PREDICTED BY IDOCK:   -4.75 KCAL/MOL
REMARK 922        TOTAL FREE ENERGY PREDICTED BY IDOCK:  -11.92 KCAL/MOL
REMARK 923 INTER-LIGAND FREE ENERGY PREDICTED BY IDOCK:   -8.88 KCAL/MOL
REMARK 924 INTRA-LIGAND FREE ENERGY PREDICTED BY IDOCK:   -3.04 KCAL/MOL
REMARK 927      BINDING AFFINITY PREDICTED BY RF-SCORE:    0.00 PKD
ROOT
HETATM    1  C   UNL     1     -13.252  11.326  71.966  1.00  0.00    -0.437 C  
HETATM    2  C   UNL     1     -12.531  10.543  70.874  1.00  0.00    -0.390 C  
HETATM    3  C   UNL     1     -12.098  11.466  69.743  1.00  0.00    -0.388 C  
ENDROOT
BRANCH   2   4
HETATM    4  O   UNL     1     -11.344   9.941  71.421  1.00  0.00    -0.364 OA 
BRANCH   4   5
HETATM    5  C   UNL     1     -11.398   8.586  71.574  1.00  0.00    -0.283 C  
HETATM    6  O   UNL     1     -12.384   7.953  71.930  1.00  0.00    -0.295 OA 
BRANCH   5   7
HETATM    7  C   UNL     1     -10.052   7.984  71.260  1.00  0.00    -0.222 C  
BRANCH   7   8
HETATM    8  C   UNL     1      -9.342   8.782  70.165  1.00  0.00    -0.181 C  
BRANCH   8   9
HETATM    9  C   UNL     1      -9.500   8.167  68.776  1.00  0.00    -0.148 C  
BRANCH   9  10
HETATM   10  C   UNL     1     -10.396   8.982  67.888  1.00  0.00    -0.290 C  
HETATM   11  C   UNL     1     -10.014   9.927  67.012  1.00  0.00    -0.254 C  
BRANCH  11  12
HETATM   12  C   UNL     1      -8.606  10.356  66.712  1.00  0.00    -0.125 C  
BRANCH  12  13
HETATM   13  C   UNL     1      -7.898  11.166  67.811  1.00  0.00    -0.114 C  
HETATM   14  C   UNL     1      -6.383  10.890  67.808  1.00  0.00    -0.062 C  
HETATM   15  C   UNL     1      -5.826  12.003  68.675  1.00  0.00    -0.053 C  
HETATM   16  O   UNL     1      -5.824  11.029  66.502  1.00  0.00    -0.093 OA 
HETATM   17  C   UNL     1      -6.619  13.226  68.226  1.00  0.00    -0.099 C  
HETATM   18  H   UNL     1      -4.890  10.858  66.500  1.00  0.00     0.000 HD 
HETATM   19  C   UNL     1      -7.972  12.708  67.669  1.00  0.00    -0.169 C  
HETATM   20  O   UNL     1      -5.922  13.909  67.187  1.00  0.00    -0.338 OA 
HETATM   21  H   UNL     1      -6.416  14.671  66.907  1.00  0.00     0.000 HD 
BRANCH  19  22
HETATM   22  C   UNL     1      -9.162  13.329  68.424  1.00  0.00    -0.145 C  
BRANCH  22  23
HETATM   23  C   UNL     1     -10.192  13.896  67.443  1.00  0.00    -0.252 C  
BRANCH  23  24
HETATM   24  C   UNL     1     -10.248  15.428  67.395  1.00  0.00    -0.249 C  
HETATM   25  O   UNL     1     -10.725  15.859  66.120  1.00  0.00    -0.314 OA 
HETATM   26  H   UNL     1     -10.760  16.808  66.090  1.00  0.00     0.000 HD 
BRANCH  24  27
HETATM   27  C   UNL     1     -11.211  15.987  68.453  1.00  0.00    -0.364 C  
BRANCH  27  28
HETATM   28  C   UNL     1     -12.170  14.930  69.002  1.00  0.00    -0.171 C  
BRANCH  28  29
HETATM   29  C   UNL     1     -12.499  15.159  70.452  1.00  0.00    -0.416 A  
HETATM   30  C   UNL     1     -13.835  15.175  70.874  1.00  0.00    -0.312 A  
HETATM   31  C   UNL     1     -14.148  15.381  72.217  1.00  0.00    -0.660 A  
HETATM   32  C   UNL     1     -13.129  15.578  73.147  1.00  0.00    -0.656 A  
HETATM   33  C   UNL     1     -11.797  15.573  72.734  1.00  0.00    -0.575 A  
HETATM   34  C   UNL     1     -11.482  15.366  71.390  1.00  0.00    -0.465 A  
ENDBRANCH  28  29
ENDBRANCH  27  28
ENDBRANCH  24  27
ENDBRANCH  23  24
ENDBRANCH  22  23
ENDBRANCH  19  22
ENDBRANCH  12  13
ENDBRANCH  11  12
ENDBRANCH   9  10
ENDBRANCH   8   9
ENDBRANCH   7   8
ENDBRANCH   5   7
ENDBRANCH   4   5
ENDBRANCH   2   4
TORSDOF 14
ENDMDL
MODEL      126
REMARK 921   NORMALIZED FREE ENERGY PREDICTED BY IDOCK:   -4.74 KCAL/MOL
REMARK 922        TOTAL FREE ENERGY PREDICTED BY IDOCK:  -11.92 KCAL/MOL
REMARK 923 INTER-LIGAND FREE ENERGY PREDICTED BY IDOCK:   -9.06 KCAL/MOL
REMARK 924 INTRA-LIGAND FREE ENERGY PREDICTED BY IDOCK:   -2.86 KCAL/MOL
REMARK 927      BINDING AFFINITY PREDICTED BY RF-SCORE:    0.00 PKD
ROOT
HETATM    1  C   UNL     1     -12.112   7.604  72.411  1.00  0.00    -0.257 C  
HETATM    2  C   UNL     1     -11.258   6.439  71.924  1.00  0.00    -0.280 C  
HETATM    3  C   UNL     1     -11.368   5.253  72.874  1.00  0.00    -0.368 C  
ENDROOT
BRANCH   2   4
HETATM    4  O   UNL     1     -11.728   6.005  70.635  1.00  0.00    -0.196 OA 
BRANCH   4   5
HETATM    5  C   UNL     1     -10.751   5.658  69.748  1.00  0.00    -0.331 C  
HETATM    6  O   UNL     1     -10.178   4.577  69.714  1.00  0.00    -0.201 OA 
BRANCH   5   7
HETATM    7  C   UNL     1     -10.467   6.816  68.826  1.00  0.00    -0.231 C  
BRANCH   7   8
HETATM    8  C   UNL     1      -9.809   6.334  67.532  1.00  0.00    -0.139 C  
BRANCH   8   9
HETATM    9  C   UNL     1      -9.810   7.388  66.428  1.00  0.00    -0.137 C  
BRANCH   9  10
HETATM   10  C   UNL     1      -8.947   8.571  66.766  1.00  0.00    -0.173 C  
HETATM   11  C   UNL     1      -8.935   9.760  66.140  1.00  0.00    -0.181 C  
BRANCH  11  12
HETATM   12  C   UNL     1      -9.798  10.175  64.983  1.00  0.00    -0.392 C  
BRANCH  12  13
HETATM   13  C   UNL     1     -10.170  11.666  64.918  1.00  0.00    -0.315 C  
HETATM   14  C   UNL     1     -10.731  12.033  63.532  1.00  0.00    -0.455 C  
HETATM   15  C   UNL     1     -11.359  13.394  63.762  1.00  0.00    -0.206 C  
HETATM   16  O   UNL     1     -11.765  11.135  63.128  1.00  0.00    -0.753 OA 
HETATM   17  C   UNL     1     -12.053  13.236  65.111  1.00  0.00    -0.413 C  
HETATM   18  H   UNL     1     -12.111  11.361  62.272  1.00  0.00     0.000 HD 
HETATM   19  C   UNL     1     -11.293  12.125  65.883  1.00  0.00    -0.407 C  
HETATM   20  O   UNL     1     -13.406  12.827  64.922  1.00  0.00    -0.736 OA 
HETATM   21  H   UNL     1     -13.837  12.729  65.762  1.00  0.00     0.000 HD 
BRANCH  19  22
HETATM   22  C   UNL     1     -10.759  12.646  67.230  1.00  0.00    -0.259 C  
BRANCH  22  23
HETATM   23  C   UNL     1     -11.881  12.712  68.270  1.00  0.00    -0.354 C  
BRANCH  23  24
HETATM   24  C   UNL     1     -11.780  11.660  69.382  1.00  0.00    -0.340 C  
HETATM   25  O   UNL     1     -12.692  10.592  69.128  1.00  0.00    -0.662 OA 
HETATM   26  H   UNL     1     -12.629   9.940  69.817  1.00  0.00     0.000 HD 
BRANCH  24  27
HETATM   27  C   UNL     1     -10.372  11.049  69.448  1.00  0.00    -0.134 C  
BRANCH  27  28
HETATM   28  C   UNL     1     -10.272   9.891  70.441  1.00  0.00    -0.299 C  
BRANCH  28  29
HETATM   29  C   UNL     1      -8.858   9.406  70.610  1.00  0.00    -0.275 A  
HETATM   30  C   UNL     1      -7.822   9.988  69.867  1.00  0.00    -0.185 A  
HETATM   31  C   UNL     1      -6.509   9.546  70.022  1.00  0.00    -0.061 A  
HETATM   32  C   UNL     1      -6.222   8.518  70.917  1.00  0.00    -0.036 A  
HETATM   33  C   UNL     1      -7.248   7.927  71.654  1.00  0.00    -0.069 A  
HETATM   34  C   UNL     1      -8.563   8.368  71.500  1.00  0.00    -0.215 A  
ENDBRANCH  28  29
ENDBRANCH  27  28
ENDBRANCH  24  27
ENDBRANCH  23  24
ENDBRANCH  22  23
ENDBRANCH  19  22
ENDBRANCH  12  13
ENDBRANCH  11  12
ENDBRANCH   9  10
ENDBRANCH   8   9
ENDBRANCH   7   8
ENDBRANCH   5   7
ENDBRANCH   4   5
ENDBRANCH   2   4
TORSDOF 14
ENDMDL
MODEL      127
REMARK 921   NORMALIZED FREE ENERGY PREDICTED BY IDOCK:   -4.74 KCAL/MOL
REMARK 922        TOTAL FREE ENERGY PREDICTED BY IDOCK:  -11.92 KCAL/MOL
REMARK 923 INTER-LIGAND FREE ENERGY PREDICTED BY IDOCK:   -8.15 KCAL/MOL
REMARK 924 INTRA-LIGAND FREE ENERGY PREDICTED BY IDOCK:   -3.76 KCAL/MOL
REMARK 927      BINDING AFFINITY PREDICTED BY RF-SCORE:    0.00 PKD
ROOT
HETATM    1  C   UNL     1      -8.012   8.308  72.003  1.00  0.00    -0.176 C  
HETATM    2  C   UNL     1      -8.020   7.554  70.678  1.00  0.00    -0.100 C  
HETATM    3  C   UNL     1      -9.272   6.695  70.552  1.00  0.00    -0.156 C  
ENDROOT
BRANCH   2   4
HETATM    4  O   UNL     1      -8.030   8.496  69.590  1.00  0.00    -0.097 OA 
BRANCH   4   5
HETATM    5  C   UNL     1      -7.464   8.051  68.431  1.00  0.00    -0.103 C  
HETATM    6  O   UNL     1      -6.657   7.134  68.345  1.00  0.00    -0.045 OA 
BRANCH   5   7
HETATM    7  C   UNL     1      -7.966   8.873  67.272  1.00  0.00    -0.097 C  
BRANCH   7   8
HETATM    8  C   UNL     1      -6.859   9.777  66.727  1.00  0.00    -0.084 C  
BRANCH   8   9
HETATM    9  C   UNL     1      -7.254  11.251  66.685  1.00  0.00    -0.126 C  
BRANCH   9  10
HETATM   10  C   UNL     1      -7.646  11.777  68.036  1.00  0.00    -0.116 C  
HETATM   11  C   UNL     1      -8.090  13.014  68.318  1.00  0.00    -0.151 C  
BRANCH  11  12
HETATM   12  C   UNL     1      -8.314  14.132  67.341  1.00  0.00    -0.210 C  
BRANCH  12  13
HETATM   13  C   UNL     1      -9.540  15.024  67.605  1.00  0.00    -0.203 C  
HETATM   14  C   UNL     1      -9.499  15.606  69.030  1.00  0.00    -0.243 C  
HETATM   15  C   UNL     1     -10.545  16.704  68.986  1.00  0.00    -0.340 C  
HETATM   16  O   UNL     1      -8.238  16.213  69.315  1.00  0.00    -0.239 OA 
HETATM   17  C   UNL     1     -10.306  17.361  67.631  1.00  0.00    -0.355 C  
HETATM   18  H   UNL     1      -8.213  16.572  70.195  1.00  0.00     0.000 HD 
HETATM   19  C   UNL     1      -9.660  16.287  66.714  1.00  0.00    -0.254 C  
HETATM   20  O   UNL     1      -9.402  18.455  67.769  1.00  0.00    -0.268 OA 
HETATM   21  H   UNL     1      -9.253  18.864  66.925  1.00  0.00     0.000 HD 
BRANCH  19  22
HETATM   22  C   UNL     1     -10.503  16.055  65.446  1.00  0.00    -0.415 C  
BRANCH  22  23
HETATM   23  C   UNL     1     -11.524  14.936  65.670  1.00  0.00    -0.290 C  
BRANCH  23  24
HETATM   24  C   UNL     1     -11.496  13.829  64.608  1.00  0.00    -0.371 C  
HETATM   25  O   UNL     1     -10.152  13.588  64.190  1.00  0.00    -0.760 OA 
HETATM   26  H   UNL     1     -10.135  12.902  63.533  1.00  0.00     0.000 HD 
BRANCH  24  27
HETATM   27  C   UNL     1     -12.042  12.506  65.165  1.00  0.00    -0.503 C  
BRANCH  27  28
HETATM   28  C   UNL     1     -10.961  11.644  65.817  1.00  0.00    -0.329 C  
BRANCH  28  29
HETATM   29  C   UNL     1     -11.216  11.424  67.284  1.00  0.00    -0.370 A  
HETATM   30  C   UNL     1     -10.912  10.189  67.872  1.00  0.00    -0.335 A  
HETATM   31  C   UNL     1     -11.140   9.981  69.232  1.00  0.00    -0.248 A  
HETATM   32  C   UNL     1     -11.679  11.002  70.011  1.00  0.00    -0.437 A  
HETATM   33  C   UNL     1     -11.994  12.231  69.432  1.00  0.00    -0.318 A  
HETATM   34  C   UNL     1     -11.765  12.441  68.072  1.00  0.00    -0.414 A  
ENDBRANCH  28  29
ENDBRANCH  27  28
ENDBRANCH  24  27
ENDBRANCH  23  24
ENDBRANCH  22  23
ENDBRANCH  19  22
ENDBRANCH  12  13
ENDBRANCH  11  12
ENDBRANCH   9  10
ENDBRANCH   8   9
ENDBRANCH   7   8
ENDBRANCH   5   7
ENDBRANCH   4   5
ENDBRANCH   2   4
TORSDOF 14
ENDMDL
MODEL      128
REMARK 921   NORMALIZED FREE ENERGY PREDICTED BY IDOCK:   -4.72 KCAL/MOL
REMARK 922        TOTAL FREE ENERGY PREDICTED BY IDOCK:  -11.88 KCAL/MOL
REMARK 923 INTER-LIGAND FREE ENERGY PREDICTED BY IDOCK:   -9.86 KCAL/MOL
REMARK 924 INTRA-LIGAND FREE ENERGY PREDICTED BY IDOCK:   -2.02 KCAL/MOL
REMARK 927      BINDING AFFINITY PREDICTED BY RF-SCORE:    0.00 PKD
ROOT
HETATM    1  C   UNL     1     -11.188   5.891  70.789  1.00  0.00    -0.281 C  
HETATM    2  C   UNL     1     -10.707   7.124  70.032  1.00  0.00    -0.248 C  
HETATM    3  C   UNL     1     -10.729   8.353  70.932  1.00  0.00    -0.260 C  
ENDROOT
BRANCH   2   4
HETATM    4  O   UNL     1      -9.347   6.924  69.606  1.00  0.00    -0.146 OA 
BRANCH   4   5
HETATM    5  C   UNL     1      -9.178   6.766  68.261  1.00  0.00    -0.122 C  
HETATM    6  O   UNL     1      -9.229   5.699  67.662  1.00  0.00    -0.107 OA 
BRANCH   5   7
HETATM    7  C   UNL     1      -8.895   8.102  67.624  1.00  0.00    -0.136 C  
BRANCH   7   8
HETATM    8  C   UNL     1     -10.113   8.603  66.846  1.00  0.00    -0.355 C  
BRANCH   8   9
HETATM    9  C   UNL     1     -10.405  10.084  67.074  1.00  0.00    -0.305 C  
BRANCH   9  10
HETATM   10  C   UNL     1     -10.029  10.930  65.891  1.00  0.00    -0.294 C  
HETATM   11  C   UNL     1     -10.672  12.024  65.450  1.00  0.00    -0.330 C  
BRANCH  11  12
HETATM   12  C   UNL     1     -11.893  12.654  66.058  1.00  0.00    -0.492 C  
BRANCH  12  13
HETATM   13  C   UNL     1     -11.676  14.003  66.765  1.00  0.00    -0.430 C  
HETATM   14  C   UNL     1     -12.260  13.977  68.189  1.00  0.00    -0.156 C  
HETATM   15  C   UNL     1     -11.654  15.209  68.835  1.00  0.00    -0.361 C  
HETATM   16  O   UNL     1     -11.816  12.835  68.921  1.00  0.00    -0.305 OA 
HETATM   17  C   UNL     1     -10.210  15.184  68.347  1.00  0.00    -0.221 C  
HETATM   18  H   UNL     1     -12.177  12.819  69.800  1.00  0.00     0.000 HD 
HETATM   19  C   UNL     1     -10.199  14.413  67.001  1.00  0.00    -0.263 C  
HETATM   20  O   UNL     1      -9.387  14.491  69.284  1.00  0.00    -0.392 OA 
HETATM   21  H   UNL     1      -8.488  14.476  68.980  1.00  0.00     0.000 HD 
BRANCH  19  22
HETATM   22  C   UNL     1      -9.623  15.279  65.865  1.00  0.00    -0.377 C  
BRANCH  22  23
HETATM   23  C   UNL     1      -9.158  16.637  66.400  1.00  0.00    -0.325 C  
BRANCH  23  24
HETATM   24  C   UNL     1      -9.930  17.839  65.842  1.00  0.00    -0.120 C  
HETATM   25  O   UNL     1     -10.823  17.410  64.813  1.00  0.00    -0.846 OA 
HETATM   26  H   UNL     1     -11.301  18.155  64.467  1.00  0.00     0.000 HD 
BRANCH  24  27
HETATM   27  C   UNL     1     -10.779  18.514  66.929  1.00  0.00    -0.332 C  
BRANCH  27  28
HETATM   28  C   UNL     1     -10.353  19.955  67.207  1.00  0.00    -0.574 C  
BRANCH  28  29
HETATM   29  C   UNL     1      -8.923  20.048  67.667  1.00  0.00    -0.420 A  
HETATM   30  C   UNL     1      -7.999  20.807  66.936  1.00  0.00    -0.171 A  
HETATM   31  C   UNL     1      -6.674  20.901  67.358  1.00  0.00    -0.427 A  
HETATM   32  C   UNL     1      -6.261  20.234  68.510  1.00  0.00    -0.336 A  
HETATM   33  C   UNL     1      -7.172  19.469  69.238  1.00  0.00    -0.346 A  
HETATM   34  C   UNL     1      -8.499  19.374  68.816  1.00  0.00    -0.377 A  
ENDBRANCH  28  29
ENDBRANCH  27  28
ENDBRANCH  24  27
ENDBRANCH  23  24
ENDBRANCH  22  23
ENDBRANCH  19  22
ENDBRANCH  12  13
ENDBRANCH  11  12
ENDBRANCH   9  10
ENDBRANCH   8   9
ENDBRANCH   7   8
ENDBRANCH   5   7
ENDBRANCH   4   5
ENDBRANCH   2   4
TORSDOF 14
ENDMDL
MODEL      129
REMARK 921   NORMALIZED FREE ENERGY PREDICTED BY IDOCK:   -4.72 KCAL/MOL
REMARK 922        TOTAL FREE ENERGY PREDICTED BY IDOCK:  -11.88 KCAL/MOL
REMARK 923 INTER-LIGAND FREE ENERGY PREDICTED BY IDOCK:  -10.59 KCAL/MOL
REMARK 924 INTRA-LIGAND FREE ENERGY PREDICTED BY IDOCK:   -1.28 KCAL/MOL
REMARK 927      BINDING AFFINITY PREDICTED BY RF-SCORE:    0.00 PKD
ROOT
HETATM    1  C   UNL     1      -7.520   5.437  67.131  1.00  0.00    -0.084 C  
HETATM    2  C   UNL     1      -8.936   5.409  66.566  1.00  0.00    -0.120 C  
HETATM    3  C   UNL     1      -9.036   4.425  65.408  1.00  0.00    -0.143 C  
ENDROOT
BRANCH   2   4
HETATM    4  O   UNL     1      -9.851   4.970  67.587  1.00  0.00    -0.149 OA 
BRANCH   4   5
HETATM    5  C   UNL     1     -10.718   5.923  68.037  1.00  0.00    -0.252 C  
HETATM    6  O   UNL     1     -11.328   6.715  67.329  1.00  0.00    -0.324 OA 
BRANCH   5   7
HETATM    7  C   UNL     1     -10.797   5.869  69.541  1.00  0.00    -0.442 C  
BRANCH   7   8
HETATM    8  C   UNL     1     -11.504   7.108  70.094  1.00  0.00    -0.245 C  
BRANCH   8   9
HETATM    9  C   UNL     1     -10.599   8.336  70.159  1.00  0.00    -0.233 C  
BRANCH   9  10
HETATM   10  C   UNL     1     -11.233   9.475  70.907  1.00  0.00    -0.411 C  
HETATM   11  C   UNL     1     -11.703  10.618  70.380  1.00  0.00    -0.446 C  
BRANCH  11  12
HETATM   12  C   UNL     1     -11.720  10.996  68.927  1.00  0.00    -0.400 C  
BRANCH  12  13
HETATM   13  C   UNL     1     -10.661  12.020  68.483  1.00  0.00    -0.261 C  
HETATM   14  C   UNL     1      -9.283  11.352  68.325  1.00  0.00    -0.183 C  
HETATM   15  C   UNL     1      -8.481  12.389  67.561  1.00  0.00    -0.175 C  
HETATM   16  O   UNL     1      -9.357  10.175  67.521  1.00  0.00    -0.149 OA 
HETATM   17  C   UNL     1      -9.471  12.897  66.518  1.00  0.00    -0.251 C  
HETATM   18  H   UNL     1      -8.506   9.762  67.424  1.00  0.00     0.000 HD 
HETATM   19  C   UNL     1     -10.893  12.675  67.098  1.00  0.00    -0.282 C  
HETATM   20  O   UNL     1      -9.340  12.147  65.312  1.00  0.00    -0.432 OA 
HETATM   21  H   UNL     1      -9.957  12.464  64.663  1.00  0.00     0.000 HD 
BRANCH  19  22
HETATM   22  C   UNL     1     -11.676  13.999  67.177  1.00  0.00    -0.421 C  
BRANCH  22  23
HETATM   23  C   UNL     1     -12.510  14.214  65.911  1.00  0.00    -0.479 C  
BRANCH  23  24
HETATM   24  C   UNL     1     -11.698  14.626  64.677  1.00  0.00    -0.426 C  
HETATM   25  O   UNL     1     -12.521  14.578  63.512  1.00  0.00    -1.089 OA 
HETATM   26  H   UNL     1     -12.018  14.834  62.748  1.00  0.00     0.000 HD 
BRANCH  24  27
HETATM   27  C   UNL     1     -11.175  16.065  64.805  1.00  0.00    -0.348 C  
BRANCH  27  28
HETATM   28  C   UNL     1      -9.986  16.183  65.759  1.00  0.00    -0.370 C  
BRANCH  28  29
HETATM   29  C   UNL     1     -10.021  17.458  66.557  1.00  0.00    -0.314 A  
HETATM   30  C   UNL     1     -10.649  18.596  66.035  1.00  0.00    -0.410 A  
HETATM   31  C   UNL     1     -10.689  19.779  66.771  1.00  0.00    -0.526 A  
HETATM   32  C   UNL     1     -10.098  19.835  68.032  1.00  0.00    -0.571 A  
HETATM   33  C   UNL     1      -9.463  18.710  68.555  1.00  0.00    -0.386 A  
HETATM   34  C   UNL     1      -9.422  17.524  67.819  1.00  0.00    -0.269 A  
ENDBRANCH  28  29
ENDBRANCH  27  28
ENDBRANCH  24  27
ENDBRANCH  23  24
ENDBRANCH  22  23
ENDBRANCH  19  22
ENDBRANCH  12  13
ENDBRANCH  11  12
ENDBRANCH   9  10
ENDBRANCH   8   9
ENDBRANCH   7   8
ENDBRANCH   5   7
ENDBRANCH   4   5
ENDBRANCH   2   4
TORSDOF 14
ENDMDL
MODEL      130
REMARK 921   NORMALIZED FREE ENERGY PREDICTED BY IDOCK:   -4.72 KCAL/MOL
REMARK 922        TOTAL FREE ENERGY PREDICTED BY IDOCK:  -11.87 KCAL/MOL
REMARK 923 INTER-LIGAND FREE ENERGY PREDICTED BY IDOCK:   -9.16 KCAL/MOL
REMARK 924 INTRA-LIGAND FREE ENERGY PREDICTED BY IDOCK:   -2.71 KCAL/MOL
REMARK 927      BINDING AFFINITY PREDICTED BY RF-SCORE:    0.00 PKD
ROOT
HETATM    1  C   UNL     1      -9.324   7.702  68.253  1.00  0.00    -0.145 C  
HETATM    2  C   UNL     1      -9.885   7.657  66.836  1.00  0.00    -0.234 C  
HETATM    3  C   UNL     1      -9.673   8.989  66.128  1.00  0.00    -0.354 C  
ENDROOT
BRANCH   2   4
HETATM    4  O   UNL     1      -9.190   6.649  66.079  1.00  0.00    -0.130 OA 
BRANCH   4   5
HETATM    5  C   UNL     1      -9.714   5.392  66.169  1.00  0.00    -0.145 C  
HETATM    6  O   UNL     1     -10.908   5.122  66.185  1.00  0.00    -0.282 OA 
BRANCH   5   7
HETATM    7  C   UNL     1      -8.598   4.383  66.269  1.00  0.00    -0.112 C  
BRANCH   7   8
HETATM    8  C   UNL     1      -8.895   3.349  67.357  1.00  0.00    -0.150 C  
BRANCH   8   9
HETATM    9  C   UNL     1      -8.065   3.553  68.622  1.00  0.00    -0.073 C  
BRANCH   9  10
HETATM   10  C   UNL     1      -8.658   2.857  69.814  1.00  0.00    -0.115 C  
HETATM   11  C   UNL     1      -9.535   3.375  70.692  1.00  0.00    -0.243 C  
BRANCH  11  12
HETATM   12  C   UNL     1     -10.131   4.753  70.658  1.00  0.00    -0.288 C  
BRANCH  12  13
HETATM   13  C   UNL     1     -10.000   5.578  71.950  1.00  0.00    -0.227 C  
HETATM   14  C   UNL     1      -8.520   5.816  72.302  1.00  0.00    -0.122 C  
HETATM   15  C   UNL     1      -8.585   6.909  73.352  1.00  0.00    -0.145 C  
HETATM   16  O   UNL     1      -7.788   6.324  71.186  1.00  0.00    -0.106 OA 
HETATM   17  C   UNL     1      -9.648   7.856  72.805  1.00  0.00    -0.247 C  
HETATM   18  H   UNL     1      -6.875   6.470  71.403  1.00  0.00     0.000 HD 
HETATM   19  C   UNL     1     -10.583   7.013  71.897  1.00  0.00    -0.239 C  
HETATM   20  O   UNL     1      -9.037   8.877  72.018  1.00  0.00    -0.353 OA 
HETATM   21  H   UNL     1      -9.699   9.467  71.677  1.00  0.00     0.000 HD 
BRANCH  19  22
HETATM   22  C   UNL     1     -12.044   7.091  72.376  1.00  0.00    -0.127 C  
BRANCH  22  23
HETATM   23  C   UNL     1     -12.916   7.815  71.346  1.00  0.00    -0.322 C  
BRANCH  23  24
HETATM   24  C   UNL     1     -13.615   9.072  71.877  1.00  0.00    -0.431 C  
HETATM   25  O   UNL     1     -13.915   8.916  73.264  1.00  0.00    -1.203 OA 
HETATM   26  H   UNL     1     -14.348   9.695  73.593  1.00  0.00     0.000 HD 
BRANCH  24  27
HETATM   27  C   UNL     1     -12.717  10.312  71.743  1.00  0.00    -0.535 C  
BRANCH  27  28
HETATM   28  C   UNL     1     -11.803  10.255  70.520  1.00  0.00    -0.419 C  
BRANCH  28  29
HETATM   29  C   UNL     1     -11.824  11.536  69.732  1.00  0.00    -0.429 A  
HETATM   30  C   UNL     1     -12.122  12.748  70.371  1.00  0.00    -0.382 A  
HETATM   31  C   UNL     1     -12.138  13.940  69.649  1.00  0.00    -0.404 A  
HETATM   32  C   UNL     1     -11.863  13.930  68.283  1.00  0.00    -0.412 A  
HETATM   33  C   UNL     1     -11.575  12.728  67.637  1.00  0.00    -0.412 A  
HETATM   34  C   UNL     1     -11.558  11.534  68.359  1.00  0.00    -0.375 A  
ENDBRANCH  28  29
ENDBRANCH  27  28
ENDBRANCH  24  27
ENDBRANCH  23  24
ENDBRANCH  22  23
ENDBRANCH  19  22
ENDBRANCH  12  13
ENDBRANCH  11  12
ENDBRANCH   9  10
ENDBRANCH   8   9
ENDBRANCH   7   8
ENDBRANCH   5   7
ENDBRANCH   4   5
ENDBRANCH   2   4
TORSDOF 14
ENDMDL
MODEL      131
REMARK 921   NORMALIZED FREE ENERGY PREDICTED BY IDOCK:   -4.71 KCAL/MOL
REMARK 922        TOTAL FREE ENERGY PREDICTED BY IDOCK:  -11.87 KCAL/MOL
REMARK 923 INTER-LIGAND FREE ENERGY PREDICTED BY IDOCK:  -10.06 KCAL/MOL
REMARK 924 INTRA-LIGAND FREE ENERGY PREDICTED BY IDOCK:   -1.81 KCAL/MOL
REMARK 927      BINDING AFFINITY PREDICTED BY RF-SCORE:    0.00 PKD
ROOT
HETATM    1  C   UNL     1      -9.793  13.319  67.186  1.00  0.00    -0.237 C  
HETATM    2  C   UNL     1     -10.374  14.725  67.280  1.00  0.00    -0.247 C  
HETATM    3  C   UNL     1      -9.855  15.602  66.148  1.00  0.00    -0.340 C  
ENDROOT
BRANCH   2   4
HETATM    4  O   UNL     1     -11.807  14.661  67.156  1.00  0.00    -0.391 OA 
BRANCH   4   5
HETATM    5  C   UNL     1     -12.280  13.599  66.442  1.00  0.00    -0.423 C  
HETATM    6  O   UNL     1     -12.263  12.432  66.813  1.00  0.00    -0.551 OA 
BRANCH   5   7
HETATM    7  C   UNL     1     -12.809  14.076  65.113  1.00  0.00    -0.368 C  
BRANCH   7   8
HETATM    8  C   UNL     1     -11.881  13.650  63.974  1.00  0.00    -0.444 C  
BRANCH   8   9
HETATM    9  C   UNL     1     -12.015  12.173  63.611  1.00  0.00    -0.628 C  
BRANCH   9  10
HETATM   10  C   UNL     1     -10.703  11.562  63.206  1.00  0.00    -0.374 C  
HETATM   11  C   UNL     1      -9.946  10.728  63.939  1.00  0.00    -0.404 C  
BRANCH  11  12
HETATM   12  C   UNL     1     -10.257  10.206  65.313  1.00  0.00    -0.261 C  
BRANCH  12  13
HETATM   13  C   UNL     1      -9.483   8.951  65.750  1.00  0.00    -0.272 C  
HETATM   14  C   UNL     1      -7.963   9.196  65.693  1.00  0.00    -0.107 C  
HETATM   15  C   UNL     1      -7.395   8.027  66.475  1.00  0.00    -0.084 C  
HETATM   16  O   UNL     1      -7.597  10.397  66.371  1.00  0.00    -0.111 OA 
HETATM   17  C   UNL     1      -8.344   7.906  67.662  1.00  0.00    -0.124 C  
HETATM   18  H   UNL     1      -6.659  10.548  66.336  1.00  0.00     0.000 HD 
HETATM   19  C   UNL     1      -9.708   8.493  67.213  1.00  0.00    -0.239 C  
HETATM   20  O   UNL     1      -7.851   8.668  68.763  1.00  0.00    -0.102 OA 
HETATM   21  H   UNL     1      -8.443   8.593  69.502  1.00  0.00     0.000 HD 
BRANCH  19  22
HETATM   22  C   UNL     1     -10.837   7.454  67.355  1.00  0.00    -0.299 C  
BRANCH  22  23
HETATM   23  C   UNL     1     -10.426   6.334  68.315  1.00  0.00    -0.277 C  
BRANCH  23  24
HETATM   24  C   UNL     1     -11.181   6.333  69.650  1.00  0.00    -0.437 C  
HETATM   25  O   UNL     1     -10.763   5.224  70.447  1.00  0.00    -0.250 OA 
HETATM   26  H   UNL     1     -11.230   5.223  71.274  1.00  0.00     0.000 HD 
BRANCH  24  27
HETATM   27  C   UNL     1     -10.891   7.607  70.459  1.00  0.00    -0.249 C  
BRANCH  27  28
HETATM   28  C   UNL     1     -12.117   8.127  71.209  1.00  0.00    -0.313 C  
BRANCH  28  29
HETATM   29  C   UNL     1     -12.264   9.620  71.097  1.00  0.00    -0.437 A  
HETATM   30  C   UNL     1     -13.043  10.321  72.027  1.00  0.00    -0.529 A  
HETATM   31  C   UNL     1     -13.179  11.705  71.932  1.00  0.00    -0.475 A  
HETATM   32  C   UNL     1     -12.542  12.397  70.905  1.00  0.00    -0.337 A  
HETATM   33  C   UNL     1     -11.773  11.707  69.969  1.00  0.00    -0.402 A  
HETATM   34  C   UNL     1     -11.636  10.321  70.063  1.00  0.00    -0.349 A  
ENDBRANCH  28  29
ENDBRANCH  27  28
ENDBRANCH  24  27
ENDBRANCH  23  24
ENDBRANCH  22  23
ENDBRANCH  19  22
ENDBRANCH  12  13
ENDBRANCH  11  12
ENDBRANCH   9  10
ENDBRANCH   8   9
ENDBRANCH   7   8
ENDBRANCH   5   7
ENDBRANCH   4   5
ENDBRANCH   2   4
TORSDOF 14
ENDMDL
MODEL      132
REMARK 921   NORMALIZED FREE ENERGY PREDICTED BY IDOCK:   -4.71 KCAL/MOL
REMARK 922        TOTAL FREE ENERGY PREDICTED BY IDOCK:  -11.86 KCAL/MOL
REMARK 923 INTER-LIGAND FREE ENERGY PREDICTED BY IDOCK:   -9.10 KCAL/MOL
REMARK 924 INTRA-LIGAND FREE ENERGY PREDICTED BY IDOCK:   -2.76 KCAL/MOL
REMARK 927      BINDING AFFINITY PREDICTED BY RF-SCORE:    0.00 PKD
ROOT
HETATM    1  C   UNL     1      -5.639  14.261  70.841  1.00  0.00    -0.185 C  
HETATM    2  C   UNL     1      -5.867  13.215  69.757  1.00  0.00    -0.124 C  
HETATM    3  C   UNL     1      -5.808  11.809  70.340  1.00  0.00    -0.156 C  
ENDROOT
BRANCH   2   4
HETATM    4  O   UNL     1      -7.177  13.393  69.187  1.00  0.00    -0.068 OA 
BRANCH   4   5
HETATM    5  C   UNL     1      -7.207  13.522  67.829  1.00  0.00    -0.154 C  
HETATM    6  O   UNL     1      -6.550  12.855  67.040  1.00  0.00    -0.140 OA 
BRANCH   5   7
HETATM    7  C   UNL     1      -8.156  14.629  67.445  1.00  0.00    -0.216 C  
BRANCH   7   8
HETATM    8  C   UNL     1      -9.543  14.388  68.043  1.00  0.00    -0.216 C  
BRANCH   8   9
HETATM    9  C   UNL     1     -10.671  14.541  67.026  1.00  0.00    -0.291 C  
BRANCH   9  10
HETATM   10  C   UNL     1     -10.158  14.697  65.622  1.00  0.00    -0.389 C  
HETATM   11  C   UNL     1     -10.449  13.913  64.570  1.00  0.00    -0.334 C  
BRANCH  11  12
HETATM   12  C   UNL     1     -11.369  12.727  64.562  1.00  0.00    -0.378 C  
BRANCH  12  13
HETATM   13  C   UNL     1     -10.698  11.351  64.718  1.00  0.00    -0.362 C  
HETATM   14  C   UNL     1     -10.006  10.925  63.410  1.00  0.00    -0.361 C  
HETATM   15  C   UNL     1      -9.126   9.768  63.844  1.00  0.00    -0.275 C  
HETATM   16  O   UNL     1      -9.157  11.956  62.904  1.00  0.00    -0.639 OA 
HETATM   17  C   UNL     1      -8.547  10.248  65.171  1.00  0.00    -0.171 C  
HETATM   18  H   UNL     1      -8.730  11.693  62.096  1.00  0.00     0.000 HD 
HETATM   19  C   UNL     1      -9.555  11.271  65.761  1.00  0.00    -0.256 C  
HETATM   20  O   UNL     1      -7.298  10.901  64.954  1.00  0.00    -0.349 OA 
HETATM   21  H   UNL     1      -6.938  11.200  65.781  1.00  0.00     0.000 HD 
BRANCH  19  22
HETATM   22  C   UNL     1     -10.038  10.837  67.157  1.00  0.00    -0.243 C  
BRANCH  22  23
HETATM   23  C   UNL     1     -10.302   9.329  67.196  1.00  0.00    -0.330 C  
BRANCH  23  24
HETATM   24  C   UNL     1      -9.729   8.615  68.427  1.00  0.00    -0.162 C  
HETATM   25  O   UNL     1      -8.730   7.677  68.026  1.00  0.00    -0.125 OA 
HETATM   26  H   UNL     1      -8.374   7.235  68.788  1.00  0.00     0.000 HD 
BRANCH  24  27
HETATM   27  C   UNL     1      -9.060   9.608  69.389  1.00  0.00    -0.194 C  
BRANCH  27  28
HETATM   28  C   UNL     1      -9.321   9.278  70.859  1.00  0.00    -0.313 C  
BRANCH  28  29
HETATM   29  C   UNL     1     -10.782   9.361  71.211  1.00  0.00    -0.421 A  
HETATM   30  C   UNL     1     -11.377   8.351  71.979  1.00  0.00    -0.411 A  
HETATM   31  C   UNL     1     -12.729   8.423  72.313  1.00  0.00    -0.376 A  
HETATM   32  C   UNL     1     -13.496   9.501  71.877  1.00  0.00    -0.502 A  
HETATM   33  C   UNL     1     -12.915  10.505  71.103  1.00  0.00    -0.506 A  
HETATM   34  C   UNL     1     -11.561  10.435  70.769  1.00  0.00    -0.450 A  
ENDBRANCH  28  29
ENDBRANCH  27  28
ENDBRANCH  24  27
ENDBRANCH  23  24
ENDBRANCH  22  23
ENDBRANCH  19  22
ENDBRANCH  12  13
ENDBRANCH  11  12
ENDBRANCH   9  10
ENDBRANCH   8   9
ENDBRANCH   7   8
ENDBRANCH   5   7
ENDBRANCH   4   5
ENDBRANCH   2   4
TORSDOF 14
ENDMDL
MODEL      133
REMARK 921   NORMALIZED FREE ENERGY PREDICTED BY IDOCK:   -4.71 KCAL/MOL
REMARK 922        TOTAL FREE ENERGY PREDICTED BY IDOCK:  -11.86 KCAL/MOL
REMARK 923 INTER-LIGAND FREE ENERGY PREDICTED BY IDOCK:   -9.58 KCAL/MOL
REMARK 924 INTRA-LIGAND FREE ENERGY PREDICTED BY IDOCK:   -2.28 KCAL/MOL
REMARK 927      BINDING AFFINITY PREDICTED BY RF-SCORE:    0.00 PKD
ROOT
HETATM    1  C   UNL     1     -11.036   6.657  68.009  1.00  0.00    -0.332 C  
HETATM    2  C   UNL     1      -9.702   6.859  67.300  1.00  0.00    -0.146 C  
HETATM    3  C   UNL     1      -9.328   5.625  66.488  1.00  0.00    -0.159 C  
ENDROOT
BRANCH   2   4
HETATM    4  O   UNL     1      -9.809   7.964  66.384  1.00  0.00    -0.216 OA 
BRANCH   4   5
HETATM    5  C   UNL     1      -9.574   9.193  66.928  1.00  0.00    -0.178 C  
HETATM    6  O   UNL     1     -10.352  10.138  66.904  1.00  0.00    -0.224 OA 
BRANCH   5   7
HETATM    7  C   UNL     1      -8.199   9.221  67.544  1.00  0.00    -0.114 C  
BRANCH   7   8
HETATM    8  C   UNL     1      -8.000  10.491  68.374  1.00  0.00    -0.116 C  
BRANCH   8   9
HETATM    9  C   UNL     1      -7.844  10.215  69.867  1.00  0.00    -0.164 C  
BRANCH   9  10
HETATM   10  C   UNL     1      -8.179   8.794  70.224  1.00  0.00    -0.120 C  
HETATM   11  C   UNL     1      -9.224   8.376  70.958  1.00  0.00    -0.206 C  
BRANCH  11  12
HETATM   12  C   UNL     1     -10.299   9.235  71.560  1.00  0.00    -0.364 C  
BRANCH  12  13
HETATM   13  C   UNL     1     -11.743   8.890  71.157  1.00  0.00    -0.356 C  
HETATM   14  C   UNL     1     -12.130   7.483  71.650  1.00  0.00    -0.311 C  
HETATM   15  C   UNL     1     -13.638   7.463  71.491  1.00  0.00    -0.454 C  
HETATM   16  O   UNL     1     -11.833   7.309  73.035  1.00  0.00    -0.548 OA 
HETATM   17  C   UNL     1     -14.060   8.844  71.981  1.00  0.00    -0.411 C  
HETATM   18  H   UNL     1     -12.071   6.441  73.339  1.00  0.00     0.000 HD 
HETATM   19  C   UNL     1     -12.848   9.790  71.767  1.00  0.00    -0.530 C  
HETATM   20  O   UNL     1     -14.371   8.797  73.372  1.00  0.00    -1.155 OA 
HETATM   21  H   UNL     1     -14.633   9.658  73.677  1.00  0.00     0.000 HD 
BRANCH  19  22
HETATM   22  C   UNL     1     -13.222  10.983  70.868  1.00  0.00    -0.037 C  
BRANCH  22  23
HETATM   23  C   UNL     1     -12.360  12.204  71.199  1.00  0.00    -0.265 C  
BRANCH  23  24
HETATM   24  C   UNL     1     -13.155  13.477  71.512  1.00  0.00    -0.344 C  
HETATM   25  O   UNL     1     -12.939  13.867  72.868  1.00  0.00    -0.422 OA 
HETATM   26  H   UNL     1     -13.431  14.656  73.062  1.00  0.00     0.000 HD 
BRANCH  24  27
HETATM   27  C   UNL     1     -12.705  14.650  70.626  1.00  0.00    -0.417 C  
BRANCH  27  28
HETATM   28  C   UNL     1     -11.973  14.195  69.364  1.00  0.00    -0.382 C  
BRANCH  28  29
HETATM   29  C   UNL     1     -11.052  15.256  68.826  1.00  0.00    -0.273 A  
HETATM   30  C   UNL     1     -10.130  14.941  67.819  1.00  0.00    -0.234 A  
HETATM   31  C   UNL     1      -9.276  15.920  67.313  1.00  0.00    -0.216 A  
HETATM   32  C   UNL     1      -9.334  17.219  67.813  1.00  0.00    -0.250 A  
HETATM   33  C   UNL     1     -10.241  17.539  68.822  1.00  0.00    -0.373 A  
HETATM   34  C   UNL     1     -11.097  16.560  69.329  1.00  0.00    -0.260 A  
ENDBRANCH  28  29
ENDBRANCH  27  28
ENDBRANCH  24  27
ENDBRANCH  23  24
ENDBRANCH  22  23
ENDBRANCH  19  22
ENDBRANCH  12  13
ENDBRANCH  11  12
ENDBRANCH   9  10
ENDBRANCH   8   9
ENDBRANCH   7   8
ENDBRANCH   5   7
ENDBRANCH   4   5
ENDBRANCH   2   4
TORSDOF 14
ENDMDL
MODEL      134
REMARK 921   NORMALIZED FREE ENERGY PREDICTED BY IDOCK:   -4.70 KCAL/MOL
REMARK 922        TOTAL FREE ENERGY PREDICTED BY IDOCK:  -11.83 KCAL/MOL
REMARK 923 INTER-LIGAND FREE ENERGY PREDICTED BY IDOCK:   -9.80 KCAL/MOL
REMARK 924 INTRA-LIGAND FREE ENERGY PREDICTED BY IDOCK:   -2.04 KCAL/MOL
REMARK 927      BINDING AFFINITY PREDICTED BY RF-SCORE:    0.00 PKD
ROOT
HETATM    1  C   UNL     1     -11.374   6.281  69.482  1.00  0.00    -0.475 C  
HETATM    2  C   UNL     1     -10.177   6.642  70.354  1.00  0.00    -0.188 C  
HETATM    3  C   UNL     1     -10.020   5.646  71.495  1.00  0.00    -0.230 C  
ENDROOT
BRANCH   2   4
HETATM    4  O   UNL     1      -8.975   6.589  69.564  1.00  0.00    -0.136 OA 
BRANCH   4   5
HETATM    5  C   UNL     1      -8.098   7.613  69.774  1.00  0.00    -0.125 C  
HETATM    6  O   UNL     1      -7.199   7.616  70.606  1.00  0.00    -0.060 OA 
BRANCH   5   7
HETATM    7  C   UNL     1      -8.415   8.753  68.840  1.00  0.00    -0.131 C  
BRANCH   7   8
HETATM    8  C   UNL     1      -7.239   9.728  68.752  1.00  0.00    -0.072 C  
BRANCH   8   9
HETATM    9  C   UNL     1      -7.459  10.843  67.733  1.00  0.00    -0.094 C  
BRANCH   9  10
HETATM   10  C   UNL     1      -7.395  12.209  68.356  1.00  0.00    -0.108 C  
HETATM   11  C   UNL     1      -8.388  13.112  68.411  1.00  0.00    -0.122 C  
BRANCH  11  12
HETATM   12  C   UNL     1      -9.785  12.945  67.885  1.00  0.00    -0.218 C  
BRANCH  12  13
HETATM   13  C   UNL     1      -9.944  13.014  66.357  1.00  0.00    -0.277 C  
HETATM   14  C   UNL     1     -10.731  11.799  65.831  1.00  0.00    -0.282 C  
HETATM   15  C   UNL     1     -11.093  12.207  64.415  1.00  0.00    -0.387 C  
HETATM   16  O   UNL     1     -11.946  11.605  66.555  1.00  0.00    -0.474 OA 
HETATM   17  C   UNL     1     -11.495  13.670  64.565  1.00  0.00    -0.379 C  
HETATM   18  H   UNL     1     -12.432  10.855  66.231  1.00  0.00     0.000 HD 
HETATM   19  C   UNL     1     -10.756  14.218  65.815  1.00  0.00    -0.308 C  
HETATM   20  O   UNL     1     -12.902  13.773  64.778  1.00  0.00    -0.685 OA 
HETATM   21  H   UNL     1     -13.152  14.684  64.871  1.00  0.00     0.000 HD 
BRANCH  19  22
HETATM   22  C   UNL     1      -9.875  15.429  65.456  1.00  0.00    -0.359 C  
BRANCH  22  23
HETATM   23  C   UNL     1     -10.290  16.661  66.266  1.00  0.00    -0.323 C  
BRANCH  23  24
HETATM   24  C   UNL     1      -9.877  16.621  67.742  1.00  0.00    -0.252 C  
HETATM   25  O   UNL     1      -9.338  17.884  68.133  1.00  0.00    -0.269 OA 
HETATM   26  H   UNL     1      -9.083  17.859  69.048  1.00  0.00     0.000 HD 
BRANCH  24  27
HETATM   27  C   UNL     1     -11.081  16.339  68.653  1.00  0.00    -0.356 C  
BRANCH  27  28
HETATM   28  C   UNL     1     -10.673  15.904  70.061  1.00  0.00    -0.343 C  
BRANCH  28  29
HETATM   29  C   UNL     1     -11.857  15.749  70.976  1.00  0.00    -0.460 A  
HETATM   30  C   UNL     1     -11.733  16.041  72.341  1.00  0.00    -0.573 A  
HETATM   31  C   UNL     1     -12.828  15.905  73.193  1.00  0.00    -0.643 A  
HETATM   32  C   UNL     1     -14.052  15.472  72.689  1.00  0.00    -0.536 A  
HETATM   33  C   UNL     1     -14.182  15.170  71.334  1.00  0.00    -0.597 A  
HETATM   34  C   UNL     1     -13.087  15.306  70.480  1.00  0.00    -0.334 A  
ENDBRANCH  28  29
ENDBRANCH  27  28
ENDBRANCH  24  27
ENDBRANCH  23  24
ENDBRANCH  22  23
ENDBRANCH  19  22
ENDBRANCH  12  13
ENDBRANCH  11  12
ENDBRANCH   9  10
ENDBRANCH   8   9
ENDBRANCH   7   8
ENDBRANCH   5   7
ENDBRANCH   4   5
ENDBRANCH   2   4
TORSDOF 14
ENDMDL
MODEL      135
REMARK 921   NORMALIZED FREE ENERGY PREDICTED BY IDOCK:   -4.67 KCAL/MOL
REMARK 922        TOTAL FREE ENERGY PREDICTED BY IDOCK:  -11.78 KCAL/MOL
REMARK 923 INTER-LIGAND FREE ENERGY PREDICTED BY IDOCK:   -7.95 KCAL/MOL
REMARK 924 INTRA-LIGAND FREE ENERGY PREDICTED BY IDOCK:   -3.83 KCAL/MOL
REMARK 927      BINDING AFFINITY PREDICTED BY RF-SCORE:    0.00 PKD
ROOT
HETATM    1  C   UNL     1     -10.786  14.363  66.114  1.00  0.00    -0.309 C  
HETATM    2  C   UNL     1     -11.878  13.431  65.600  1.00  0.00    -0.370 C  
HETATM    3  C   UNL     1     -12.233  13.760  64.156  1.00  0.00    -0.443 C  
ENDROOT
BRANCH   2   4
HETATM    4  O   UNL     1     -11.403  12.073  65.630  1.00  0.00    -0.333 OA 
BRANCH   4   5
HETATM    5  C   UNL     1     -11.256  11.538  66.877  1.00  0.00    -0.298 C  
HETATM    6  O   UNL     1     -12.033  11.695  67.811  1.00  0.00    -0.608 OA 
BRANCH   5   7
HETATM    7  C   UNL     1      -9.979  10.740  66.940  1.00  0.00    -0.240 C  
BRANCH   7   8
HETATM    8  C   UNL     1     -10.125   9.418  66.185  1.00  0.00    -0.324 C  
BRANCH   8   9
HETATM    9  C   UNL     1      -9.684   8.207  67.004  1.00  0.00    -0.275 C  
BRANCH   9  10
HETATM   10  C   UNL     1     -10.646   7.058  66.891  1.00  0.00    -0.372 C  
HETATM   11  C   UNL     1     -11.014   6.220  67.874  1.00  0.00    -0.421 C  
BRANCH  11  12
HETATM   12  C   UNL     1     -10.565   6.264  69.306  1.00  0.00    -0.332 C  
BRANCH  12  13
HETATM   13  C   UNL     1     -11.195   7.363  70.179  1.00  0.00    -0.239 C  
HETATM   14  C   UNL     1     -12.209   6.764  71.170  1.00  0.00    -0.360 C  
HETATM   15  C   UNL     1     -12.444   7.897  72.152  1.00  0.00    -0.304 C  
HETATM   16  O   UNL     1     -11.654   5.665  71.893  1.00  0.00    -0.178 OA 
HETATM   17  C   UNL     1     -11.046   8.463  72.373  1.00  0.00    -0.361 C  
HETATM   18  H   UNL     1     -12.281   5.296  72.505  1.00  0.00     0.000 HD 
HETATM   19  C   UNL     1     -10.218   8.136  71.102  1.00  0.00    -0.234 C  
HETATM   20  O   UNL     1     -10.434   7.835  73.498  1.00  0.00    -0.311 OA 
HETATM   21  H   UNL     1      -9.563   8.188  73.635  1.00  0.00     0.000 HD 
BRANCH  19  22
HETATM   22  C   UNL     1      -9.659   9.417  70.454  1.00  0.00    -0.319 C  
BRANCH  22  23
HETATM   23  C   UNL     1      -8.128   9.410  70.472  1.00  0.00    -0.212 C  
BRANCH  23  24
HETATM   24  C   UNL     1      -7.478  10.491  69.600  1.00  0.00    -0.141 C  
HETATM   25  O   UNL     1      -6.664  11.344  70.405  1.00  0.00    -0.497 OA 
HETATM   26  H   UNL     1      -6.261  12.013  69.865  1.00  0.00     0.000 HD 
BRANCH  24  27
HETATM   27  C   UNL     1      -6.566   9.873  68.528  1.00  0.00    -0.054 C  
BRANCH  27  28
HETATM   28  C   UNL     1      -5.965   8.535  68.959  1.00  0.00    -0.043 C  
BRANCH  28  29
HETATM   29  C   UNL     1      -6.397   7.403  68.065  1.00  0.00    -0.048 A  
HETATM   30  C   UNL     1      -6.987   6.259  68.618  1.00  0.00    -0.080 A  
HETATM   31  C   UNL     1      -7.394   5.209  67.796  1.00  0.00    -0.075 A  
HETATM   32  C   UNL     1      -7.208   5.292  66.418  1.00  0.00    -0.077 A  
HETATM   33  C   UNL     1      -6.613   6.423  65.860  1.00  0.00    -0.047 A  
HETATM   34  C   UNL     1      -6.206   7.475  66.682  1.00  0.00    -0.045 A  
ENDBRANCH  28  29
ENDBRANCH  27  28
ENDBRANCH  24  27
ENDBRANCH  23  24
ENDBRANCH  22  23
ENDBRANCH  19  22
ENDBRANCH  12  13
ENDBRANCH  11  12
ENDBRANCH   9  10
ENDBRANCH   8   9
ENDBRANCH   7   8
ENDBRANCH   5   7
ENDBRANCH   4   5
ENDBRANCH   2   4
TORSDOF 14
ENDMDL
MODEL      136
REMARK 921   NORMALIZED FREE ENERGY PREDICTED BY IDOCK:   -4.66 KCAL/MOL
REMARK 922        TOTAL FREE ENERGY PREDICTED BY IDOCK:  -11.76 KCAL/MOL
REMARK 923 INTER-LIGAND FREE ENERGY PREDICTED BY IDOCK:   -9.44 KCAL/MOL
REMARK 924 INTRA-LIGAND FREE ENERGY PREDICTED BY IDOCK:   -2.32 KCAL/MOL
REMARK 927      BINDING AFFINITY PREDICTED BY RF-SCORE:    0.00 PKD
ROOT
HETATM    1  C   UNL     1     -12.223  12.815  63.336  1.00  0.00    -0.594 C  
HETATM    2  C   UNL     1     -11.548  13.270  64.625  1.00  0.00    -0.350 C  
HETATM    3  C   UNL     1     -10.674  12.162  65.198  1.00  0.00    -0.333 C  
ENDROOT
BRANCH   2   4
HETATM    4  O   UNL     1     -10.693  14.395  64.347  1.00  0.00    -0.296 OA 
BRANCH   4   5
HETATM    5  C   UNL     1     -11.215  15.613  64.670  1.00  0.00    -0.369 C  
HETATM    6  O   UNL     1     -11.838  16.341  63.908  1.00  0.00    -0.994 OA 
BRANCH   5   7
HETATM    7  C   UNL     1     -10.888  15.941  66.105  1.00  0.00    -0.208 C  
BRANCH   7   8
HETATM    8  C   UNL     1      -9.739  16.947  66.185  1.00  0.00    -0.296 C  
BRANCH   8   9
HETATM    9  C   UNL     1      -8.363  16.287  66.209  1.00  0.00    -0.343 C  
BRANCH   9  10
HETATM   10  C   UNL     1      -7.365  17.072  67.012  1.00  0.00    -0.220 C  
HETATM   11  C   UNL     1      -6.775  16.687  68.157  1.00  0.00    -0.148 C  
BRANCH  11  12
HETATM   12  C   UNL     1      -6.966  15.379  68.870  1.00  0.00    -0.127 C  
BRANCH  12  13
HETATM   13  C   UNL     1      -7.605  14.248  68.045  1.00  0.00    -0.144 C  
HETATM   14  C   UNL     1      -6.551  13.199  67.643  1.00  0.00    -0.162 C  
HETATM   15  C   UNL     1      -7.391  12.026  67.175  1.00  0.00    -0.134 C  
HETATM   16  O   UNL     1      -5.782  12.767  68.766  1.00  0.00    -0.064 OA 
HETATM   17  C   UNL     1      -8.516  11.970  68.203  1.00  0.00    -0.171 C  
HETATM   18  H   UNL     1      -5.132  12.120  68.518  1.00  0.00     0.000 HD 
HETATM   19  C   UNL     1      -8.679  13.403  68.776  1.00  0.00     0.126 C  
HETATM   20  O   UNL     1      -8.167  11.083  69.264  1.00  0.00    -0.337 OA 
HETATM   21  H   UNL     1      -8.868  11.048  69.904  1.00  0.00     0.000 HD 
BRANCH  19  22
HETATM   22  C   UNL     1     -10.110  13.930  68.566  1.00  0.00    -0.234 C  
BRANCH  22  23
HETATM   23  C   UNL     1     -10.378  15.146  69.456  1.00  0.00    -0.251 C  
BRANCH  23  24
HETATM   24  C   UNL     1     -11.795  15.208  70.039  1.00  0.00    -0.325 C  
HETATM   25  O   UNL     1     -12.572  16.175  69.332  1.00  0.00    -0.417 OA 
HETATM   26  H   UNL     1     -13.450  16.213  69.693  1.00  0.00     0.000 HD 
BRANCH  24  27
HETATM   27  C   UNL     1     -12.516  13.858  69.904  1.00  0.00    -0.285 C  
BRANCH  27  28
HETATM   28  C   UNL     1     -12.850  13.225  71.254  1.00  0.00    -0.398 C  
BRANCH  28  29
HETATM   29  C   UNL     1     -12.634  11.736  71.254  1.00  0.00    -0.401 A  
HETATM   30  C   UNL     1     -11.670  11.167  70.410  1.00  0.00    -0.415 A  
HETATM   31  C   UNL     1     -11.461   9.788  70.409  1.00  0.00    -0.347 A  
HETATM   32  C   UNL     1     -12.215   8.969  71.245  1.00  0.00    -0.373 A  
HETATM   33  C   UNL     1     -13.183   9.526  72.080  1.00  0.00    -0.539 A  
HETATM   34  C   UNL     1     -13.394  10.905  72.084  1.00  0.00    -0.294 A  
ENDBRANCH  28  29
ENDBRANCH  27  28
ENDBRANCH  24  27
ENDBRANCH  23  24
ENDBRANCH  22  23
ENDBRANCH  19  22
ENDBRANCH  12  13
ENDBRANCH  11  12
ENDBRANCH   9  10
ENDBRANCH   8   9
ENDBRANCH   7   8
ENDBRANCH   5   7
ENDBRANCH   4   5
ENDBRANCH   2   4
TORSDOF 14
ENDMDL
MODEL      137
REMARK 921   NORMALIZED FREE ENERGY PREDICTED BY IDOCK:   -4.64 KCAL/MOL
REMARK 922        TOTAL FREE ENERGY PREDICTED BY IDOCK:  -11.72 KCAL/MOL
REMARK 923 INTER-LIGAND FREE ENERGY PREDICTED BY IDOCK:   -8.55 KCAL/MOL
REMARK 924 INTRA-LIGAND FREE ENERGY PREDICTED BY IDOCK:   -3.17 KCAL/MOL
REMARK 927      BINDING AFFINITY PREDICTED BY RF-SCORE:    0.00 PKD
ROOT
HETATM    1  C   UNL     1     -12.346  13.221  65.414  1.00  0.00    -0.528 C  
HETATM    2  C   UNL     1     -11.349  14.168  66.073  1.00  0.00    -0.330 C  
HETATM    3  C   UNL     1     -10.815  15.178  65.065  1.00  0.00    -0.457 C  
ENDROOT
BRANCH   2   4
HETATM    4  O   UNL     1     -12.009  14.906  67.118  1.00  0.00    -0.304 OA 
BRANCH   4   5
HETATM    5  C   UNL     1     -11.180  15.449  68.056  1.00  0.00    -0.325 C  
HETATM    6  O   UNL     1     -10.858  16.629  68.119  1.00  0.00    -0.337 OA 
BRANCH   5   7
HETATM    7  C   UNL     1     -10.699  14.372  68.994  1.00  0.00    -0.261 C  
BRANCH   7   8
HETATM    8  C   UNL     1     -11.851  13.839  69.848  1.00  0.00    -0.394 C  
BRANCH   8   9
HETATM    9  C   UNL     1     -11.991  12.320  69.788  1.00  0.00    -0.365 C  
BRANCH   9  10
HETATM   10  C   UNL     1     -12.635  11.756  71.023  1.00  0.00    -0.409 C  
HETATM   11  C   UNL     1     -12.495  10.508  71.502  1.00  0.00    -0.493 C  
BRANCH  11  12
HETATM   12  C   UNL     1     -11.646   9.414  70.923  1.00  0.00    -0.380 C  
BRANCH  12  13
HETATM   13  C   UNL     1     -11.374   8.211  71.843  1.00  0.00    -0.356 C  
HETATM   14  C   UNL     1     -12.191   6.984  71.399  1.00  0.00    -0.366 C  
HETATM   15  C   UNL     1     -11.544   5.843  72.161  1.00  0.00    -0.314 C  
HETATM   16  O   UNL     1     -12.035   6.723  70.003  1.00  0.00    -0.636 OA 
HETATM   17  C   UNL     1     -10.054   6.146  72.047  1.00  0.00    -0.181 C  
HETATM   18  H   UNL     1     -12.539   5.966  69.730  1.00  0.00     0.000 HD 
HETATM   19  C   UNL     1      -9.918   7.679  71.847  1.00  0.00    -0.217 C  
HETATM   20  O   UNL     1      -9.504   5.481  70.911  1.00  0.00    -0.159 OA 
HETATM   21  H   UNL     1      -8.576   5.670  70.841  1.00  0.00     0.000 HD 
BRANCH  19  22
HETATM   22  C   UNL     1      -9.046   8.311  72.948  1.00  0.00    -0.332 C  
BRANCH  22  23
HETATM   23  C   UNL     1      -7.571   7.956  72.743  1.00  0.00    -0.142 C  
BRANCH  23  24
HETATM   24  C   UNL     1      -6.785   8.968  71.902  1.00  0.00     0.047 C  
HETATM   25  O   UNL     1      -5.413   8.972  72.298  1.00  0.00    -0.059 OA 
HETATM   26  H   UNL     1      -4.926   9.599  71.777  1.00  0.00     0.000 HD 
BRANCH  24  27
HETATM   27  C   UNL     1      -6.825   8.607  70.409  1.00  0.00    -0.042 C  
BRANCH  27  28
HETATM   28  C   UNL     1      -6.886   9.836  69.502  1.00  0.00    -0.060 C  
BRANCH  28  29
HETATM   29  C   UNL     1      -8.151   9.880  68.688  1.00  0.00    -0.099 A  
HETATM   30  C   UNL     1      -8.616  11.100  68.179  1.00  0.00    -0.140 A  
HETATM   31  C   UNL     1      -9.784  11.148  67.420  1.00  0.00    -0.191 A  
HETATM   32  C   UNL     1     -10.499   9.979  67.169  1.00  0.00    -0.305 A  
HETATM   33  C   UNL     1     -10.050   8.762  67.680  1.00  0.00    -0.273 A  
HETATM   34  C   UNL     1      -8.880   8.712  68.439  1.00  0.00    -0.142 A  
ENDBRANCH  28  29
ENDBRANCH  27  28
ENDBRANCH  24  27
ENDBRANCH  23  24
ENDBRANCH  22  23
ENDBRANCH  19  22
ENDBRANCH  12  13
ENDBRANCH  11  12
ENDBRANCH   9  10
ENDBRANCH   8   9
ENDBRANCH   7   8
ENDBRANCH   5   7
ENDBRANCH   4   5
ENDBRANCH   2   4
TORSDOF 14
ENDMDL
MODEL      138
REMARK 921   NORMALIZED FREE ENERGY PREDICTED BY IDOCK:   -4.63 KCAL/MOL
REMARK 922        TOTAL FREE ENERGY PREDICTED BY IDOCK:  -11.71 KCAL/MOL
REMARK 923 INTER-LIGAND FREE ENERGY PREDICTED BY IDOCK:   -9.54 KCAL/MOL
REMARK 924 INTRA-LIGAND FREE ENERGY PREDICTED BY IDOCK:   -2.16 KCAL/MOL
REMARK 927      BINDING AFFINITY PREDICTED BY RF-SCORE:    0.00 PKD
ROOT
HETATM    1  C   UNL     1      -7.186   7.645  72.076  1.00  0.00    -0.070 C  
HETATM    2  C   UNL     1      -7.847   7.041  70.842  1.00  0.00    -0.096 C  
HETATM    3  C   UNL     1      -8.710   5.845  71.221  1.00  0.00    -0.132 C  
ENDROOT
BRANCH   2   4
HETATM    4  O   UNL     1      -8.709   8.020  70.232  1.00  0.00    -0.131 OA 
BRANCH   4   5
HETATM    5  C   UNL     1      -8.856   7.903  68.881  1.00  0.00    -0.142 C  
HETATM    6  O   UNL     1      -9.919   7.737  68.296  1.00  0.00    -0.167 OA 
BRANCH   5   7
HETATM    7  C   UNL     1      -7.506   7.985  68.215  1.00  0.00    -0.100 C  
BRANCH   7   8
HETATM    8  C   UNL     1      -6.927   9.396  68.330  1.00  0.00    -0.071 C  
BRANCH   8   9
HETATM    9  C   UNL     1      -7.516  10.372  67.314  1.00  0.00    -0.094 C  
BRANCH   9  10
HETATM   10  C   UNL     1      -7.238   9.959  65.896  1.00  0.00    -0.108 C  
HETATM   11  C   UNL     1      -8.139   9.825  64.908  1.00  0.00    -0.140 C  
BRANCH  11  12
HETATM   12  C   UNL     1      -9.616  10.083  64.999  1.00  0.00    -0.362 C  
BRANCH  12  13
HETATM   13  C   UNL     1     -10.040  11.560  65.077  1.00  0.00    -0.315 C  
HETATM   14  C   UNL     1     -10.362  12.113  63.676  1.00  0.00    -0.452 C  
HETATM   15  C   UNL     1     -11.083  13.414  63.975  1.00  0.00    -0.282 C  
HETATM   16  O   UNL     1     -11.264  11.264  62.968  1.00  0.00    -0.838 OA 
HETATM   17  C   UNL     1     -11.998  13.046  65.139  1.00  0.00    -0.402 C  
HETATM   18  H   UNL     1     -11.462  11.605  62.103  1.00  0.00     0.000 HD 
HETATM   19  C   UNL     1     -11.337  11.849  65.874  1.00  0.00    -0.365 C  
HETATM   20  O   UNL     1     -13.275  12.641  64.650  1.00  0.00    -0.828 OA 
HETATM   21  H   UNL     1     -13.844  12.412  65.375  1.00  0.00     0.000 HD 
BRANCH  19  22
HETATM   22  C   UNL     1     -11.077  12.179  67.355  1.00  0.00    -0.330 C  
BRANCH  22  23
HETATM   23  C   UNL     1     -12.009  13.295  67.836  1.00  0.00    -0.349 C  
BRANCH  23  24
HETATM   24  C   UNL     1     -11.292  14.506  68.443  1.00  0.00    -0.289 C  
HETATM   25  O   UNL     1     -10.762  14.168  69.725  1.00  0.00    -0.454 OA 
HETATM   26  H   UNL     1     -10.317  14.919  70.101  1.00  0.00     0.000 HD 
BRANCH  24  27
HETATM   27  C   UNL     1     -10.111  14.954  67.568  1.00  0.00    -0.228 C  
BRANCH  27  28
HETATM   28  C   UNL     1      -9.264  16.043  68.225  1.00  0.00    -0.191 C  
BRANCH  28  29
HETATM   29  C   UNL     1      -9.699  17.426  67.820  1.00  0.00    -0.268 A  
HETATM   30  C   UNL     1      -9.937  17.719  66.470  1.00  0.00    -0.346 A  
HETATM   31  C   UNL     1     -10.346  18.997  66.089  1.00  0.00    -0.537 A  
HETATM   32  C   UNL     1     -10.513  19.990  67.051  1.00  0.00    -0.513 A  
HETATM   33  C   UNL     1     -10.268  19.709  68.395  1.00  0.00    -0.553 A  
HETATM   34  C   UNL     1      -9.860  18.431  68.778  1.00  0.00    -0.388 A  
ENDBRANCH  28  29
ENDBRANCH  27  28
ENDBRANCH  24  27
ENDBRANCH  23  24
ENDBRANCH  22  23
ENDBRANCH  19  22
ENDBRANCH  12  13
ENDBRANCH  11  12
ENDBRANCH   9  10
ENDBRANCH   8   9
ENDBRANCH   7   8
ENDBRANCH   5   7
ENDBRANCH   4   5
ENDBRANCH   2   4
TORSDOF 14
ENDMDL
MODEL      139
REMARK 921   NORMALIZED FREE ENERGY PREDICTED BY IDOCK:   -4.61 KCAL/MOL
REMARK 922        TOTAL FREE ENERGY PREDICTED BY IDOCK:  -11.68 KCAL/MOL
REMARK 923 INTER-LIGAND FREE ENERGY PREDICTED BY IDOCK:   -8.58 KCAL/MOL
REMARK 924 INTRA-LIGAND FREE ENERGY PREDICTED BY IDOCK:   -3.10 KCAL/MOL
REMARK 927      BINDING AFFINITY PREDICTED BY RF-SCORE:    0.00 PKD
ROOT
HETATM    1  C   UNL     1      -5.905   7.132  70.950  1.00  0.00    -0.031 C  
HETATM    2  C   UNL     1      -6.679   6.341  71.998  1.00  0.00    -0.067 C  
HETATM    3  C   UNL     1      -5.932   5.069  72.377  1.00  0.00    -0.025 C  
ENDROOT
BRANCH   2   4
HETATM    4  O   UNL     1      -6.816   7.134  73.192  1.00  0.00    -0.068 OA 
BRANCH   4   5
HETATM    5  C   UNL     1      -8.095   7.490  73.508  1.00  0.00    -0.133 C  
HETATM    6  O   UNL     1      -8.617   8.566  73.244  1.00  0.00    -0.359 OA 
BRANCH   5   7
HETATM    7  C   UNL     1      -8.766   6.364  74.254  1.00  0.00    -0.145 C  
BRANCH   7   8
HETATM    8  C   UNL     1     -10.284   6.419  74.073  1.00  0.00    -0.349 C  
BRANCH   8   9
HETATM    9  C   UNL     1     -10.842   5.222  73.307  1.00  0.00    -0.349 C  
BRANCH   9  10
HETATM   10  C   UNL     1     -10.088   4.955  72.035  1.00  0.00    -0.256 C  
HETATM   11  C   UNL     1     -10.315   5.514  70.835  1.00  0.00    -0.310 C  
BRANCH  11  12
HETATM   12  C   UNL     1     -11.355   6.548  70.509  1.00  0.00    -0.426 C  
BRANCH  12  13
HETATM   13  C   UNL     1     -10.855   7.797  69.763  1.00  0.00    -0.211 C  
HETATM   14  C   UNL     1     -11.271   9.082  70.502  1.00  0.00    -0.260 C  
HETATM   15  C   UNL     1     -10.414  10.150  69.849  1.00  0.00    -0.322 C  
HETATM   16  O   UNL     1     -10.926   9.028  71.887  1.00  0.00    -0.352 OA 
HETATM   17  C   UNL     1      -9.055   9.472  69.711  1.00  0.00    -0.205 C  
HETATM   18  H   UNL     1     -11.183   9.821  72.343  1.00  0.00     0.000 HD 
HETATM   19  C   UNL     1      -9.316   7.943  69.646  1.00  0.00    -0.153 C  
HETATM   20  O   UNL     1      -8.247   9.754  70.853  1.00  0.00    -0.377 OA 
HETATM   21  H   UNL     1      -7.401   9.332  70.766  1.00  0.00     0.000 HD 
BRANCH  19  22
HETATM   22  C   UNL     1      -8.747   7.335  68.350  1.00  0.00    -0.122 C  
BRANCH  22  23
HETATM   23  C   UNL     1      -9.675   7.616  67.165  1.00  0.00    -0.239 C  
BRANCH  23  24
HETATM   24  C   UNL     1      -9.148   8.668  66.181  1.00  0.00    -0.201 C  
HETATM   25  O   UNL     1      -9.158   8.143  64.853  1.00  0.00    -0.370 OA 
HETATM   26  H   UNL     1      -8.832   8.795  64.244  1.00  0.00     0.000 HD 
BRANCH  24  27
HETATM   27  C   UNL     1     -10.032   9.925  66.179  1.00  0.00    -0.331 C  
BRANCH  27  28
HETATM   28  C   UNL     1      -9.968  10.694  64.859  1.00  0.00    -0.382 C  
BRANCH  28  29
HETATM   29  C   UNL     1     -10.904  11.872  64.841  1.00  0.00    -0.356 A  
HETATM   30  C   UNL     1     -11.195  12.518  63.632  1.00  0.00    -0.545 A  
HETATM   31  C   UNL     1     -12.066  13.607  63.606  1.00  0.00    -0.397 A  
HETATM   32  C   UNL     1     -12.648  14.060  64.788  1.00  0.00    -0.326 A  
HETATM   33  C   UNL     1     -12.356  13.429  65.997  1.00  0.00    -0.471 A  
HETATM   34  C   UNL     1     -11.485  12.339  66.024  1.00  0.00    -0.434 A  
ENDBRANCH  28  29
ENDBRANCH  27  28
ENDBRANCH  24  27
ENDBRANCH  23  24
ENDBRANCH  22  23
ENDBRANCH  19  22
ENDBRANCH  12  13
ENDBRANCH  11  12
ENDBRANCH   9  10
ENDBRANCH   8   9
ENDBRANCH   7   8
ENDBRANCH   5   7
ENDBRANCH   4   5
ENDBRANCH   2   4
TORSDOF 14
ENDMDL
MODEL      140
REMARK 921   NORMALIZED FREE ENERGY PREDICTED BY IDOCK:   -4.59 KCAL/MOL
REMARK 922        TOTAL FREE ENERGY PREDICTED BY IDOCK:  -11.64 KCAL/MOL
REMARK 923 INTER-LIGAND FREE ENERGY PREDICTED BY IDOCK:  -10.33 KCAL/MOL
REMARK 924 INTRA-LIGAND FREE ENERGY PREDICTED BY IDOCK:   -1.31 KCAL/MOL
REMARK 927      BINDING AFFINITY PREDICTED BY RF-SCORE:    0.00 PKD
ROOT
HETATM    1  C   UNL     1      -6.751  21.024  67.429  1.00  0.00    -0.446 C  
HETATM    2  C   UNL     1      -6.506  19.681  68.109  1.00  0.00    -0.245 C  
HETATM    3  C   UNL     1      -6.612  19.815  69.623  1.00  0.00    -0.378 C  
ENDROOT
BRANCH   2   4
HETATM    4  O   UNL     1      -7.509  18.740  67.686  1.00  0.00    -0.227 OA 
BRANCH   4   5
HETATM    5  C   UNL     1      -8.316  19.168  66.672  1.00  0.00    -0.300 C  
HETATM    6  O   UNL     1      -7.987  19.262  65.497  1.00  0.00    -0.370 OA 
BRANCH   5   7
HETATM    7  C   UNL     1      -9.672  19.532  67.222  1.00  0.00    -0.450 C  
BRANCH   7   8
HETATM    8  C   UNL     1     -10.140  18.497  68.246  1.00  0.00    -0.424 C  
BRANCH   8   9
HETATM    9  C   UNL     1     -10.579  17.180  67.611  1.00  0.00    -0.343 C  
BRANCH   9  10
HETATM   10  C   UNL     1     -11.488  16.387  68.508  1.00  0.00    -0.209 C  
HETATM   11  C   UNL     1     -11.378  15.083  68.811  1.00  0.00    -0.306 C  
BRANCH  11  12
HETATM   12  C   UNL     1     -10.310  14.138  68.340  1.00  0.00    -0.249 C  
BRANCH  12  13
HETATM   13  C   UNL     1     -10.776  12.996  67.421  1.00  0.00    -0.256 C  
HETATM   14  C   UNL     1     -10.817  13.455  65.951  1.00  0.00    -0.274 C  
HETATM   15  C   UNL     1     -10.937  12.152  65.184  1.00  0.00    -0.355 C  
HETATM   16  O   UNL     1      -9.596  14.084  65.561  1.00  0.00    -0.521 OA 
HETATM   17  C   UNL     1      -9.970  11.227  65.915  1.00  0.00    -0.234 C  
HETATM   18  H   UNL     1      -9.622  14.368  64.654  1.00  0.00     0.000 HD 
HETATM   19  C   UNL     1      -9.855  11.750  67.371  1.00  0.00    -0.189 C  
HETATM   20  O   UNL     1      -8.683  11.279  65.302  1.00  0.00    -0.368 OA 
HETATM   21  H   UNL     1      -8.081  10.702  65.757  1.00  0.00     0.000 HD 
BRANCH  19  22
HETATM   22  C   UNL     1     -10.252  10.664  68.388  1.00  0.00    -0.191 C  
BRANCH  22  23
HETATM   23  C   UNL     1     -11.704  10.845  68.838  1.00  0.00    -0.376 C  
BRANCH  23  24
HETATM   24  C   UNL     1     -11.890  10.960  70.356  1.00  0.00    -0.357 C  
HETATM   25  O   UNL     1     -12.126  12.320  70.718  1.00  0.00    -0.447 OA 
HETATM   26  H   UNL     1     -12.242  12.391  71.658  1.00  0.00     0.000 HD 
BRANCH  24  27
HETATM   27  C   UNL     1     -13.101  10.145  70.835  1.00  0.00    -0.412 C  
BRANCH  27  28
HETATM   28  C   UNL     1     -12.827   9.377  72.128  1.00  0.00    -0.480 C  
BRANCH  28  29
HETATM   29  C   UNL     1     -11.961   8.167  71.900  1.00  0.00    -0.367 A  
HETATM   30  C   UNL     1     -10.847   7.937  72.718  1.00  0.00    -0.451 A  
HETATM   31  C   UNL     1     -10.043   6.816  72.516  1.00  0.00    -0.190 A  
HETATM   32  C   UNL     1     -10.344   5.921  71.492  1.00  0.00    -0.273 A  
HETATM   33  C   UNL     1     -11.445   6.147  70.667  1.00  0.00    -0.331 A  
HETATM   34  C   UNL     1     -12.251   7.269  70.869  1.00  0.00    -0.308 A  
ENDBRANCH  28  29
ENDBRANCH  27  28
ENDBRANCH  24  27
ENDBRANCH  23  24
ENDBRANCH  22  23
ENDBRANCH  19  22
ENDBRANCH  12  13
ENDBRANCH  11  12
ENDBRANCH   9  10
ENDBRANCH   8   9
ENDBRANCH   7   8
ENDBRANCH   5   7
ENDBRANCH   4   5
ENDBRANCH   2   4
TORSDOF 14
ENDMDL
MODEL      141
REMARK 921   NORMALIZED FREE ENERGY PREDICTED BY IDOCK:   -4.58 KCAL/MOL
REMARK 922        TOTAL FREE ENERGY PREDICTED BY IDOCK:  -11.63 KCAL/MOL
REMARK 923 INTER-LIGAND FREE ENERGY PREDICTED BY IDOCK:  -10.02 KCAL/MOL
REMARK 924 INTRA-LIGAND FREE ENERGY PREDICTED BY IDOCK:   -1.61 KCAL/MOL
REMARK 927      BINDING AFFINITY PREDICTED BY RF-SCORE:    0.00 PKD
ROOT
HETATM    1  C   UNL     1      -6.992  17.428  68.763  1.00  0.00    -0.236 C  
HETATM    2  C   UNL     1      -6.397  18.547  67.916  1.00  0.00    -0.196 C  
HETATM    3  C   UNL     1      -5.191  18.048  67.131  1.00  0.00    -0.143 C  
ENDROOT
BRANCH   2   4
HETATM    4  O   UNL     1      -7.377  19.000  66.963  1.00  0.00    -0.211 OA 
BRANCH   4   5
HETATM    5  C   UNL     1      -7.916  20.226  67.224  1.00  0.00    -0.340 C  
HETATM    6  O   UNL     1      -7.277  21.251  67.427  1.00  0.00    -0.511 OA 
BRANCH   5   7
HETATM    7  C   UNL     1      -9.420  20.125  67.248  1.00  0.00    -0.532 C  
BRANCH   7   8
HETATM    8  C   UNL     1      -9.926  19.270  66.085  1.00  0.00    -0.466 C  
BRANCH   8   9
HETATM    9  C   UNL     1     -10.312  17.854  66.505  1.00  0.00    -0.362 C  
BRANCH   9  10
HETATM   10  C   UNL     1     -10.656  17.763  67.965  1.00  0.00    -0.372 C  
HETATM   11  C   UNL     1     -10.595  16.665  68.737  1.00  0.00    -0.340 C  
BRANCH  11  12
HETATM   12  C   UNL     1     -10.148  15.295  68.315  1.00  0.00    -0.225 C  
BRANCH  12  13
HETATM   13  C   UNL     1     -11.175  14.459  67.533  1.00  0.00    -0.329 C  
HETATM   14  C   UNL     1     -10.968  14.614  66.015  1.00  0.00    -0.325 C  
HETATM   15  C   UNL     1     -11.795  13.482  65.435  1.00  0.00    -0.379 C  
HETATM   16  O   UNL     1      -9.606  14.396  65.644  1.00  0.00    -0.501 OA 
HETATM   17  C   UNL     1     -11.497  12.316  66.371  1.00  0.00    -0.378 C  
HETATM   18  H   UNL     1      -9.478  14.492  64.708  1.00  0.00     0.000 HD 
HETATM   19  C   UNL     1     -11.099  12.926  67.742  1.00  0.00    -0.291 C  
HETATM   20  O   UNL     1     -10.402  11.552  65.869  1.00  0.00    -0.232 OA 
HETATM   21  H   UNL     1     -10.216  10.826  66.453  1.00  0.00     0.000 HD 
BRANCH  19  22
HETATM   22  C   UNL     1     -12.023  12.421  68.866  1.00  0.00    -0.289 C  
BRANCH  22  23
HETATM   23  C   UNL     1     -11.861  10.912  69.066  1.00  0.00    -0.370 C  
BRANCH  23  24
HETATM   24  C   UNL     1     -12.026  10.441  70.516  1.00  0.00    -0.334 C  
HETATM   25  O   UNL     1     -13.332   9.898  70.708  1.00  0.00    -0.593 OA 
HETATM   26  H   UNL     1     -13.434   9.606  71.606  1.00  0.00     0.000 HD 
BRANCH  24  27
HETATM   27  C   UNL     1     -11.018   9.335  70.864  1.00  0.00    -0.368 C  
BRANCH  27  28
HETATM   28  C   UNL     1     -10.604   8.504  69.649  1.00  0.00    -0.221 C  
BRANCH  28  29
HETATM   29  C   UNL     1     -10.340   7.067  70.005  1.00  0.00    -0.217 A  
HETATM   30  C   UNL     1     -10.387   6.655  71.344  1.00  0.00    -0.225 A  
HETATM   31  C   UNL     1     -10.149   5.323  71.680  1.00  0.00    -0.259 A  
HETATM   32  C   UNL     1      -9.856   4.395  70.683  1.00  0.00    -0.280 A  
HETATM   33  C   UNL     1      -9.798   4.798  69.349  1.00  0.00    -0.282 A  
HETATM   34  C   UNL     1     -10.037   6.131  69.011  1.00  0.00    -0.213 A  
ENDBRANCH  28  29
ENDBRANCH  27  28
ENDBRANCH  24  27
ENDBRANCH  23  24
ENDBRANCH  22  23
ENDBRANCH  19  22
ENDBRANCH  12  13
ENDBRANCH  11  12
ENDBRANCH   9  10
ENDBRANCH   8   9
ENDBRANCH   7   8
ENDBRANCH   5   7
ENDBRANCH   4   5
ENDBRANCH   2   4
TORSDOF 14
ENDMDL
MODEL      142
REMARK 921   NORMALIZED FREE ENERGY PREDICTED BY IDOCK:   -4.58 KCAL/MOL
REMARK 922        TOTAL FREE ENERGY PREDICTED BY IDOCK:  -11.61 KCAL/MOL
REMARK 923 INTER-LIGAND FREE ENERGY PREDICTED BY IDOCK:   -9.58 KCAL/MOL
REMARK 924 INTRA-LIGAND FREE ENERGY PREDICTED BY IDOCK:   -2.04 KCAL/MOL
REMARK 927      BINDING AFFINITY PREDICTED BY RF-SCORE:    0.00 PKD
ROOT
HETATM    1  C   UNL     1      -7.451   6.507  71.582  1.00  0.00    -0.089 C  
HETATM    2  C   UNL     1      -8.469   6.992  72.608  1.00  0.00    -0.111 C  
HETATM    3  C   UNL     1      -7.825   7.961  73.592  1.00  0.00    -0.217 C  
ENDROOT
BRANCH   2   4
HETATM    4  O   UNL     1      -9.528   7.698  71.936  1.00  0.00    -0.142 OA 
BRANCH   4   5
HETATM    5  C   UNL     1     -10.790   7.364  72.333  1.00  0.00    -0.263 C  
HETATM    6  O   UNL     1     -11.437   7.943  73.196  1.00  0.00    -0.323 OA 
BRANCH   5   7
HETATM    7  C   UNL     1     -11.262   6.157  71.563  1.00  0.00    -0.346 C  
BRANCH   7   8
HETATM    8  C   UNL     1     -11.584   6.527  70.114  1.00  0.00    -0.466 C  
BRANCH   8   9
HETATM    9  C   UNL     1     -10.706   5.800  69.098  1.00  0.00    -0.370 C  
BRANCH   9  10
HETATM   10  C   UNL     1     -10.956   6.263  67.691  1.00  0.00    -0.438 C  
HETATM   11  C   UNL     1     -10.163   7.062  66.956  1.00  0.00    -0.330 C  
BRANCH  11  12
HETATM   12  C   UNL     1      -8.844   7.646  67.372  1.00  0.00    -0.124 C  
BRANCH  12  13
HETATM   13  C   UNL     1      -8.870   9.113  67.835  1.00  0.00    -0.128 C  
HETATM   14  C   UNL     1      -7.491   9.545  68.369  1.00  0.00    -0.077 C  
HETATM   15  C   UNL     1      -7.603  11.056  68.432  1.00  0.00    -0.108 C  
HETATM   16  O   UNL     1      -6.446   9.220  67.453  1.00  0.00    -0.062 OA 
HETATM   17  C   UNL     1      -8.328  11.408  67.137  1.00  0.00    -0.155 C  
HETATM   18  H   UNL     1      -5.595   9.486  67.783  1.00  0.00     0.000 HD 
HETATM   19  C   UNL     1      -9.163  10.163  66.734  1.00  0.00    -0.174 C  
HETATM   20  O   UNL     1      -7.383  11.685  66.105  1.00  0.00    -0.367 OA 
HETATM   21  H   UNL     1      -7.835  11.904  65.299  1.00  0.00     0.000 HD 
BRANCH  19  22
HETATM   22  C   UNL     1     -10.659  10.511  66.612  1.00  0.00    -0.263 C  
BRANCH  22  23
HETATM   23  C   UNL     1     -10.887  12.011  66.816  1.00  0.00    -0.307 C  
BRANCH  23  24
HETATM   24  C   UNL     1     -11.883  12.357  67.929  1.00  0.00    -0.308 C  
HETATM   25  O   UNL     1     -12.238  11.177  68.651  1.00  0.00    -0.655 OA 
HETATM   26  H   UNL     1     -12.855  11.391  69.340  1.00  0.00     0.000 HD 
BRANCH  24  27
HETATM   27  C   UNL     1     -11.275  13.341  68.939  1.00  0.00    -0.322 C  
BRANCH  27  28
HETATM   28  C   UNL     1     -12.119  14.603  69.122  1.00  0.00    -0.283 C  
BRANCH  28  29
HETATM   29  C   UNL     1     -12.445  14.866  70.568  1.00  0.00    -0.419 A  
HETATM   30  C   UNL     1     -11.736  15.842  71.280  1.00  0.00    -0.504 A  
HETATM   31  C   UNL     1     -12.036  16.095  72.618  1.00  0.00    -0.652 A  
HETATM   32  C   UNL     1     -13.041  15.370  73.255  1.00  0.00    -0.642 A  
HETATM   33  C   UNL     1     -13.745  14.390  72.556  1.00  0.00    -0.589 A  
HETATM   34  C   UNL     1     -13.447  14.136  71.216  1.00  0.00    -0.341 A  
ENDBRANCH  28  29
ENDBRANCH  27  28
ENDBRANCH  24  27
ENDBRANCH  23  24
ENDBRANCH  22  23
ENDBRANCH  19  22
ENDBRANCH  12  13
ENDBRANCH  11  12
ENDBRANCH   9  10
ENDBRANCH   8   9
ENDBRANCH   7   8
ENDBRANCH   5   7
ENDBRANCH   4   5
ENDBRANCH   2   4
TORSDOF 14
ENDMDL
MODEL      143
REMARK 921   NORMALIZED FREE ENERGY PREDICTED BY IDOCK:   -4.56 KCAL/MOL
REMARK 922        TOTAL FREE ENERGY PREDICTED BY IDOCK:  -11.59 KCAL/MOL
REMARK 923 INTER-LIGAND FREE ENERGY PREDICTED BY IDOCK:   -9.21 KCAL/MOL
REMARK 924 INTRA-LIGAND FREE ENERGY PREDICTED BY IDOCK:   -2.38 KCAL/MOL
REMARK 927      BINDING AFFINITY PREDICTED BY RF-SCORE:    0.00 PKD
ROOT
HETATM    1  C   UNL     1     -11.785   7.807  72.214  1.00  0.00    -0.390 C  
HETATM    2  C   UNL     1     -10.526   6.980  72.446  1.00  0.00    -0.209 C  
HETATM    3  C   UNL     1     -10.069   7.085  73.896  1.00  0.00    -0.386 C  
ENDROOT
BRANCH   2   4
HETATM    4  O   UNL     1     -10.807   5.594  72.180  1.00  0.00    -0.229 OA 
BRANCH   4   5
HETATM    5  C   UNL     1      -9.903   4.963  71.375  1.00  0.00    -0.186 C  
HETATM    6  O   UNL     1      -8.946   4.306  71.765  1.00  0.00    -0.115 OA 
BRANCH   5   7
HETATM    7  C   UNL     1     -10.248   5.215  69.930  1.00  0.00    -0.361 C  
BRANCH   7   8
HETATM    8  C   UNL     1      -9.163   4.658  69.006  1.00  0.00    -0.183 C  
BRANCH   8   9
HETATM    9  C   UNL     1      -9.596   4.586  67.545  1.00  0.00    -0.211 C  
BRANCH   9  10
HETATM   10  C   UNL     1      -8.964   5.662  66.707  1.00  0.00    -0.116 C  
HETATM   11  C   UNL     1      -9.439   6.902  66.502  1.00  0.00    -0.199 C  
BRANCH  11  12
HETATM   12  C   UNL     1     -10.689   7.493  67.087  1.00  0.00    -0.379 C  
BRANCH  12  13
HETATM   13  C   UNL     1     -10.727   9.027  67.190  1.00  0.00    -0.206 C  
HETATM   14  C   UNL     1     -10.584   9.483  68.654  1.00  0.00    -0.210 C  
HETATM   15  C   UNL     1     -10.285  10.965  68.528  1.00  0.00    -0.197 C  
HETATM   16  O   UNL     1      -9.467   8.864  69.292  1.00  0.00    -0.158 OA 
HETATM   17  C   UNL     1      -9.304  11.026  67.361  1.00  0.00    -0.155 C  
HETATM   18  H   UNL     1      -9.378   9.145  70.195  1.00  0.00     0.000 HD 
HETATM   19  C   UNL     1      -9.578   9.782  66.475  1.00  0.00    -0.249 C  
HETATM   20  O   UNL     1      -7.964  10.965  67.844  1.00  0.00    -0.107 OA 
HETATM   21  H   UNL     1      -7.353  11.003  67.117  1.00  0.00     0.000 HD 
BRANCH  19  22
HETATM   22  C   UNL     1      -9.928  10.190  65.032  1.00  0.00    -0.375 C  
BRANCH  22  23
HETATM   23  C   UNL     1      -9.896  11.714  64.876  1.00  0.00    -0.267 C  
BRANCH  23  24
HETATM   24  C   UNL     1     -10.686  12.246  63.674  1.00  0.00    -0.467 C  
HETATM   25  O   UNL     1     -11.376  11.175  63.029  1.00  0.00    -0.812 OA 
HETATM   26  H   UNL     1     -11.865  11.505  62.285  1.00  0.00     0.000 HD 
BRANCH  24  27
HETATM   27  C   UNL     1     -11.745  13.270  64.110  1.00  0.00    -0.470 C  
BRANCH  27  28
HETATM   28  C   UNL     1     -12.193  13.083  65.559  1.00  0.00    -0.521 C  
BRANCH  28  29
HETATM   29  C   UNL     1     -11.713  14.194  66.453  1.00  0.00    -0.404 A  
HETATM   30  C   UNL     1     -12.057  14.201  67.811  1.00  0.00    -0.321 A  
HETATM   31  C   UNL     1     -11.612  15.225  68.646  1.00  0.00    -0.370 A  
HETATM   32  C   UNL     1     -10.825  16.252  68.128  1.00  0.00    -0.342 A  
HETATM   33  C   UNL     1     -10.487  16.259  66.775  1.00  0.00    -0.287 A  
HETATM   34  C   UNL     1     -10.931  15.234  65.939  1.00  0.00    -0.325 A  
ENDBRANCH  28  29
ENDBRANCH  27  28
ENDBRANCH  24  27
ENDBRANCH  23  24
ENDBRANCH  22  23
ENDBRANCH  19  22
ENDBRANCH  12  13
ENDBRANCH  11  12
ENDBRANCH   9  10
ENDBRANCH   8   9
ENDBRANCH   7   8
ENDBRANCH   5   7
ENDBRANCH   4   5
ENDBRANCH   2   4
TORSDOF 14
ENDMDL
MODEL      144
REMARK 921   NORMALIZED FREE ENERGY PREDICTED BY IDOCK:   -4.56 KCAL/MOL
REMARK 922        TOTAL FREE ENERGY PREDICTED BY IDOCK:  -11.58 KCAL/MOL
REMARK 923 INTER-LIGAND FREE ENERGY PREDICTED BY IDOCK:   -9.27 KCAL/MOL
REMARK 924 INTRA-LIGAND FREE ENERGY PREDICTED BY IDOCK:   -2.31 KCAL/MOL
REMARK 927      BINDING AFFINITY PREDICTED BY RF-SCORE:    0.00 PKD
ROOT
HETATM    1  C   UNL     1     -10.060   4.727  70.043  1.00  0.00    -0.308 C  
HETATM    2  C   UNL     1      -8.795   5.578  70.042  1.00  0.00    -0.128 C  
HETATM    3  C   UNL     1      -8.176   5.626  68.651  1.00  0.00    -0.103 C  
ENDROOT
BRANCH   2   4
HETATM    4  O   UNL     1      -9.126   6.929  70.416  1.00  0.00    -0.155 OA 
BRANCH   4   5
HETATM    5  C   UNL     1      -9.044   7.197  71.751  1.00  0.00    -0.139 C  
HETATM    6  O   UNL     1      -8.399   6.549  72.566  1.00  0.00    -0.114 OA 
BRANCH   5   7
HETATM    7  C   UNL     1      -9.888   8.402  72.079  1.00  0.00    -0.354 C  
BRANCH   7   8
HETATM    8  C   UNL     1     -11.263   7.978  72.601  1.00  0.00    -0.462 C  
BRANCH   8   9
HETATM    9  C   UNL     1     -12.418   8.557  71.787  1.00  0.00    -0.388 C  
BRANCH   9  10
HETATM   10  C   UNL     1     -12.560  10.041  71.970  1.00  0.00    -0.379 C  
HETATM   11  C   UNL     1     -12.596  10.969  70.999  1.00  0.00    -0.512 C  
BRANCH  11  12
HETATM   12  C   UNL     1     -12.528  10.723  69.519  1.00  0.00    -0.090 C  
BRANCH  12  13
HETATM   13  C   UNL     1     -11.163  10.973  68.854  1.00  0.00    -0.326 C  
HETATM   14  C   UNL     1     -10.241   9.751  69.018  1.00  0.00    -0.203 C  
HETATM   15  C   UNL     1      -9.125  10.024  68.027  1.00  0.00    -0.132 C  
HETATM   16  O   UNL     1     -10.891   8.542  68.623  1.00  0.00    -0.420 OA 
HETATM   17  C   UNL     1      -9.864  10.561  66.807  1.00  0.00    -0.193 C  
HETATM   18  H   UNL     1     -10.322   7.788  68.725  1.00  0.00     0.000 HD 
HETATM   19  C   UNL     1     -11.188  11.189  67.320  1.00  0.00    -0.347 C  
HETATM   20  O   UNL     1     -10.174   9.495  65.912  1.00  0.00    -0.266 OA 
HETATM   21  H   UNL     1     -10.635   9.830  65.152  1.00  0.00     0.000 HD 
BRANCH  19  22
HETATM   22  C   UNL     1     -11.294  12.672  66.919  1.00  0.00    -0.373 C  
BRANCH  22  23
HETATM   23  C   UNL     1      -9.906  13.268  66.668  1.00  0.00    -0.276 C  
BRANCH  23  24
HETATM   24  C   UNL     1      -9.386  14.166  67.796  1.00  0.00    -0.200 C  
HETATM   25  O   UNL     1      -8.602  13.398  68.710  1.00  0.00    -0.355 OA 
HETATM   26  H   UNL     1      -8.279  13.955  69.409  1.00  0.00     0.000 HD 
BRANCH  24  27
HETATM   27  C   UNL     1      -8.483  15.284  67.252  1.00  0.00    -0.216 C  
BRANCH  27  28
HETATM   28  C   UNL     1      -9.147  16.096  66.140  1.00  0.00    -0.382 C  
BRANCH  28  29
HETATM   29  C   UNL     1      -9.293  17.549  66.505  1.00  0.00    -0.281 A  
HETATM   30  C   UNL     1      -8.254  18.449  66.231  1.00  0.00    -0.245 A  
HETATM   31  C   UNL     1      -8.384  19.797  66.561  1.00  0.00    -0.373 A  
HETATM   32  C   UNL     1      -9.549  20.254  67.173  1.00  0.00    -0.580 A  
HETATM   33  C   UNL     1     -10.584  19.363  67.458  1.00  0.00    -0.591 A  
HETATM   34  C   UNL     1     -10.456  18.014  67.127  1.00  0.00    -0.377 A  
ENDBRANCH  28  29
ENDBRANCH  27  28
ENDBRANCH  24  27
ENDBRANCH  23  24
ENDBRANCH  22  23
ENDBRANCH  19  22
ENDBRANCH  12  13
ENDBRANCH  11  12
ENDBRANCH   9  10
ENDBRANCH   8   9
ENDBRANCH   7   8
ENDBRANCH   5   7
ENDBRANCH   4   5
ENDBRANCH   2   4
TORSDOF 14
ENDMDL
MODEL      145
REMARK 921   NORMALIZED FREE ENERGY PREDICTED BY IDOCK:   -4.55 KCAL/MOL
REMARK 922        TOTAL FREE ENERGY PREDICTED BY IDOCK:  -11.57 KCAL/MOL
REMARK 923 INTER-LIGAND FREE ENERGY PREDICTED BY IDOCK:   -9.92 KCAL/MOL
REMARK 924 INTRA-LIGAND FREE ENERGY PREDICTED BY IDOCK:   -1.64 KCAL/MOL
REMARK 927      BINDING AFFINITY PREDICTED BY RF-SCORE:    0.00 PKD
ROOT
HETATM    1  C   UNL     1      -7.868   6.858  71.973  1.00  0.00    -0.095 C  
HETATM    2  C   UNL     1      -8.733   6.858  73.228  1.00  0.00    -0.126 C  
HETATM    3  C   UNL     1      -8.122   7.744  74.306  1.00  0.00    -0.274 C  
ENDROOT
BRANCH   2   4
HETATM    4  O   UNL     1     -10.033   7.392  72.914  1.00  0.00    -0.192 OA 
BRANCH   4   5
HETATM    5  C   UNL     1     -11.012   6.461  72.728  1.00  0.00    -0.257 C  
HETATM    6  O   UNL     1     -11.188   5.469  73.424  1.00  0.00    -0.271 OA 
BRANCH   5   7
HETATM    7  C   UNL     1     -11.835   6.825  71.518  1.00  0.00    -0.378 C  
BRANCH   7   8
HETATM    8  C   UNL     1     -13.328   6.648  71.802  1.00  0.00    -0.077 C  
BRANCH   8   9
HETATM    9  C   UNL     1     -14.141   7.915  71.552  1.00  0.00    -0.489 C  
BRANCH   9  10
HETATM   10  C   UNL     1     -13.645   9.082  72.360  1.00  0.00    -0.533 C  
HETATM   11  C   UNL     1     -13.113  10.220  71.883  1.00  0.00    -0.568 C  
BRANCH  11  12
HETATM   12  C   UNL     1     -12.922  10.585  70.439  1.00  0.00    -0.208 C  
BRANCH  12  13
HETATM   13  C   UNL     1     -11.498  10.997  70.029  1.00  0.00    -0.398 C  
HETATM   14  C   UNL     1     -10.596   9.759  69.859  1.00  0.00    -0.265 C  
HETATM   15  C   UNL     1      -9.387  10.310  69.128  1.00  0.00    -0.214 C  
HETATM   16  O   UNL     1     -11.205   8.776  69.021  1.00  0.00    -0.425 OA 
HETATM   17  C   UNL     1     -10.000  11.250  68.095  1.00  0.00    -0.181 C  
HETATM   18  H   UNL     1     -10.649   8.012  68.916  1.00  0.00     0.000 HD 
HETATM   19  C   UNL     1     -11.368  11.715  68.662  1.00  0.00    -0.326 C  
HETATM   20  O   UNL     1     -10.219  10.556  66.869  1.00  0.00    -0.210 OA 
HETATM   21  H   UNL     1     -10.601  11.141  66.226  1.00  0.00     0.000 HD 
BRANCH  19  22
HETATM   22  C   UNL     1     -11.433  13.249  68.776  1.00  0.00    -0.346 C  
BRANCH  22  23
HETATM   23  C   UNL     1     -11.538  13.893  67.390  1.00  0.00    -0.398 C  
BRANCH  23  24
HETATM   24  C   UNL     1     -10.383  14.840  67.040  1.00  0.00    -0.255 C  
HETATM   25  O   UNL     1     -10.797  15.763  66.033  1.00  0.00    -0.317 OA 
HETATM   26  H   UNL     1     -10.083  16.350  65.817  1.00  0.00     0.000 HD 
BRANCH  24  27
HETATM   27  C   UNL     1      -9.947  15.665  68.261  1.00  0.00    -0.213 C  
BRANCH  27  28
HETATM   28  C   UNL     1     -10.745  16.959  68.420  1.00  0.00    -0.368 C  
BRANCH  28  29
HETATM   29  C   UNL     1      -9.926  18.177  68.091  1.00  0.00    -0.368 A  
HETATM   30  C   UNL     1     -10.522  19.270  67.446  1.00  0.00    -0.564 A  
HETATM   31  C   UNL     1      -9.771  20.404  67.143  1.00  0.00    -0.601 A  
HETATM   32  C   UNL     1      -8.419  20.453  67.476  1.00  0.00    -0.349 A  
HETATM   33  C   UNL     1      -7.816  19.367  68.109  1.00  0.00    -0.343 A  
HETATM   34  C   UNL     1      -8.567  18.231  68.414  1.00  0.00    -0.315 A  
ENDBRANCH  28  29
ENDBRANCH  27  28
ENDBRANCH  24  27
ENDBRANCH  23  24
ENDBRANCH  22  23
ENDBRANCH  19  22
ENDBRANCH  12  13
ENDBRANCH  11  12
ENDBRANCH   9  10
ENDBRANCH   8   9
ENDBRANCH   7   8
ENDBRANCH   5   7
ENDBRANCH   4   5
ENDBRANCH   2   4
TORSDOF 14
ENDMDL
MODEL      146
REMARK 921   NORMALIZED FREE ENERGY PREDICTED BY IDOCK:   -4.55 KCAL/MOL
REMARK 922        TOTAL FREE ENERGY PREDICTED BY IDOCK:  -11.56 KCAL/MOL
REMARK 923 INTER-LIGAND FREE ENERGY PREDICTED BY IDOCK:   -9.55 KCAL/MOL
REMARK 924 INTRA-LIGAND FREE ENERGY PREDICTED BY IDOCK:   -2.01 KCAL/MOL
REMARK 927      BINDING AFFINITY PREDICTED BY RF-SCORE:    0.00 PKD
ROOT
HETATM    1  C   UNL     1     -10.223  19.841  68.181  1.00  0.00    -0.577 C  
HETATM    2  C   UNL     1     -10.085  19.089  66.862  1.00  0.00    -0.371 C  
HETATM    3  C   UNL     1     -10.854  19.795  65.753  1.00  0.00    -0.380 C  
ENDROOT
BRANCH   2   4
HETATM    4  O   UNL     1      -8.699  19.054  66.474  1.00  0.00    -0.303 OA 
BRANCH   4   5
HETATM    5  C   UNL     1      -7.944  18.107  67.104  1.00  0.00    -0.220 C  
HETATM    6  O   UNL     1      -6.824  18.287  67.564  1.00  0.00    -0.194 OA 
BRANCH   5   7
HETATM    7  C   UNL     1      -8.689  16.797  67.128  1.00  0.00    -0.218 C  
BRANCH   7   8
HETATM    8  C   UNL     1      -8.670  16.187  68.531  1.00  0.00    -0.200 C  
BRANCH   8   9
HETATM    9  C   UNL     1      -9.118  14.728  68.557  1.00  0.00    -0.187 C  
BRANCH   9  10
HETATM   10  C   UNL     1      -7.968  13.773  68.399  1.00  0.00    -0.144 C  
HETATM   11  C   UNL     1      -7.844  12.815  67.465  1.00  0.00    -0.171 C  
BRANCH  11  12
HETATM   12  C   UNL     1      -8.814  12.506  66.361  1.00  0.00    -0.018 C  
BRANCH  12  13
HETATM   13  C   UNL     1     -10.073  13.387  66.302  1.00  0.00    -0.299 C  
HETATM   14  C   UNL     1     -10.235  14.021  64.908  1.00  0.00    -0.348 C  
HETATM   15  C   UNL     1     -11.662  14.536  64.925  1.00  0.00    -0.402 C  
HETATM   16  O   UNL     1     -10.132  13.046  63.870  1.00  0.00    -0.676 OA 
HETATM   17  C   UNL     1     -12.431  13.409  65.606  1.00  0.00    -0.464 C  
HETATM   18  H   UNL     1     -10.232  13.437  63.010  1.00  0.00     0.000 HD 
HETATM   19  C   UNL     1     -11.422  12.654  66.511  1.00  0.00    -0.409 C  
HETATM   20  O   UNL     1     -12.943  12.505  64.629  1.00  0.00    -0.803 OA 
HETATM   21  H   UNL     1     -13.423  11.803  65.053  1.00  0.00     0.000 HD 
BRANCH  19  22
HETATM   22  C   UNL     1     -11.887  12.647  67.980  1.00  0.00    -0.376 C  
BRANCH  22  23
HETATM   23  C   UNL     1     -11.766  11.244  68.581  1.00  0.00    -0.391 C  
BRANCH  23  24
HETATM   24  C   UNL     1     -10.452  10.984  69.328  1.00  0.00    -0.180 C  
HETATM   25  O   UNL     1     -10.725  10.568  70.667  1.00  0.00    -0.399 OA 
HETATM   26  H   UNL     1      -9.912  10.406  71.129  1.00  0.00     0.000 HD 
BRANCH  24  27
HETATM   27  C   UNL     1      -9.641   9.863  68.661  1.00  0.00    -0.159 C  
BRANCH  27  28
HETATM   28  C   UNL     1     -10.522   8.792  68.019  1.00  0.00    -0.260 C  
BRANCH  28  29
HETATM   29  C   UNL     1     -10.348   7.446  68.668  1.00  0.00    -0.215 A  
HETATM   30  C   UNL     1     -11.181   7.065  69.729  1.00  0.00    -0.257 A  
HETATM   31  C   UNL     1     -11.028   5.817  70.331  1.00  0.00    -0.333 A  
HETATM   32  C   UNL     1     -10.039   4.944  69.883  1.00  0.00    -0.332 A  
HETATM   33  C   UNL     1      -9.199   5.319  68.835  1.00  0.00    -0.150 A  
HETATM   34  C   UNL     1      -9.351   6.568  68.230  1.00  0.00    -0.118 A  
ENDBRANCH  28  29
ENDBRANCH  27  28
ENDBRANCH  24  27
ENDBRANCH  23  24
ENDBRANCH  22  23
ENDBRANCH  19  22
ENDBRANCH  12  13
ENDBRANCH  11  12
ENDBRANCH   9  10
ENDBRANCH   8   9
ENDBRANCH   7   8
ENDBRANCH   5   7
ENDBRANCH   4   5
ENDBRANCH   2   4
TORSDOF 14
ENDMDL
MODEL      147
REMARK 921   NORMALIZED FREE ENERGY PREDICTED BY IDOCK:   -4.53 KCAL/MOL
REMARK 922        TOTAL FREE ENERGY PREDICTED BY IDOCK:  -11.53 KCAL/MOL
REMARK 923 INTER-LIGAND FREE ENERGY PREDICTED BY IDOCK:   -8.49 KCAL/MOL
REMARK 924 INTRA-LIGAND FREE ENERGY PREDICTED BY IDOCK:   -3.04 KCAL/MOL
REMARK 927      BINDING AFFINITY PREDICTED BY RF-SCORE:    0.00 PKD
ROOT
HETATM    1  C   UNL     1      -8.608   6.710  65.862  1.00  0.00    -0.153 C  
HETATM    2  C   UNL     1      -9.410   7.565  66.836  1.00  0.00    -0.157 C  
HETATM    3  C   UNL     1     -10.769   6.936  67.117  1.00  0.00    -0.436 C  
ENDROOT
BRANCH   2   4
HETATM    4  O   UNL     1      -8.706   7.653  68.088  1.00  0.00    -0.123 OA 
BRANCH   4   5
HETATM    5  C   UNL     1      -8.721   8.884  68.676  1.00  0.00    -0.134 C  
HETATM    6  O   UNL     1      -8.959   9.102  69.858  1.00  0.00    -0.149 OA 
BRANCH   5   7
HETATM    7  C   UNL     1      -8.421   9.943  67.646  1.00  0.00    -0.114 C  
BRANCH   7   8
HETATM    8  C   UNL     1      -7.479  11.005  68.215  1.00  0.00    -0.092 C  
BRANCH   8   9
HETATM    9  C   UNL     1      -7.136  12.103  67.212  1.00  0.00    -0.144 C  
BRANCH   9  10
HETATM   10  C   UNL     1      -6.377  13.237  67.842  1.00  0.00    -0.144 C  
HETATM   11  C   UNL     1      -6.767  14.521  67.915  1.00  0.00    -0.176 C  
BRANCH  11  12
HETATM   12  C   UNL     1      -8.057  15.098  67.406  1.00  0.00    -0.209 C  
BRANCH  12  13
HETATM   13  C   UNL     1      -8.427  16.494  67.936  1.00  0.00    -0.182 C  
HETATM   14  C   UNL     1      -7.739  17.596  67.108  1.00  0.00    -0.207 C  
HETATM   15  C   UNL     1      -8.479  18.853  67.523  1.00  0.00    -0.296 C  
HETATM   16  O   UNL     1      -7.943  17.408  65.708  1.00  0.00    -0.538 OA 
HETATM   17  C   UNL     1      -9.935  18.402  67.571  1.00  0.00    -0.335 C  
HETATM   18  H   UNL     1      -7.518  18.088  65.198  1.00  0.00     0.000 HD 
HETATM   19  C   UNL     1      -9.927  16.875  67.845  1.00  0.00    -0.274 C  
HETATM   20  O   UNL     1     -10.565  18.643  66.315  1.00  0.00    -0.413 OA 
HETATM   21  H   UNL     1     -11.472  18.362  66.345  1.00  0.00     0.000 HD 
BRANCH  19  22
HETATM   22  C   UNL     1     -10.716  16.533  69.123  1.00  0.00    -0.335 C  
BRANCH  22  23
HETATM   23  C   UNL     1     -11.847  15.547  68.816  1.00  0.00    -0.335 C  
BRANCH  23  24
HETATM   24  C   UNL     1     -11.836  14.278  69.677  1.00  0.00    -0.318 C  
HETATM   25  O   UNL     1     -12.934  14.297  70.590  1.00  0.00    -0.338 OA 
HETATM   26  H   UNL     1     -12.927  13.511  71.123  1.00  0.00     0.000 HD 
BRANCH  24  27
HETATM   27  C   UNL     1     -11.984  13.015  68.815  1.00  0.00    -0.302 C  
BRANCH  27  28
HETATM   28  C   UNL     1     -10.764  12.751  67.933  1.00  0.00    -0.235 C  
BRANCH  28  29
HETATM   29  C   UNL     1     -11.105  12.769  66.468  1.00  0.00    -0.321 A  
HETATM   30  C   UNL     1     -12.378  13.180  66.049  1.00  0.00    -0.426 A  
HETATM   31  C   UNL     1     -12.700  13.204  64.693  1.00  0.00    -0.326 A  
HETATM   32  C   UNL     1     -11.755  12.814  63.746  1.00  0.00    -0.562 A  
HETATM   33  C   UNL     1     -10.490  12.395  64.155  1.00  0.00    -0.415 A  
HETATM   34  C   UNL     1     -10.166  12.371  65.512  1.00  0.00    -0.297 A  
ENDBRANCH  28  29
ENDBRANCH  27  28
ENDBRANCH  24  27
ENDBRANCH  23  24
ENDBRANCH  22  23
ENDBRANCH  19  22
ENDBRANCH  12  13
ENDBRANCH  11  12
ENDBRANCH   9  10
ENDBRANCH   8   9
ENDBRANCH   7   8
ENDBRANCH   5   7
ENDBRANCH   4   5
ENDBRANCH   2   4
TORSDOF 14
ENDMDL
MODEL      148
REMARK 921   NORMALIZED FREE ENERGY PREDICTED BY IDOCK:   -4.53 KCAL/MOL
REMARK 922        TOTAL FREE ENERGY PREDICTED BY IDOCK:  -11.53 KCAL/MOL
REMARK 923 INTER-LIGAND FREE ENERGY PREDICTED BY IDOCK:   -9.95 KCAL/MOL
REMARK 924 INTRA-LIGAND FREE ENERGY PREDICTED BY IDOCK:   -1.58 KCAL/MOL
REMARK 927      BINDING AFFINITY PREDICTED BY RF-SCORE:    0.00 PKD
ROOT
HETATM    1  C   UNL     1     -10.738   9.579  70.321  1.00  0.00    -0.315 C  
HETATM    2  C   UNL     1     -10.025   8.326  70.815  1.00  0.00    -0.190 C  
HETATM    3  C   UNL     1      -9.585   8.489  72.264  1.00  0.00    -0.377 C  
ENDROOT
BRANCH   2   4
HETATM    4  O   UNL     1     -10.929   7.207  70.761  1.00  0.00    -0.239 OA 
BRANCH   4   5
HETATM    5  C   UNL     1     -10.334   5.985  70.639  1.00  0.00    -0.222 C  
HETATM    6  O   UNL     1     -10.578   5.007  71.333  1.00  0.00    -0.183 OA 
BRANCH   5   7
HETATM    7  C   UNL     1      -9.313   6.027  69.531  1.00  0.00    -0.151 C  
BRANCH   7   8
HETATM    8  C   UNL     1      -9.836   5.318  68.281  1.00  0.00    -0.206 C  
BRANCH   8   9
HETATM    9  C   UNL     1      -9.820   6.204  67.038  1.00  0.00    -0.180 C  
BRANCH   9  10
HETATM   10  C   UNL     1     -10.730   7.392  67.170  1.00  0.00    -0.400 C  
HETATM   11  C   UNL     1     -10.484   8.643  66.744  1.00  0.00    -0.298 C  
BRANCH  11  12
HETATM   12  C   UNL     1      -9.258   9.120  66.021  1.00  0.00    -0.271 C  
BRANCH  12  13
HETATM   13  C   UNL     1      -9.389  10.462  65.280  1.00  0.00    -0.263 C  
HETATM   14  C   UNL     1      -8.928  10.329  63.816  1.00  0.00    -0.239 C  
HETATM   15  C   UNL     1      -9.453  11.598  63.171  1.00  0.00    -0.286 C  
HETATM   16  O   UNL     1      -9.548   9.219  63.167  1.00  0.00    -0.376 OA 
HETATM   17  C   UNL     1     -10.848  11.744  63.770  1.00  0.00    -0.424 C  
HETATM   18  H   UNL     1      -9.263   9.137  62.264  1.00  0.00     0.000 HD 
HETATM   19  C   UNL     1     -10.829  11.020  65.143  1.00  0.00    -0.183 C  
HETATM   20  O   UNL     1     -11.811  11.113  62.929  1.00  0.00    -0.724 OA 
HETATM   21  H   UNL     1     -12.680  11.204  63.302  1.00  0.00     0.000 HD 
BRANCH  19  22
HETATM   22  C   UNL     1     -11.217  11.979  66.285  1.00  0.00    -0.394 C  
BRANCH  22  23
HETATM   23  C   UNL     1     -10.315  13.216  66.286  1.00  0.00    -0.291 C  
BRANCH  23  24
HETATM   24  C   UNL     1     -10.905  14.433  65.564  1.00  0.00    -0.331 C  
HETATM   25  O   UNL     1     -12.217  14.705  66.057  1.00  0.00    -0.286 OA 
HETATM   26  H   UNL     1     -12.583  15.459  65.611  1.00  0.00     0.000 HD 
BRANCH  24  27
HETATM   27  C   UNL     1     -10.059  15.693  65.808  1.00  0.00    -0.394 C  
BRANCH  27  28
HETATM   28  C   UNL     1     -10.387  16.382  67.133  1.00  0.00    -0.290 C  
BRANCH  28  29
HETATM   29  C   UNL     1      -9.825  17.776  67.205  1.00  0.00    -0.311 A  
HETATM   30  C   UNL     1     -10.382  18.797  66.423  1.00  0.00    -0.489 A  
HETATM   31  C   UNL     1      -9.870  20.093  66.488  1.00  0.00    -0.574 A  
HETATM   32  C   UNL     1      -8.796  20.375  67.329  1.00  0.00    -0.444 A  
HETATM   33  C   UNL     1      -8.229  19.362  68.103  1.00  0.00    -0.359 A  
HETATM   34  C   UNL     1      -8.741  18.065  68.039  1.00  0.00    -0.264 A  
ENDBRANCH  28  29
ENDBRANCH  27  28
ENDBRANCH  24  27
ENDBRANCH  23  24
ENDBRANCH  22  23
ENDBRANCH  19  22
ENDBRANCH  12  13
ENDBRANCH  11  12
ENDBRANCH   9  10
ENDBRANCH   8   9
ENDBRANCH   7   8
ENDBRANCH   5   7
ENDBRANCH   4   5
ENDBRANCH   2   4
TORSDOF 14
ENDMDL
MODEL      149
REMARK 921   NORMALIZED FREE ENERGY PREDICTED BY IDOCK:   -4.53 KCAL/MOL
REMARK 922        TOTAL FREE ENERGY PREDICTED BY IDOCK:  -11.52 KCAL/MOL
REMARK 923 INTER-LIGAND FREE ENERGY PREDICTED BY IDOCK:   -9.02 KCAL/MOL
REMARK 924 INTRA-LIGAND FREE ENERGY PREDICTED BY IDOCK:   -2.50 KCAL/MOL
REMARK 927      BINDING AFFINITY PREDICTED BY RF-SCORE:    0.00 PKD
ROOT
HETATM    1  C   UNL     1      -9.336  17.869  68.061  1.00  0.00    -0.274 C  
HETATM    2  C   UNL     1     -10.259  17.960  66.851  1.00  0.00    -0.358 C  
HETATM    3  C   UNL     1     -10.554  19.413  66.505  1.00  0.00    -0.554 C  
ENDROOT
BRANCH   2   4
HETATM    4  O   UNL     1      -9.614  17.365  65.710  1.00  0.00    -0.526 OA 
BRANCH   4   5
HETATM    5  C   UNL     1      -9.695  16.004  65.643  1.00  0.00    -0.238 C  
HETATM    6  O   UNL     1      -8.838  15.224  66.038  1.00  0.00    -0.244 OA 
BRANCH   5   7
HETATM    7  C   UNL     1     -10.991  15.605  64.985  1.00  0.00    -0.445 C  
BRANCH   7   8
HETATM    8  C   UNL     1     -11.349  14.156  65.323  1.00  0.00    -0.328 C  
BRANCH   8   9
HETATM    9  C   UNL     1     -10.970  13.171  64.221  1.00  0.00    -0.428 C  
BRANCH   9  10
HETATM   10  C   UNL     1     -11.386  11.764  64.543  1.00  0.00    -0.349 C  
HETATM   11  C   UNL     1     -10.605  10.789  65.039  1.00  0.00    -0.243 C  
BRANCH  11  12
HETATM   12  C   UNL     1      -9.152  10.901  65.402  1.00  0.00    -0.218 C  
BRANCH  12  13
HETATM   13  C   UNL     1      -8.830  10.899  66.906  1.00  0.00    -0.145 C  
HETATM   14  C   UNL     1      -7.313  10.779  67.143  1.00  0.00    -0.101 C  
HETATM   15  C   UNL     1      -7.161  11.149  68.607  1.00  0.00    -0.090 C  
HETATM   16  O   UNL     1      -6.582  11.733  66.372  1.00  0.00    -0.365 OA 
HETATM   17  C   UNL     1      -8.107  12.335  68.768  1.00  0.00     0.054 C  
HETATM   18  H   UNL     1      -5.646  11.658  66.518  1.00  0.00     0.000 HD 
HETATM   19  C   UNL     1      -9.204  12.190  67.679  1.00  0.00    -0.181 C  
HETATM   20  O   UNL     1      -7.403  13.557  68.556  1.00  0.00    -0.103 OA 
HETATM   21  H   UNL     1      -7.993  14.295  68.656  1.00  0.00     0.000 HD 
BRANCH  19  22
HETATM   22  C   UNL     1     -10.609  12.134  68.307  1.00  0.00    -0.236 C  
BRANCH  22  23
HETATM   23  C   UNL     1     -10.938  13.448  69.021  1.00  0.00    -0.265 C  
BRANCH  23  24
HETATM   24  C   UNL     1     -11.993  13.324  70.126  1.00  0.00    -0.318 C  
HETATM   25  O   UNL     1     -12.995  14.327  69.960  1.00  0.00    -0.454 OA 
HETATM   26  H   UNL     1     -13.649  14.251  70.644  1.00  0.00     0.000 HD 
BRANCH  24  27
HETATM   27  C   UNL     1     -12.702  11.962  70.074  1.00  0.00     0.176 C  
BRANCH  27  28
HETATM   28  C   UNL     1     -12.894  11.338  71.456  1.00  0.00    -0.519 C  
BRANCH  28  29
HETATM   29  C   UNL     1     -12.965   9.836  71.399  1.00  0.00    -0.490 A  
HETATM   30  C   UNL     1     -11.873   9.100  70.919  1.00  0.00    -0.327 A  
HETATM   31  C   UNL     1     -11.930   7.708  70.868  1.00  0.00    -0.252 A  
HETATM   32  C   UNL     1     -13.079   7.042  71.290  1.00  0.00    -0.329 A  
HETATM   33  C   UNL     1     -14.174   7.768  71.759  1.00  0.00    -0.558 A  
HETATM   34  C   UNL     1     -14.118   9.161  71.812  1.00  0.00    -0.313 A  
ENDBRANCH  28  29
ENDBRANCH  27  28
ENDBRANCH  24  27
ENDBRANCH  23  24
ENDBRANCH  22  23
ENDBRANCH  19  22
ENDBRANCH  12  13
ENDBRANCH  11  12
ENDBRANCH   9  10
ENDBRANCH   8   9
ENDBRANCH   7   8
ENDBRANCH   5   7
ENDBRANCH   4   5
ENDBRANCH   2   4
TORSDOF 14
ENDMDL
MODEL      150
REMARK 921   NORMALIZED FREE ENERGY PREDICTED BY IDOCK:   -4.52 KCAL/MOL
REMARK 922        TOTAL FREE ENERGY PREDICTED BY IDOCK:  -11.51 KCAL/MOL
REMARK 923 INTER-LIGAND FREE ENERGY PREDICTED BY IDOCK:   -9.33 KCAL/MOL
REMARK 924 INTRA-LIGAND FREE ENERGY PREDICTED BY IDOCK:   -2.17 KCAL/MOL
REMARK 927      BINDING AFFINITY PREDICTED BY RF-SCORE:    0.00 PKD
ROOT
HETATM    1  C   UNL     1     -10.625  17.186  67.876  1.00  0.00    -0.376 C  
HETATM    2  C   UNL     1     -10.460  17.642  66.430  1.00  0.00    -0.286 C  
HETATM    3  C   UNL     1      -9.569  18.875  66.351  1.00  0.00    -0.377 C  
ENDROOT
BRANCH   2   4
HETATM    4  O   UNL     1      -9.824  16.599  65.668  1.00  0.00    -0.528 OA 
BRANCH   4   5
HETATM    5  C   UNL     1     -10.662  15.859  64.886  1.00  0.00    -0.341 C  
HETATM    6  O   UNL     1     -11.563  16.310  64.190  1.00  0.00    -0.838 OA 
BRANCH   5   7
HETATM    7  C   UNL     1     -10.328  14.396  65.026  1.00  0.00    -0.449 C  
BRANCH   7   8
HETATM    8  C   UNL     1     -11.501  13.625  65.634  1.00  0.00    -0.320 C  
BRANCH   8   9
HETATM    9  C   UNL     1     -12.284  14.436  66.663  1.00  0.00    -0.340 C  
BRANCH   9  10
HETATM   10  C   UNL     1     -12.322  13.768  68.009  1.00  0.00     0.013 C  
HETATM   11  C   UNL     1     -11.266  13.370  68.737  1.00  0.00    -0.315 C  
BRANCH  11  12
HETATM   12  C   UNL     1      -9.816  13.528  68.377  1.00  0.00    -0.225 C  
BRANCH  12  13
HETATM   13  C   UNL     1      -9.047  12.228  68.086  1.00  0.00    -0.196 C  
HETATM   14  C   UNL     1      -7.533  12.430  68.278  1.00  0.00    -0.124 C  
HETATM   15  C   UNL     1      -6.994  11.012  68.306  1.00  0.00    -0.069 C  
HETATM   16  O   UNL     1      -7.238  13.036  69.537  1.00  0.00    -0.318 OA 
HETATM   17  C   UNL     1      -8.019  10.266  69.155  1.00  0.00    -0.135 C  
HETATM   18  H   UNL     1      -6.303  13.162  69.655  1.00  0.00     0.000 HD 
HETATM   19  C   UNL     1      -9.362  11.033  69.022  1.00  0.00    -0.105 C  
HETATM   20  O   UNL     1      -7.618  10.270  70.524  1.00  0.00    -0.442 OA 
HETATM   21  H   UNL     1      -8.256   9.805  71.052  1.00  0.00     0.000 HD 
BRANCH  19  22
HETATM   22  C   UNL     1     -10.475  10.117  68.480  1.00  0.00    -0.221 C  
BRANCH  22  23
HETATM   23  C   UNL     1     -10.351   9.948  66.963  1.00  0.00    -0.303 C  
BRANCH  23  24
HETATM   24  C   UNL     1     -10.358   8.492  66.483  1.00  0.00    -0.145 C  
HETATM   25  O   UNL     1      -9.452   8.334  65.391  1.00  0.00    -0.402 OA 
HETATM   26  H   UNL     1      -9.455   7.432  65.093  1.00  0.00     0.000 HD 
BRANCH  24  27
HETATM   27  C   UNL     1      -9.901   7.534  67.594  1.00  0.00    -0.203 C  
BRANCH  27  28
HETATM   28  C   UNL     1     -10.969   6.505  67.967  1.00  0.00    -0.368 C  
BRANCH  28  29
HETATM   29  C   UNL     1     -10.970   6.193  69.439  1.00  0.00    -0.454 A  
HETATM   30  C   UNL     1     -10.347   5.030  69.910  1.00  0.00    -0.298 A  
HETATM   31  C   UNL     1     -10.340   4.737  71.273  1.00  0.00    -0.184 A  
HETATM   32  C   UNL     1     -10.959   5.601  72.174  1.00  0.00    -0.307 A  
HETATM   33  C   UNL     1     -11.589   6.756  71.712  1.00  0.00    -0.336 A  
HETATM   34  C   UNL     1     -11.597   7.051  70.348  1.00  0.00    -0.341 A  
ENDBRANCH  28  29
ENDBRANCH  27  28
ENDBRANCH  24  27
ENDBRANCH  23  24
ENDBRANCH  22  23
ENDBRANCH  19  22
ENDBRANCH  12  13
ENDBRANCH  11  12
ENDBRANCH   9  10
ENDBRANCH   8   9
ENDBRANCH   7   8
ENDBRANCH   5   7
ENDBRANCH   4   5
ENDBRANCH   2   4
TORSDOF 14
ENDMDL
MODEL      151
REMARK 921   NORMALIZED FREE ENERGY PREDICTED BY IDOCK:   -4.51 KCAL/MOL
REMARK 922        TOTAL FREE ENERGY PREDICTED BY IDOCK:  -11.49 KCAL/MOL
REMARK 923 INTER-LIGAND FREE ENERGY PREDICTED BY IDOCK:   -9.27 KCAL/MOL
REMARK 924 INTRA-LIGAND FREE ENERGY PREDICTED BY IDOCK:   -2.22 KCAL/MOL
REMARK 927      BINDING AFFINITY PREDICTED BY RF-SCORE:    0.00 PKD
ROOT
HETATM    1  C   UNL     1     -11.479  15.599  71.436  1.00  0.00    -0.488 C  
HETATM    2  C   UNL     1     -12.569  14.810  72.153  1.00  0.00    -0.334 C  
HETATM    3  C   UNL     1     -13.752  15.708  72.492  1.00  0.00    -0.651 C  
ENDROOT
BRANCH   2   4
HETATM    4  O   UNL     1     -13.053  13.767  71.287  1.00  0.00    -0.329 OA 
BRANCH   4   5
HETATM    5  C   UNL     1     -13.366  12.594  71.911  1.00  0.00    -0.387 C  
HETATM    6  O   UNL     1     -14.123  12.481  72.867  1.00  0.00     0.045 OA 
BRANCH   5   7
HETATM    7  C   UNL     1     -12.619  11.458  71.261  1.00  0.00    -0.480 C  
BRANCH   7   8
HETATM    8  C   UNL     1     -11.865  11.941  70.020  1.00  0.00    -0.407 C  
BRANCH   8   9
HETATM    9  C   UNL     1     -11.646  10.842  68.984  1.00  0.00    -0.387 C  
BRANCH   9  10
HETATM   10  C   UNL     1     -10.949   9.642  69.560  1.00  0.00    -0.233 C  
HETATM   11  C   UNL     1     -10.451   8.598  68.876  1.00  0.00    -0.211 C  
BRANCH  11  12
HETATM   12  C   UNL     1     -10.459   8.415  67.386  1.00  0.00    -0.354 C  
BRANCH  12  13
HETATM   13  C   UNL     1      -9.171   8.823  66.649  1.00  0.00    -0.223 C  
HETATM   14  C   UNL     1      -8.341   7.584  66.267  1.00  0.00    -0.134 C  
HETATM   15  C   UNL     1      -7.338   8.133  65.269  1.00  0.00    -0.073 C  
HETATM   16  O   UNL     1      -9.134   6.604  65.597  1.00  0.00    -0.356 OA 
HETATM   17  C   UNL     1      -8.178   9.076  64.413  1.00  0.00    -0.165 C  
HETATM   18  H   UNL     1      -8.621   5.839  65.362  1.00  0.00     0.000 HD 
HETATM   19  C   UNL     1      -9.370   9.544  65.291  1.00  0.00    -0.317 C  
HETATM   20  O   UNL     1      -8.685   8.385  63.274  1.00  0.00    -0.424 OA 
HETATM   21  H   UNL     1      -9.207   8.973  62.741  1.00  0.00     0.000 HD 
BRANCH  19  22
HETATM   22  C   UNL     1      -9.401  11.078  65.418  1.00  0.00    -0.244 C  
BRANCH  22  23
HETATM   23  C   UNL     1      -8.331  11.564  66.400  1.00  0.00    -0.118 C  
BRANCH  23  24
HETATM   24  C   UNL     1      -8.861  12.458  67.527  1.00  0.00    -0.181 C  
HETATM   25  O   UNL     1      -8.560  11.876  68.795  1.00  0.00    -0.333 OA 
HETATM   26  H   UNL     1      -8.888  12.430  69.494  1.00  0.00     0.000 HD 
BRANCH  24  27
HETATM   27  C   UNL     1      -8.203  13.846  67.497  1.00  0.00    -0.196 C  
BRANCH  27  28
HETATM   28  C   UNL     1      -8.766  14.748  66.399  1.00  0.00    -0.062 C  
BRANCH  28  29
HETATM   29  C   UNL     1     -10.194  14.414  66.063  1.00  0.00    -0.328 A  
HETATM   30  C   UNL     1     -10.577  14.233  64.727  1.00  0.00    -0.434 A  
HETATM   31  C   UNL     1     -11.897  13.918  64.409  1.00  0.00    -0.456 A  
HETATM   32  C   UNL     1     -12.845  13.787  65.422  1.00  0.00    -0.455 A  
HETATM   33  C   UNL     1     -12.474  13.975  66.753  1.00  0.00    -0.238 A  
HETATM   34  C   UNL     1     -11.153  14.289  67.073  1.00  0.00    -0.317 A  
ENDBRANCH  28  29
ENDBRANCH  27  28
ENDBRANCH  24  27
ENDBRANCH  23  24
ENDBRANCH  22  23
ENDBRANCH  19  22
ENDBRANCH  12  13
ENDBRANCH  11  12
ENDBRANCH   9  10
ENDBRANCH   8   9
ENDBRANCH   7   8
ENDBRANCH   5   7
ENDBRANCH   4   5
ENDBRANCH   2   4
TORSDOF 14
ENDMDL
MODEL      152
REMARK 921   NORMALIZED FREE ENERGY PREDICTED BY IDOCK:   -4.51 KCAL/MOL
REMARK 922        TOTAL FREE ENERGY PREDICTED BY IDOCK:  -11.49 KCAL/MOL
REMARK 923 INTER-LIGAND FREE ENERGY PREDICTED BY IDOCK:   -7.90 KCAL/MOL
REMARK 924 INTRA-LIGAND FREE ENERGY PREDICTED BY IDOCK:   -3.58 KCAL/MOL
REMARK 927      BINDING AFFINITY PREDICTED BY RF-SCORE:    0.00 PKD
ROOT
HETATM    1  C   UNL     1      -9.804  17.246  67.709  1.00  0.00    -0.281 C  
HETATM    2  C   UNL     1      -9.105  16.136  68.486  1.00  0.00    -0.208 C  
HETATM    3  C   UNL     1     -10.012  15.588  69.580  1.00  0.00    -0.287 C  
ENDROOT
BRANCH   2   4
HETATM    4  O   UNL     1      -8.795  15.049  67.595  1.00  0.00    -0.170 OA 
BRANCH   4   5
HETATM    5  C   UNL     1      -7.479  14.693  67.551  1.00  0.00    -0.195 C  
HETATM    6  O   UNL     1      -6.533  15.460  67.683  1.00  0.00    -0.148 OA 
BRANCH   5   7
HETATM    7  C   UNL     1      -7.361  13.213  67.291  1.00  0.00    -0.057 C  
BRANCH   7   8
HETATM    8  C   UNL     1      -8.212  12.417  68.283  1.00  0.00    -0.170 C  
BRANCH   8   9
HETATM    9  C   UNL     1      -7.982  10.910  68.197  1.00  0.00    -0.117 C  
BRANCH   9  10
HETATM   10  C   UNL     1      -8.407  10.194  69.448  1.00  0.00    -0.174 C  
HETATM   11  C   UNL     1      -9.296   9.191  69.535  1.00  0.00    -0.165 C  
BRANCH  11  12
HETATM   12  C   UNL     1     -10.040   8.548  68.399  1.00  0.00    -0.221 C  
BRANCH  12  13
HETATM   13  C   UNL     1      -9.511   7.181  67.933  1.00  0.00    -0.135 C  
HETATM   14  C   UNL     1     -10.374   6.037  68.497  1.00  0.00    -0.207 C  
HETATM   15  C   UNL     1      -9.945   4.840  67.671  1.00  0.00    -0.178 C  
HETATM   16  O   UNL     1     -11.764   6.259  68.259  1.00  0.00    -0.359 OA 
HETATM   17  C   UNL     1      -9.838   5.409  66.260  1.00  0.00    -0.164 C  
HETATM   18  H   UNL     1     -12.297   5.553  68.607  1.00  0.00     0.000 HD 
HETATM   19  C   UNL     1      -9.549   6.927  66.405  1.00  0.00    -0.152 C  
HETATM   20  O   UNL     1     -11.072   5.237  65.566  1.00  0.00    -0.658 OA 
HETATM   21  H   UNL     1     -11.005   5.592  64.688  1.00  0.00     0.000 HD 
BRANCH  19  22
HETATM   22  C   UNL     1      -8.239   7.316  65.694  1.00  0.00    -0.138 C  
BRANCH  22  23
HETATM   23  C   UNL     1      -8.180   8.827  65.452  1.00  0.00    -0.137 C  
BRANCH  23  24
HETATM   24  C   UNL     1      -8.393   9.245  63.992  1.00  0.00    -0.178 C  
HETATM   25  O   UNL     1      -8.779   8.114  63.211  1.00  0.00    -0.407 OA 
HETATM   26  H   UNL     1      -8.911   8.373  62.307  1.00  0.00     0.000 HD 
BRANCH  24  27
HETATM   27  C   UNL     1      -9.515  10.287  63.866  1.00  0.00    -0.356 C  
BRANCH  27  28
HETATM   28  C   UNL     1     -10.353  10.416  65.139  1.00  0.00    -0.260 C  
BRANCH  28  29
HETATM   29  C   UNL     1     -10.761  11.838  65.410  1.00  0.00    -0.333 A  
HETATM   30  C   UNL     1     -11.471  12.154  66.577  1.00  0.00    -0.430 A  
HETATM   31  C   UNL     1     -11.848  13.471  66.838  1.00  0.00    -0.452 A  
HETATM   32  C   UNL     1     -11.524  14.479  65.933  1.00  0.00    -0.345 A  
HETATM   33  C   UNL     1     -10.827  14.173  64.765  1.00  0.00    -0.426 A  
HETATM   34  C   UNL     1     -10.448  12.855  64.503  1.00  0.00    -0.400 A  
ENDBRANCH  28  29
ENDBRANCH  27  28
ENDBRANCH  24  27
ENDBRANCH  23  24
ENDBRANCH  22  23
ENDBRANCH  19  22
ENDBRANCH  12  13
ENDBRANCH  11  12
ENDBRANCH   9  10
ENDBRANCH   8   9
ENDBRANCH   7   8
ENDBRANCH   5   7
ENDBRANCH   4   5
ENDBRANCH   2   4
TORSDOF 14
ENDMDL
MODEL      153
REMARK 921   NORMALIZED FREE ENERGY PREDICTED BY IDOCK:   -4.46 KCAL/MOL
REMARK 922        TOTAL FREE ENERGY PREDICTED BY IDOCK:  -11.40 KCAL/MOL
REMARK 923 INTER-LIGAND FREE ENERGY PREDICTED BY IDOCK:   -8.99 KCAL/MOL
REMARK 924 INTRA-LIGAND FREE ENERGY PREDICTED BY IDOCK:   -2.41 KCAL/MOL
REMARK 927      BINDING AFFINITY PREDICTED BY RF-SCORE:    0.00 PKD
ROOT
HETATM    1  C   UNL     1      -5.518  14.386  71.397  1.00  0.00    -0.175 C  
HETATM    2  C   UNL     1      -5.688  13.652  70.071  1.00  0.00    -0.128 C  
HETATM    3  C   UNL     1      -6.196  12.234  70.299  1.00  0.00     0.015 C  
ENDROOT
BRANCH   2   4
HETATM    4  O   UNL     1      -6.665  14.338  69.266  1.00  0.00    -0.111 OA 
BRANCH   4   5
HETATM    5  C   UNL     1      -6.520  14.178  67.918  1.00  0.00    -0.165 C  
HETATM    6  O   UNL     1      -5.502  13.795  67.356  1.00  0.00    -0.347 OA 
BRANCH   5   7
HETATM    7  C   UNL     1      -7.799  14.566  67.221  1.00  0.00    -0.199 C  
BRANCH   7   8
HETATM    8  C   UNL     1      -8.684  15.412  68.138  1.00  0.00    -0.161 C  
BRANCH   8   9
HETATM    9  C   UNL     1      -9.559  16.406  67.379  1.00  0.00    -0.231 C  
BRANCH   9  10
HETATM   10  C   UNL     1      -9.513  16.190  65.893  1.00  0.00    -0.337 C  
HETATM   11  C   UNL     1     -10.439  15.570  65.142  1.00  0.00    -0.431 C  
BRANCH  11  12
HETATM   12  C   UNL     1     -11.734  14.979  65.622  1.00  0.00    -0.123 C  
BRANCH  12  13
HETATM   13  C   UNL     1     -11.944  13.484  65.328  1.00  0.00    -0.397 C  
HETATM   14  C   UNL     1     -12.834  13.287  64.087  1.00  0.00     0.125 C  
HETATM   15  C   UNL     1     -12.637  11.822  63.748  1.00  0.00    -0.413 C  
HETATM   16  O   UNL     1     -12.372  14.060  62.979  1.00  0.00    -1.101 OA 
HETATM   17  C   UNL     1     -11.139  11.616  63.946  1.00  0.00    -0.401 C  
HETATM   18  H   UNL     1     -12.922  13.939  62.213  1.00  0.00     0.000 HD 
HETATM   19  C   UNL     1     -10.668  12.679  64.974  1.00  0.00    -0.321 C  
HETATM   20  O   UNL     1     -10.448  11.824  62.716  1.00  0.00    -0.614 OA 
HETATM   21  H   UNL     1      -9.515  11.695  62.840  1.00  0.00     0.000 HD 
BRANCH  19  22
HETATM   22  C   UNL     1     -10.010  12.017  66.199  1.00  0.00    -0.254 C  
BRANCH  22  23
HETATM   23  C   UNL     1     -10.862  12.229  67.454  1.00  0.00    -0.277 C  
BRANCH  23  24
HETATM   24  C   UNL     1     -11.731  11.026  67.842  1.00  0.00    -0.135 C  
HETATM   25  O   UNL     1     -11.402   9.902  67.026  1.00  0.00    -0.157 OA 
HETATM   26  H   UNL     1     -11.939   9.157  67.267  1.00  0.00     0.000 HD 
BRANCH  24  27
HETATM   27  C   UNL     1     -11.494  10.612  69.302  1.00  0.00    -0.351 C  
BRANCH  27  28
HETATM   28  C   UNL     1     -10.076  10.097  69.552  1.00  0.00    -0.258 C  
BRANCH  28  29
HETATM   29  C   UNL     1      -9.977   9.292  70.819  1.00  0.00    -0.357 A  
HETATM   30  C   UNL     1     -11.141   8.842  71.458  1.00  0.00    -0.397 A  
HETATM   31  C   UNL     1     -11.056   8.092  72.629  1.00  0.00    -0.453 A  
HETATM   32  C   UNL     1      -9.810   7.790  73.174  1.00  0.00    -0.361 A  
HETATM   33  C   UNL     1      -8.647   8.242  72.551  1.00  0.00    -0.273 A  
HETATM   34  C   UNL     1      -8.730   8.993  71.377  1.00  0.00    -0.198 A  
ENDBRANCH  28  29
ENDBRANCH  27  28
ENDBRANCH  24  27
ENDBRANCH  23  24
ENDBRANCH  22  23
ENDBRANCH  19  22
ENDBRANCH  12  13
ENDBRANCH  11  12
ENDBRANCH   9  10
ENDBRANCH   8   9
ENDBRANCH   7   8
ENDBRANCH   5   7
ENDBRANCH   4   5
ENDBRANCH   2   4
TORSDOF 14
ENDMDL
MODEL      154
REMARK 921   NORMALIZED FREE ENERGY PREDICTED BY IDOCK:   -4.45 KCAL/MOL
REMARK 922        TOTAL FREE ENERGY PREDICTED BY IDOCK:  -11.39 KCAL/MOL
REMARK 923 INTER-LIGAND FREE ENERGY PREDICTED BY IDOCK:   -9.67 KCAL/MOL
REMARK 924 INTRA-LIGAND FREE ENERGY PREDICTED BY IDOCK:   -1.72 KCAL/MOL
REMARK 927      BINDING AFFINITY PREDICTED BY RF-SCORE:    0.00 PKD
ROOT
HETATM    1  C   UNL     1      -6.509  17.529  68.881  1.00  0.00    -0.213 C  
HETATM    2  C   UNL     1      -7.019  18.958  68.734  1.00  0.00    -0.302 C  
HETATM    3  C   UNL     1      -6.423  19.858  69.807  1.00  0.00    -0.391 C  
ENDROOT
BRANCH   2   4
HETATM    4  O   UNL     1      -6.616  19.482  67.455  1.00  0.00    -0.209 OA 
BRANCH   4   5
HETATM    5  C   UNL     1      -7.490  19.254  66.433  1.00  0.00    -0.259 C  
HETATM    6  O   UNL     1      -7.261  18.567  65.445  1.00  0.00    -0.530 OA 
BRANCH   5   7
HETATM    7  C   UNL     1      -8.778  19.994  66.691  1.00  0.00    -0.397 C  
BRANCH   7   8
HETATM    8  C   UNL     1      -9.986  19.126  66.334  1.00  0.00    -0.458 C  
BRANCH   8   9
HETATM    9  C   UNL     1     -10.561  18.375  67.532  1.00  0.00    -0.447 C  
BRANCH   9  10
HETATM   10  C   UNL     1      -9.827  17.093  67.810  1.00  0.00    -0.274 C  
HETATM   11  C   UNL     1      -9.982  15.924  67.167  1.00  0.00    -0.240 C  
BRANCH  11  12
HETATM   12  C   UNL     1     -10.904  15.649  66.014  1.00  0.00    -0.276 C  
BRANCH  12  13
HETATM   13  C   UNL     1     -11.553  14.254  65.985  1.00  0.00    -0.362 C  
HETATM   14  C   UNL     1     -12.482  14.106  64.766  1.00  0.00    -0.373 C  
HETATM   15  C   UNL     1     -12.733  12.611  64.702  1.00  0.00    -0.458 C  
HETATM   16  O   UNL     1     -11.831  14.493  63.556  1.00  0.00    -0.626 OA 
HETATM   17  C   UNL     1     -11.360  12.013  64.991  1.00  0.00    -0.310 C  
HETATM   18  H   UNL     1     -12.405  14.402  62.804  1.00  0.00     0.000 HD 
HETATM   19  C   UNL     1     -10.578  13.059  65.829  1.00  0.00    -0.291 C  
HETATM   20  O   UNL     1     -10.660  11.781  63.770  1.00  0.00    -0.332 OA 
HETATM   21  H   UNL     1      -9.805  11.409  63.950  1.00  0.00     0.000 HD 
BRANCH  19  22
HETATM   22  C   UNL     1     -10.125  12.468  67.177  1.00  0.00    -0.219 C  
BRANCH  22  23
HETATM   23  C   UNL     1      -9.297  11.197  66.962  1.00  0.00    -0.182 C  
BRANCH  23  24
HETATM   24  C   UNL     1      -8.822  10.523  68.254  1.00  0.00    -0.139 C  
HETATM   25  O   UNL     1      -9.214  11.301  69.385  1.00  0.00    -0.382 OA 
HETATM   26  H   UNL     1      -8.920  10.883  70.185  1.00  0.00     0.000 HD 
BRANCH  24  27
HETATM   27  C   UNL     1      -9.448   9.130  68.422  1.00  0.00    -0.150 C  
BRANCH  27  28
HETATM   28  C   UNL     1     -10.353   8.740  67.253  1.00  0.00    -0.360 C  
BRANCH  28  29
HETATM   29  C   UNL     1     -10.031   7.372  66.716  1.00  0.00    -0.300 A  
HETATM   30  C   UNL     1      -8.919   7.189  65.883  1.00  0.00    -0.098 A  
HETATM   31  C   UNL     1      -8.612   5.924  65.386  1.00  0.00    -0.138 A  
HETATM   32  C   UNL     1      -9.416   4.834  65.711  1.00  0.00    -0.173 A  
HETATM   33  C   UNL     1     -10.531   5.009  66.530  1.00  0.00    -0.325 A  
HETATM   34  C   UNL     1     -10.839   6.275  67.030  1.00  0.00    -0.458 A  
ENDBRANCH  28  29
ENDBRANCH  27  28
ENDBRANCH  24  27
ENDBRANCH  23  24
ENDBRANCH  22  23
ENDBRANCH  19  22
ENDBRANCH  12  13
ENDBRANCH  11  12
ENDBRANCH   9  10
ENDBRANCH   8   9
ENDBRANCH   7   8
ENDBRANCH   5   7
ENDBRANCH   4   5
ENDBRANCH   2   4
TORSDOF 14
ENDMDL
MODEL      155
REMARK 921   NORMALIZED FREE ENERGY PREDICTED BY IDOCK:   -4.44 KCAL/MOL
REMARK 922        TOTAL FREE ENERGY PREDICTED BY IDOCK:  -11.36 KCAL/MOL
REMARK 923 INTER-LIGAND FREE ENERGY PREDICTED BY IDOCK:   -9.48 KCAL/MOL
REMARK 924 INTRA-LIGAND FREE ENERGY PREDICTED BY IDOCK:   -1.88 KCAL/MOL
REMARK 927      BINDING AFFINITY PREDICTED BY RF-SCORE:    0.00 PKD
ROOT
HETATM    1  C   UNL     1     -11.939  11.802  70.156  1.00  0.00    -0.421 C  
HETATM    2  C   UNL     1     -12.644  11.180  71.357  1.00  0.00    -0.374 C  
HETATM    3  C   UNL     1     -13.535  12.202  72.050  1.00  0.00    -0.388 C  
ENDROOT
BRANCH   2   4
HETATM    4  O   UNL     1     -13.487  10.102  70.912  1.00  0.00    -0.345 OA 
BRANCH   4   5
HETATM    5  C   UNL     1     -13.522   9.015  71.736  1.00  0.00    -0.411 C  
HETATM    6  O   UNL     1     -14.293   8.863  72.675  1.00  0.00    -0.613 OA 
BRANCH   5   7
HETATM    7  C   UNL     1     -12.450   8.035  71.330  1.00  0.00    -0.320 C  
BRANCH   7   8
HETATM    8  C   UNL     1     -11.282   8.067  72.317  1.00  0.00    -0.402 C  
BRANCH   8   9
HETATM    9  C   UNL     1     -10.071   8.833  71.789  1.00  0.00    -0.403 C  
BRANCH   9  10
HETATM   10  C   UNL     1      -9.320   8.064  70.740  1.00  0.00    -0.167 C  
HETATM   11  C   UNL     1      -9.263   8.344  69.427  1.00  0.00    -0.154 C  
BRANCH  11  12
HETATM   12  C   UNL     1      -9.917   9.500  68.726  1.00  0.00    -0.185 C  
BRANCH  12  13
HETATM   13  C   UNL     1      -9.174  10.051  67.497  1.00  0.00    -0.151 C  
HETATM   14  C   UNL     1      -8.923   8.939  66.462  1.00  0.00    -0.155 C  
HETATM   15  C   UNL     1      -8.528   9.709  65.215  1.00  0.00    -0.155 C  
HETATM   16  O   UNL     1     -10.116   8.212  66.169  1.00  0.00    -0.475 OA 
HETATM   17  C   UNL     1      -9.503  10.881  65.205  1.00  0.00    -0.217 C  
HETATM   18  H   UNL     1      -9.960   7.525  65.530  1.00  0.00     0.000 HD 
HETATM   19  C   UNL     1      -9.931  11.127  66.677  1.00  0.00    -0.244 C  
HETATM   20  O   UNL     1     -10.659  10.552  64.437  1.00  0.00    -0.332 OA 
HETATM   21  H   UNL     1     -11.266  11.282  64.431  1.00  0.00     0.000 HD 
BRANCH  19  22
HETATM   22  C   UNL     1      -9.605  12.566  67.119  1.00  0.00    -0.208 C  
BRANCH  22  23
HETATM   23  C   UNL     1     -10.885  13.397  67.252  1.00  0.00    -0.278 C  
BRANCH  23  24
HETATM   24  C   UNL     1     -11.277  14.166  65.985  1.00  0.00    -0.319 C  
HETATM   25  O   UNL     1     -12.669  13.993  65.719  1.00  0.00    -0.516 OA 
HETATM   26  H   UNL     1     -12.912  14.470  64.935  1.00  0.00     0.000 HD 
BRANCH  24  27
HETATM   27  C   UNL     1     -11.031  15.674  66.147  1.00  0.00    -0.206 C  
BRANCH  27  28
HETATM   28  C   UNL     1      -9.667  16.114  65.614  1.00  0.00    -0.239 C  
BRANCH  28  29
HETATM   29  C   UNL     1      -9.084  17.250  66.410  1.00  0.00    -0.281 A  
HETATM   30  C   UNL     1      -7.768  17.670  66.173  1.00  0.00    -0.293 A  
HETATM   31  C   UNL     1      -7.223  18.725  66.903  1.00  0.00    -0.223 A  
HETATM   32  C   UNL     1      -7.986  19.364  67.878  1.00  0.00    -0.335 A  
HETATM   33  C   UNL     1      -9.293  18.947  68.126  1.00  0.00    -0.368 A  
HETATM   34  C   UNL     1      -9.840  17.891  67.396  1.00  0.00    -0.305 A  
ENDBRANCH  28  29
ENDBRANCH  27  28
ENDBRANCH  24  27
ENDBRANCH  23  24
ENDBRANCH  22  23
ENDBRANCH  19  22
ENDBRANCH  12  13
ENDBRANCH  11  12
ENDBRANCH   9  10
ENDBRANCH   8   9
ENDBRANCH   7   8
ENDBRANCH   5   7
ENDBRANCH   4   5
ENDBRANCH   2   4
TORSDOF 14
ENDMDL
MODEL      156
REMARK 921   NORMALIZED FREE ENERGY PREDICTED BY IDOCK:   -4.43 KCAL/MOL
REMARK 922        TOTAL FREE ENERGY PREDICTED BY IDOCK:  -11.35 KCAL/MOL
REMARK 923 INTER-LIGAND FREE ENERGY PREDICTED BY IDOCK:   -9.40 KCAL/MOL
REMARK 924 INTRA-LIGAND FREE ENERGY PREDICTED BY IDOCK:   -1.95 KCAL/MOL
REMARK 927      BINDING AFFINITY PREDICTED BY RF-SCORE:    0.00 PKD
ROOT
HETATM    1  C   UNL     1     -10.306   7.954  70.480  1.00  0.00    -0.205 C  
HETATM    2  C   UNL     1     -10.138   6.452  70.282  1.00  0.00    -0.181 C  
HETATM    3  C   UNL     1     -11.157   5.921  69.282  1.00  0.00    -0.352 C  
ENDROOT
BRANCH   2   4
HETATM    4  O   UNL     1      -8.828   6.182  69.750  1.00  0.00    -0.133 OA 
BRANCH   4   5
HETATM    5  C   UNL     1      -8.334   7.140  68.913  1.00  0.00    -0.126 C  
HETATM    6  O   UNL     1      -7.713   8.135  69.264  1.00  0.00    -0.099 OA 
BRANCH   5   7
HETATM    7  C   UNL     1      -8.688   6.800  67.487  1.00  0.00    -0.119 C  
BRANCH   7   8
HETATM    8  C   UNL     1      -8.929   8.070  66.669  1.00  0.00    -0.179 C  
BRANCH   8   9
HETATM    9  C   UNL     1     -10.348   8.616  66.810  1.00  0.00    -0.336 C  
BRANCH   9  10
HETATM   10  C   UNL     1     -10.369  10.028  67.324  1.00  0.00    -0.293 C  
HETATM   11  C   UNL     1     -10.162  11.146  66.608  1.00  0.00    -0.274 C  
BRANCH  11  12
HETATM   12  C   UNL     1      -9.889  11.229  65.134  1.00  0.00    -0.298 C  
BRANCH  12  13
HETATM   13  C   UNL     1     -10.462  12.460  64.410  1.00  0.00    -0.371 C  
HETATM   14  C   UNL     1     -11.703  12.081  63.581  1.00  0.00    -0.493 C  
HETATM   15  C   UNL     1     -12.321  13.426  63.249  1.00  0.00    -0.244 C  
HETATM   16  O   UNL     1     -12.649  11.343  64.355  1.00  0.00     0.175 OA 
HETATM   17  C   UNL     1     -12.190  14.203  64.555  1.00  0.00    -0.445 C  
HETATM   18  H   UNL     1     -13.415  11.109  63.844  1.00  0.00     0.000 HD 
HETATM   19  C   UNL     1     -10.984  13.599  65.322  1.00  0.00    -0.314 C  
HETATM   20  O   UNL     1     -13.368  14.041  65.342  1.00  0.00    -0.721 OA 
HETATM   21  H   UNL     1     -13.286  14.526  66.155  1.00  0.00     0.000 HD 
BRANCH  19  22
HETATM   22  C   UNL     1      -9.920  14.670  65.622  1.00  0.00    -0.381 C  
BRANCH  22  23
HETATM   23  C   UNL     1     -10.521  16.075  65.525  1.00  0.00    -0.426 C  
BRANCH  23  24
HETATM   24  C   UNL     1      -9.842  17.121  66.419  1.00  0.00    -0.300 C  
HETATM   25  O   UNL     1      -9.914  18.408  65.806  1.00  0.00    -0.523 OA 
HETATM   26  H   UNL     1      -9.494  19.056  66.359  1.00  0.00     0.000 HD 
BRANCH  24  27
HETATM   27  C   UNL     1     -10.539  17.228  67.784  1.00  0.00    -0.367 C  
BRANCH  27  28
HETATM   28  C   UNL     1      -9.811  16.456  68.885  1.00  0.00    -0.260 C  
BRANCH  28  29
HETATM   29  C   UNL     1     -10.690  15.419  69.529  1.00  0.00    -0.269 A  
HETATM   30  C   UNL     1     -10.787  14.137  68.971  1.00  0.00    -0.273 A  
HETATM   31  C   UNL     1     -11.596  13.169  69.566  1.00  0.00    -0.347 A  
HETATM   32  C   UNL     1     -12.316  13.476  70.718  1.00  0.00    -0.440 A  
HETATM   33  C   UNL     1     -12.233  14.752  71.274  1.00  0.00    -0.394 A  
HETATM   34  C   UNL     1     -11.424  15.722  70.680  1.00  0.00    -0.415 A  
ENDBRANCH  28  29
ENDBRANCH  27  28
ENDBRANCH  24  27
ENDBRANCH  23  24
ENDBRANCH  22  23
ENDBRANCH  19  22
ENDBRANCH  12  13
ENDBRANCH  11  12
ENDBRANCH   9  10
ENDBRANCH   8   9
ENDBRANCH   7   8
ENDBRANCH   5   7
ENDBRANCH   4   5
ENDBRANCH   2   4
TORSDOF 14
ENDMDL
MODEL      157
REMARK 921   NORMALIZED FREE ENERGY PREDICTED BY IDOCK:   -4.42 KCAL/MOL
REMARK 922        TOTAL FREE ENERGY PREDICTED BY IDOCK:  -11.34 KCAL/MOL
REMARK 923 INTER-LIGAND FREE ENERGY PREDICTED BY IDOCK:   -8.56 KCAL/MOL
REMARK 924 INTRA-LIGAND FREE ENERGY PREDICTED BY IDOCK:   -2.78 KCAL/MOL
REMARK 927      BINDING AFFINITY PREDICTED BY RF-SCORE:    0.00 PKD
ROOT
HETATM    1  C   UNL     1     -11.859  14.447  65.999  1.00  0.00    -0.379 C  
HETATM    2  C   UNL     1     -12.379  13.044  65.705  1.00  0.00    -0.416 C  
HETATM    3  C   UNL     1     -11.742  12.486  64.439  1.00  0.00    -0.432 C  
ENDROOT
BRANCH   2   4
HETATM    4  O   UNL     1     -12.028  12.166  66.790  1.00  0.00    -0.606 OA 
BRANCH   4   5
HETATM    5  C   UNL     1     -10.953  12.561  67.532  1.00  0.00    -0.251 C  
HETATM    6  O   UNL     1      -9.854  12.861  67.082  1.00  0.00    -0.217 OA 
BRANCH   5   7
HETATM    7  C   UNL     1     -11.314  12.552  68.995  1.00  0.00    -0.342 C  
BRANCH   7   8
HETATM    8  C   UNL     1     -11.851  11.182  69.415  1.00  0.00    -0.415 C  
BRANCH   8   9
HETATM    9  C   UNL     1     -12.320  11.140  70.867  1.00  0.00    -0.500 C  
BRANCH   9  10
HETATM   10  C   UNL     1     -12.769   9.768  71.284  1.00  0.00    -0.464 C  
HETATM   11  C   UNL     1     -11.991   8.775  71.746  1.00  0.00    -0.418 C  
BRANCH  11  12
HETATM   12  C   UNL     1     -10.507   8.828  71.971  1.00  0.00    -0.414 C  
BRANCH  12  13
HETATM   13  C   UNL     1      -9.647   7.998  71.002  1.00  0.00    -0.184 C  
HETATM   14  C   UNL     1      -8.717   8.906  70.176  1.00  0.00    -0.161 C  
HETATM   15  C   UNL     1      -7.728   7.929  69.569  1.00  0.00    -0.104 C  
HETATM   16  O   UNL     1      -7.988   9.809  71.007  1.00  0.00    -0.351 OA 
HETATM   17  C   UNL     1      -7.429   6.974  70.720  1.00  0.00    -0.082 C  
HETATM   18  H   UNL     1      -7.414  10.369  70.497  1.00  0.00     0.000 HD 
HETATM   19  C   UNL     1      -8.663   6.997  71.660  1.00  0.00    -0.116 C  
HETATM   20  O   UNL     1      -6.286   7.425  71.446  1.00  0.00    -0.036 OA 
HETATM   21  H   UNL     1      -6.100   6.830  72.163  1.00  0.00     0.000 HD 
BRANCH  19  22
HETATM   22  C   UNL     1      -9.260   5.587  71.832  1.00  0.00    -0.156 C  
BRANCH  22  23
HETATM   23  C   UNL     1     -10.095   5.198  70.610  1.00  0.00    -0.309 C  
BRANCH  23  24
HETATM   24  C   UNL     1      -9.372   4.291  69.607  1.00  0.00    -0.165 C  
HETATM   25  O   UNL     1      -9.766   2.933  69.804  1.00  0.00    -0.078 OA 
HETATM   26  H   UNL     1      -9.318   2.371  69.183  1.00  0.00     0.000 HD 
BRANCH  24  27
HETATM   27  C   UNL     1      -9.727   4.661  68.159  1.00  0.00    -0.197 C  
BRANCH  27  28
HETATM   28  C   UNL     1     -10.675   5.856  68.066  1.00  0.00    -0.332 C  
BRANCH  28  29
HETATM   29  C   UNL     1     -10.138   6.942  67.174  1.00  0.00    -0.272 A  
HETATM   30  C   UNL     1      -9.112   6.658  66.262  1.00  0.00    -0.168 A  
HETATM   31  C   UNL     1      -8.613   7.658  65.429  1.00  0.00    -0.074 A  
HETATM   32  C   UNL     1      -9.132   8.949  65.504  1.00  0.00    -0.248 A  
HETATM   33  C   UNL     1     -10.146   9.243  66.415  1.00  0.00    -0.337 A  
HETATM   34  C   UNL     1     -10.647   8.242  67.250  1.00  0.00    -0.335 A  
ENDBRANCH  28  29
ENDBRANCH  27  28
ENDBRANCH  24  27
ENDBRANCH  23  24
ENDBRANCH  22  23
ENDBRANCH  19  22
ENDBRANCH  12  13
ENDBRANCH  11  12
ENDBRANCH   9  10
ENDBRANCH   8   9
ENDBRANCH   7   8
ENDBRANCH   5   7
ENDBRANCH   4   5
ENDBRANCH   2   4
TORSDOF 14
ENDMDL
MODEL      158
REMARK 921   NORMALIZED FREE ENERGY PREDICTED BY IDOCK:   -4.42 KCAL/MOL
REMARK 922        TOTAL FREE ENERGY PREDICTED BY IDOCK:  -11.32 KCAL/MOL
REMARK 923 INTER-LIGAND FREE ENERGY PREDICTED BY IDOCK:   -9.44 KCAL/MOL
REMARK 924 INTRA-LIGAND FREE ENERGY PREDICTED BY IDOCK:   -1.89 KCAL/MOL
REMARK 927      BINDING AFFINITY PREDICTED BY RF-SCORE:    0.00 PKD
ROOT
HETATM    1  C   UNL     1      -9.052   6.851  70.641  1.00  0.00    -0.155 C  
HETATM    2  C   UNL     1     -10.275   5.974  70.400  1.00  0.00    -0.204 C  
HETATM    3  C   UNL     1     -10.008   4.541  70.840  1.00  0.00    -0.263 C  
ENDROOT
BRANCH   2   4
HETATM    4  O   UNL     1     -11.380   6.468  71.181  1.00  0.00    -0.284 OA 
BRANCH   4   5
HETATM    5  C   UNL     1     -11.041   7.015  72.384  1.00  0.00    -0.259 C  
HETATM    6  O   UNL     1     -10.712   6.385  73.381  1.00  0.00    -0.259 OA 
BRANCH   5   7
HETATM    7  C   UNL     1     -11.154   8.517  72.308  1.00  0.00    -0.430 C  
BRANCH   7   8
HETATM    8  C   UNL     1     -12.600   8.965  72.529  1.00  0.00    -0.363 C  
BRANCH   8   9
HETATM    9  C   UNL     1     -13.032  10.087  71.588  1.00  0.00    -0.554 C  
BRANCH   9  10
HETATM   10  C   UNL     1     -12.242  10.096  70.309  1.00  0.00    -0.248 C  
HETATM   11  C   UNL     1     -11.738  11.175  69.685  1.00  0.00    -0.410 C  
BRANCH  11  12
HETATM   12  C   UNL     1     -11.834  12.602  70.142  1.00  0.00    -0.326 C  
BRANCH  12  13
HETATM   13  C   UNL     1     -11.971  13.659  69.033  1.00  0.00    -0.392 C  
HETATM   14  C   UNL     1     -11.582  15.055  69.553  1.00  0.00    -0.311 C  
HETATM   15  C   UNL     1     -11.430  15.868  68.281  1.00  0.00    -0.320 C  
HETATM   16  O   UNL     1     -10.318  15.038  70.216  1.00  0.00    -0.486 OA 
HETATM   17  C   UNL     1     -10.702  14.914  67.341  1.00  0.00    -0.292 C  
HETATM   18  H   UNL     1     -10.078  15.900  70.537  1.00  0.00     0.000 HD 
HETATM   19  C   UNL     1     -11.044  13.473  67.804  1.00  0.00    -0.291 C  
HETATM   20  O   UNL     1      -9.293  15.109  67.438  1.00  0.00    -0.192 OA 
HETATM   21  H   UNL     1      -8.840  14.515  66.852  1.00  0.00     0.000 HD 
BRANCH  19  22
HETATM   22  C   UNL     1     -11.698  12.662  66.670  1.00  0.00    -0.464 C  
BRANCH  22  23
HETATM   23  C   UNL     1     -10.763  12.568  65.460  1.00  0.00    -0.303 C  
BRANCH  23  24
HETATM   24  C   UNL     1     -10.184  11.171  65.211  1.00  0.00    -0.280 C  
HETATM   25  O   UNL     1      -8.805  11.270  64.855  1.00  0.00    -0.377 OA 
HETATM   26  H   UNL     1      -8.446  10.404  64.701  1.00  0.00     0.000 HD 
BRANCH  24  27
HETATM   27  C   UNL     1     -10.266  10.297  66.472  1.00  0.00    -0.289 C  
BRANCH  27  28
HETATM   28  C   UNL     1      -9.050   9.386  66.645  1.00  0.00    -0.181 C  
BRANCH  28  29
HETATM   29  C   UNL     1      -9.436   7.936  66.752  1.00  0.00    -0.257 A  
HETATM   30  C   UNL     1      -8.476   6.937  66.539  1.00  0.00    -0.125 A  
HETATM   31  C   UNL     1      -8.825   5.591  66.642  1.00  0.00    -0.117 A  
HETATM   32  C   UNL     1     -10.135   5.234  66.952  1.00  0.00    -0.250 A  
HETATM   33  C   UNL     1     -11.099   6.221  67.156  1.00  0.00    -0.389 A  
HETATM   34  C   UNL     1     -10.751   7.569  67.054  1.00  0.00    -0.367 A  
ENDBRANCH  28  29
ENDBRANCH  27  28
ENDBRANCH  24  27
ENDBRANCH  23  24
ENDBRANCH  22  23
ENDBRANCH  19  22
ENDBRANCH  12  13
ENDBRANCH  11  12
ENDBRANCH   9  10
ENDBRANCH   8   9
ENDBRANCH   7   8
ENDBRANCH   5   7
ENDBRANCH   4   5
ENDBRANCH   2   4
TORSDOF 14
ENDMDL
MODEL      159
REMARK 921   NORMALIZED FREE ENERGY PREDICTED BY IDOCK:   -4.41 KCAL/MOL
REMARK 922        TOTAL FREE ENERGY PREDICTED BY IDOCK:  -11.31 KCAL/MOL
REMARK 923 INTER-LIGAND FREE ENERGY PREDICTED BY IDOCK:   -8.52 KCAL/MOL
REMARK 924 INTRA-LIGAND FREE ENERGY PREDICTED BY IDOCK:   -2.79 KCAL/MOL
REMARK 927      BINDING AFFINITY PREDICTED BY RF-SCORE:    0.00 PKD
ROOT
HETATM    1  C   UNL     1     -12.700  10.370  71.051  1.00  0.00    -0.490 C  
HETATM    2  C   UNL     1     -11.909   9.071  70.958  1.00  0.00    -0.285 C  
HETATM    3  C   UNL     1     -10.667   9.130  71.838  1.00  0.00    -0.334 C  
ENDROOT
BRANCH   2   4
HETATM    4  O   UNL     1     -12.722   7.980  71.428  1.00  0.00    -0.316 OA 
BRANCH   4   5
HETATM    5  C   UNL     1     -12.163   6.742  71.297  1.00  0.00    -0.364 C  
HETATM    6  O   UNL     1     -12.094   5.899  72.183  1.00  0.00    -0.252 OA 
BRANCH   5   7
HETATM    7  C   UNL     1     -11.622   6.574  69.900  1.00  0.00    -0.433 C  
BRANCH   7   8
HETATM    8  C   UNL     1     -10.236   5.928  69.927  1.00  0.00    -0.280 C  
BRANCH   8   9
HETATM    9  C   UNL     1      -9.936   5.097  68.681  1.00  0.00    -0.227 C  
BRANCH   9  10
HETATM   10  C   UNL     1     -10.668   5.599  67.469  1.00  0.00    -0.272 C  
HETATM   11  C   UNL     1     -10.145   5.819  66.250  1.00  0.00    -0.129 C  
BRANCH  11  12
HETATM   12  C   UNL     1      -8.723   5.586  65.828  1.00  0.00    -0.151 C  
BRANCH  12  13
HETATM   13  C   UNL     1      -7.909   6.843  65.475  1.00  0.00    -0.112 C  
HETATM   14  C   UNL     1      -7.496   6.831  63.991  1.00  0.00    -0.098 C  
HETATM   15  C   UNL     1      -7.040   8.257  63.747  1.00  0.00    -0.081 C  
HETATM   16  O   UNL     1      -8.609   6.574  63.136  1.00  0.00    -0.337 OA 
HETATM   17  C   UNL     1      -8.082   9.088  64.487  1.00  0.00    -0.143 C  
HETATM   18  H   UNL     1      -8.354   6.566  62.220  1.00  0.00     0.000 HD 
HETATM   19  C   UNL     1      -8.655   8.194  65.619  1.00  0.00    -0.181 C  
HETATM   20  O   UNL     1      -9.140   9.450  63.602  1.00  0.00    -0.406 OA 
HETATM   21  H   UNL     1      -9.789   9.968  64.063  1.00  0.00     0.000 HD 
BRANCH  19  22
HETATM   22  C   UNL     1      -8.462   8.848  67.000  1.00  0.00    -0.112 C  
BRANCH  22  23
HETATM   23  C   UNL     1      -9.797   9.353  67.553  1.00  0.00    -0.220 C  
BRANCH  23  24
HETATM   24  C   UNL     1      -9.689  10.606  68.430  1.00  0.00    -0.166 C  
HETATM   25  O   UNL     1      -8.490  11.318  68.119  1.00  0.00    -0.132 OA 
HETATM   26  H   UNL     1      -8.423  12.094  68.663  1.00  0.00     0.000 HD 
BRANCH  24  27
HETATM   27  C   UNL     1     -10.863  11.566  68.184  1.00  0.00    -0.259 C  
BRANCH  27  28
HETATM   28  C   UNL     1     -10.440  12.855  67.479  1.00  0.00    -0.226 C  
BRANCH  28  29
HETATM   29  C   UNL     1     -11.034  12.972  66.102  1.00  0.00    -0.300 A  
HETATM   30  C   UNL     1     -11.468  14.217  65.628  1.00  0.00    -0.329 A  
HETATM   31  C   UNL     1     -12.015  14.334  64.351  1.00  0.00    -0.476 A  
HETATM   32  C   UNL     1     -12.137  13.208  63.541  1.00  0.00    -0.585 A  
HETATM   33  C   UNL     1     -11.717  11.963  64.008  1.00  0.00    -0.469 A  
HETATM   34  C   UNL     1     -11.169  11.844  65.286  1.00  0.00    -0.351 A  
ENDBRANCH  28  29
ENDBRANCH  27  28
ENDBRANCH  24  27
ENDBRANCH  23  24
ENDBRANCH  22  23
ENDBRANCH  19  22
ENDBRANCH  12  13
ENDBRANCH  11  12
ENDBRANCH   9  10
ENDBRANCH   8   9
ENDBRANCH   7   8
ENDBRANCH   5   7
ENDBRANCH   4   5
ENDBRANCH   2   4
TORSDOF 14
ENDMDL
MODEL      160
REMARK 921   NORMALIZED FREE ENERGY PREDICTED BY IDOCK:   -4.40 KCAL/MOL
REMARK 922        TOTAL FREE ENERGY PREDICTED BY IDOCK:  -11.30 KCAL/MOL
REMARK 923 INTER-LIGAND FREE ENERGY PREDICTED BY IDOCK:   -9.10 KCAL/MOL
REMARK 924 INTRA-LIGAND FREE ENERGY PREDICTED BY IDOCK:   -2.20 KCAL/MOL
REMARK 927      BINDING AFFINITY PREDICTED BY RF-SCORE:    0.00 PKD
ROOT
HETATM    1  C   UNL     1      -9.111  10.247  66.847  1.00  0.00    -0.159 C  
HETATM    2  C   UNL     1      -8.235  10.037  68.077  1.00  0.00    -0.116 C  
HETATM    3  C   UNL     1      -7.189   8.960  67.817  1.00  0.00    -0.084 C  
ENDROOT
BRANCH   2   4
HETATM    4  O   UNL     1      -7.533  11.257  68.379  1.00  0.00    -0.095 OA 
BRANCH   4   5
HETATM    5  C   UNL     1      -7.268  12.055  67.305  1.00  0.00    -0.150 C  
HETATM    6  O   UNL     1      -6.437  11.820  66.436  1.00  0.00    -0.003 OA 
BRANCH   5   7
HETATM    7  C   UNL     1      -8.136  13.286  67.359  1.00  0.00    -0.179 C  
BRANCH   7   8
HETATM    8  C   UNL     1      -7.829  14.115  68.607  1.00  0.00    -0.137 C  
BRANCH   8   9
HETATM    9  C   UNL     1      -6.378  14.581  68.677  1.00  0.00    -0.086 C  
BRANCH   9  10
HETATM   10  C   UNL     1      -6.197  15.755  69.598  1.00  0.00    -0.169 C  
HETATM   11  C   UNL     1      -6.376  17.050  69.291  1.00  0.00    -0.229 C  
BRANCH  11  12
HETATM   12  C   UNL     1      -6.820  17.607  67.969  1.00  0.00    -0.193 C  
BRANCH  12  13
HETATM   13  C   UNL     1      -8.131  18.412  67.981  1.00  0.00    -0.288 C  
HETATM   14  C   UNL     1      -8.115  19.504  66.895  1.00  0.00    -0.282 C  
HETATM   15  C   UNL     1      -9.567  19.934  66.815  1.00  0.00    -0.523 C  
HETATM   16  O   UNL     1      -7.743  18.976  65.621  1.00  0.00    -0.465 OA 
HETATM   17  C   UNL     1     -10.327  18.615  66.894  1.00  0.00    -0.402 C  
HETATM   18  H   UNL     1      -7.733  19.650  64.952  1.00  0.00     0.000 HD 
HETATM   19  C   UNL     1      -9.418  17.613  67.654  1.00  0.00    -0.258 C  
HETATM   20  O   UNL     1     -10.575  18.112  65.583  1.00  0.00    -0.611 OA 
HETATM   21  H   UNL     1     -11.049  17.290  65.632  1.00  0.00     0.000 HD 
BRANCH  19  22
HETATM   22  C   UNL     1     -10.121  17.059  68.907  1.00  0.00    -0.307 C  
BRANCH  22  23
HETATM   23  C   UNL     1     -11.215  16.061  68.519  1.00  0.00    -0.374 C  
BRANCH  23  24
HETATM   24  C   UNL     1     -11.780  15.249  69.691  1.00  0.00    -0.334 C  
HETATM   25  O   UNL     1     -12.860  15.956  70.300  1.00  0.00    -0.612 OA 
HETATM   26  H   UNL     1     -13.210  15.454  71.026  1.00  0.00     0.000 HD 
BRANCH  24  27
HETATM   27  C   UNL     1     -12.332  13.895  69.220  1.00  0.00    -0.201 C  
BRANCH  27  28
HETATM   28  C   UNL     1     -11.297  12.772  69.294  1.00  0.00    -0.307 C  
BRANCH  28  29
HETATM   29  C   UNL     1     -11.763  11.622  70.145  1.00  0.00    -0.381 A  
HETATM   30  C   UNL     1     -11.231  10.341  69.947  1.00  0.00    -0.360 A  
HETATM   31  C   UNL     1     -11.654   9.272  70.735  1.00  0.00    -0.345 A  
HETATM   32  C   UNL     1     -12.616   9.474  71.722  1.00  0.00    -0.490 A  
HETATM   33  C   UNL     1     -13.159  10.743  71.920  1.00  0.00    -0.557 A  
HETATM   34  C   UNL     1     -12.735  11.815  71.132  1.00  0.00    -0.405 A  
ENDBRANCH  28  29
ENDBRANCH  27  28
ENDBRANCH  24  27
ENDBRANCH  23  24
ENDBRANCH  22  23
ENDBRANCH  19  22
ENDBRANCH  12  13
ENDBRANCH  11  12
ENDBRANCH   9  10
ENDBRANCH   8   9
ENDBRANCH   7   8
ENDBRANCH   5   7
ENDBRANCH   4   5
ENDBRANCH   2   4
TORSDOF 14
ENDMDL
MODEL      161
REMARK 921   NORMALIZED FREE ENERGY PREDICTED BY IDOCK:   -4.40 KCAL/MOL
REMARK 922        TOTAL FREE ENERGY PREDICTED BY IDOCK:  -11.30 KCAL/MOL
REMARK 923 INTER-LIGAND FREE ENERGY PREDICTED BY IDOCK:   -9.59 KCAL/MOL
REMARK 924 INTRA-LIGAND FREE ENERGY PREDICTED BY IDOCK:   -1.71 KCAL/MOL
REMARK 927      BINDING AFFINITY PREDICTED BY RF-SCORE:    0.00 PKD
ROOT
HETATM    1  C   UNL     1      -9.627  13.964  67.252  1.00  0.00    -0.243 C  
HETATM    2  C   UNL     1     -10.411  15.269  67.305  1.00  0.00    -0.275 C  
HETATM    3  C   UNL     1     -10.167  16.099  66.052  1.00  0.00    -0.374 C  
ENDROOT
BRANCH   2   4
HETATM    4  O   UNL     1     -11.820  14.980  67.365  1.00  0.00    -0.309 OA 
BRANCH   4   5
HETATM    5  C   UNL     1     -12.194  13.798  66.795  1.00  0.00    -0.397 C  
HETATM    6  O   UNL     1     -11.999  12.688  67.273  1.00  0.00    -0.424 OA 
BRANCH   5   7
HETATM    7  C   UNL     1     -12.866  14.063  65.471  1.00  0.00    -0.453 C  
BRANCH   7   8
HETATM    8  C   UNL     1     -11.933  13.718  64.309  1.00  0.00    -0.481 C  
BRANCH   8   9
HETATM    9  C   UNL     1     -12.247  12.370  63.666  1.00  0.00    -0.653 C  
BRANCH   9  10
HETATM   10  C   UNL     1     -11.012  11.668  63.175  1.00  0.00    -0.247 C  
HETATM   11  C   UNL     1     -10.075  11.072  63.930  1.00  0.00    -0.414 C  
BRANCH  11  12
HETATM   12  C   UNL     1     -10.069  10.954  65.428  1.00  0.00    -0.336 C  
BRANCH  12  13
HETATM   13  C   UNL     1      -9.244   9.794  66.011  1.00  0.00    -0.226 C  
HETATM   14  C   UNL     1      -7.735  10.048  65.831  1.00  0.00    -0.116 C  
HETATM   15  C   UNL     1      -7.100   9.024  66.752  1.00  0.00    -0.082 C  
HETATM   16  O   UNL     1      -7.360  11.346  66.292  1.00  0.00    -0.329 OA 
HETATM   17  C   UNL     1      -7.981   9.078  67.996  1.00  0.00    -0.101 C  
HETATM   18  H   UNL     1      -6.430  11.502  66.180  1.00  0.00     0.000 HD 
HETATM   19  C   UNL     1      -9.380   9.569  67.538  1.00  0.00    -0.146 C  
HETATM   20  O   UNL     1      -7.447  10.011  68.934  1.00  0.00    -0.076 OA 
HETATM   21  H   UNL     1      -7.996  10.044  69.708  1.00  0.00     0.000 HD 
BRANCH  19  22
HETATM   22  C   UNL     1     -10.476   8.550  67.904  1.00  0.00    -0.262 C  
BRANCH  22  23
HETATM   23  C   UNL     1     -10.523   7.412  66.881  1.00  0.00    -0.379 C  
BRANCH  23  24
HETATM   24  C   UNL     1     -10.793   6.027  67.481  1.00  0.00    -0.302 C  
HETATM   25  O   UNL     1     -10.613   5.019  66.486  1.00  0.00    -0.291 OA 
HETATM   26  H   UNL     1     -10.779   4.161  66.858  1.00  0.00     0.000 HD 
BRANCH  24  27
HETATM   27  C   UNL     1      -9.817   5.714  68.626  1.00  0.00    -0.190 C  
BRANCH  27  28
HETATM   28  C   UNL     1     -10.528   5.362  69.934  1.00  0.00    -0.378 C  
BRANCH  28  29
HETATM   29  C   UNL     1     -10.923   6.587  70.714  1.00  0.00    -0.328 A  
HETATM   30  C   UNL     1      -9.939   7.466  71.185  1.00  0.00    -0.188 A  
HETATM   31  C   UNL     1     -10.298   8.605  71.904  1.00  0.00    -0.405 A  
HETATM   32  C   UNL     1     -11.641   8.870  72.163  1.00  0.00    -0.400 A  
HETATM   33  C   UNL     1     -12.626   7.995  71.706  1.00  0.00    -0.353 A  
HETATM   34  C   UNL     1     -12.268   6.855  70.985  1.00  0.00    -0.427 A  
ENDBRANCH  28  29
ENDBRANCH  27  28
ENDBRANCH  24  27
ENDBRANCH  23  24
ENDBRANCH  22  23
ENDBRANCH  19  22
ENDBRANCH  12  13
ENDBRANCH  11  12
ENDBRANCH   9  10
ENDBRANCH   8   9
ENDBRANCH   7   8
ENDBRANCH   5   7
ENDBRANCH   4   5
ENDBRANCH   2   4
TORSDOF 14
ENDMDL
MODEL      162
REMARK 921   NORMALIZED FREE ENERGY PREDICTED BY IDOCK:   -4.39 KCAL/MOL
REMARK 922        TOTAL FREE ENERGY PREDICTED BY IDOCK:  -11.28 KCAL/MOL
REMARK 923 INTER-LIGAND FREE ENERGY PREDICTED BY IDOCK:  -10.16 KCAL/MOL
REMARK 924 INTRA-LIGAND FREE ENERGY PREDICTED BY IDOCK:   -1.12 KCAL/MOL
REMARK 927      BINDING AFFINITY PREDICTED BY RF-SCORE:    0.00 PKD
ROOT
HETATM    1  C   UNL     1     -10.380   5.590  72.399  1.00  0.00    -0.251 C  
HETATM    2  C   UNL     1      -9.834   6.028  71.045  1.00  0.00    -0.183 C  
HETATM    3  C   UNL     1     -10.273   5.066  69.948  1.00  0.00    -0.340 C  
ENDROOT
BRANCH   2   4
HETATM    4  O   UNL     1     -10.358   7.328  70.715  1.00  0.00    -0.202 OA 
BRANCH   4   5
HETATM    5  C   UNL     1     -11.651   7.545  71.094  1.00  0.00    -0.282 C  
HETATM    6  O   UNL     1     -12.607   6.846  70.781  1.00  0.00    -0.324 OA 
BRANCH   5   7
HETATM    7  C   UNL     1     -11.731   8.791  71.938  1.00  0.00    -0.429 C  
BRANCH   7   8
HETATM    8  C   UNL     1     -11.287  10.018  71.140  1.00  0.00    -0.397 C  
BRANCH   8   9
HETATM    9  C   UNL     1     -12.360  10.537  70.187  1.00  0.00    -0.339 C  
BRANCH   9  10
HETATM   10  C   UNL     1     -12.160  11.983  69.832  1.00  0.00    -0.334 C  
HETATM   11  C   UNL     1     -11.700  12.467  68.665  1.00  0.00    -0.372 C  
BRANCH  11  12
HETATM   12  C   UNL     1     -11.310  11.669  67.454  1.00  0.00    -0.367 C  
BRANCH  12  13
HETATM   13  C   UNL     1     -10.639  12.455  66.315  1.00  0.00    -0.277 C  
HETATM   14  C   UNL     1     -11.432  12.306  65.003  1.00  0.00    -0.336 C  
HETATM   15  C   UNL     1     -10.855  13.397  64.123  1.00  0.00    -0.313 C  
HETATM   16  O   UNL     1     -12.820  12.583  65.192  1.00  0.00    -0.685 OA 
HETATM   17  C   UNL     1     -10.715  14.579  65.077  1.00  0.00    -0.427 C  
HETATM   18  H   UNL     1     -13.310  12.490  64.382  1.00  0.00     0.000 HD 
HETATM   19  C   UNL     1     -10.566  13.992  66.506  1.00  0.00    -0.279 C  
HETATM   20  O   UNL     1     -11.888  15.389  65.029  1.00  0.00    -0.170 OA 
HETATM   21  H   UNL     1     -11.801  16.125  65.623  1.00  0.00     0.000 HD 
BRANCH  19  22
HETATM   22  C   UNL     1      -9.256  14.458  67.167  1.00  0.00    -0.230 C  
BRANCH  22  23
HETATM   23  C   UNL     1      -9.541  15.181  68.486  1.00  0.00    -0.214 C  
BRANCH  23  24
HETATM   24  C   UNL     1     -10.765  16.104  68.454  1.00  0.00    -0.298 C  
HETATM   25  O   UNL     1     -11.097  16.522  69.779  1.00  0.00    -0.337 OA 
HETATM   26  H   UNL     1     -11.855  17.094  69.759  1.00  0.00     0.000 HD 
BRANCH  24  27
HETATM   27  C   UNL     1     -10.488  17.374  67.634  1.00  0.00    -0.368 C  
BRANCH  27  28
HETATM   28  C   UNL     1     -10.254  18.607  68.508  1.00  0.00    -0.398 C  
BRANCH  28  29
HETATM   29  C   UNL     1      -8.921  19.251  68.239  1.00  0.00    -0.381 A  
HETATM   30  C   UNL     1      -7.773  18.788  68.895  1.00  0.00    -0.298 A  
HETATM   31  C   UNL     1      -6.534  19.377  68.648  1.00  0.00    -0.293 A  
HETATM   32  C   UNL     1      -6.434  20.436  67.748  1.00  0.00    -0.302 A  
HETATM   33  C   UNL     1      -7.574  20.909  67.098  1.00  0.00    -0.295 A  
HETATM   34  C   UNL     1      -8.815  20.320  67.344  1.00  0.00    -0.442 A  
ENDBRANCH  28  29
ENDBRANCH  27  28
ENDBRANCH  24  27
ENDBRANCH  23  24
ENDBRANCH  22  23
ENDBRANCH  19  22
ENDBRANCH  12  13
ENDBRANCH  11  12
ENDBRANCH   9  10
ENDBRANCH   8   9
ENDBRANCH   7   8
ENDBRANCH   5   7
ENDBRANCH   4   5
ENDBRANCH   2   4
TORSDOF 14
ENDMDL
MODEL      163
REMARK 921   NORMALIZED FREE ENERGY PREDICTED BY IDOCK:   -4.39 KCAL/MOL
REMARK 922        TOTAL FREE ENERGY PREDICTED BY IDOCK:  -11.28 KCAL/MOL
REMARK 923 INTER-LIGAND FREE ENERGY PREDICTED BY IDOCK:   -8.53 KCAL/MOL
REMARK 924 INTRA-LIGAND FREE ENERGY PREDICTED BY IDOCK:   -2.75 KCAL/MOL
REMARK 927      BINDING AFFINITY PREDICTED BY RF-SCORE:    0.00 PKD
ROOT
HETATM    1  C   UNL     1      -9.694  13.886  66.666  1.00  0.00    -0.295 C  
HETATM    2  C   UNL     1     -10.965  13.062  66.493  1.00  0.00    -0.285 C  
HETATM    3  C   UNL     1     -11.814  13.106  67.757  1.00  0.00    -0.392 C  
ENDROOT
BRANCH   2   4
HETATM    4  O   UNL     1     -11.753  13.615  65.423  1.00  0.00    -0.316 OA 
BRANCH   4   5
HETATM    5  C   UNL     1     -11.787  12.867  64.282  1.00  0.00    -0.395 C  
HETATM    6  O   UNL     1     -12.779  12.304  63.835  1.00  0.00    -0.668 OA 
BRANCH   5   7
HETATM    7  C   UNL     1     -10.413  12.819  63.664  1.00  0.00    -0.239 C  
BRANCH   7   8
HETATM    8  C   UNL     1     -10.073  11.400  63.205  1.00  0.00    -0.424 C  
BRANCH   8   9
HETATM    9  C   UNL     1      -9.930  10.413  64.361  1.00  0.00    -0.388 C  
BRANCH   9  10
HETATM   10  C   UNL     1      -8.564   9.789  64.415  1.00  0.00    -0.202 C  
HETATM   11  C   UNL     1      -7.681   9.878  65.424  1.00  0.00    -0.130 C  
BRANCH  11  12
HETATM   12  C   UNL     1      -7.876  10.598  66.727  1.00  0.00    -0.126 C  
BRANCH  12  13
HETATM   13  C   UNL     1      -8.513   9.779  67.863  1.00  0.00    -0.125 C  
HETATM   14  C   UNL     1      -7.844  10.099  69.213  1.00  0.00    -0.134 C  
HETATM   15  C   UNL     1      -8.804   9.503  70.225  1.00  0.00    -0.281 C  
HETATM   16  O   UNL     1      -7.778  11.506  69.448  1.00  0.00    -0.359 OA 
HETATM   17  C   UNL     1     -10.174   9.883  69.673  1.00  0.00    -0.237 C  
HETATM   18  H   UNL     1      -7.365  11.703  70.281  1.00  0.00     0.000 HD 
HETATM   19  C   UNL     1     -10.012  10.060  68.140  1.00  0.00    -0.176 C  
HETATM   20  O   UNL     1     -10.606  11.119  70.239  1.00  0.00    -0.314 OA 
HETATM   21  H   UNL     1     -11.459  11.355  69.895  1.00  0.00     0.000 HD 
BRANCH  19  22
HETATM   22  C   UNL     1     -10.957   9.122  67.366  1.00  0.00     0.009 C  
BRANCH  22  23
HETATM   23  C   UNL     1     -10.240   7.824  66.983  1.00  0.00    -0.375 C  
BRANCH  23  24
HETATM   24  C   UNL     1     -11.002   6.545  67.350  1.00  0.00    -0.378 C  
HETATM   25  O   UNL     1     -10.240   5.398  66.973  1.00  0.00    -0.184 OA 
HETATM   26  H   UNL     1     -10.712   4.605  67.201  1.00  0.00     0.000 HD 
BRANCH  24  27
HETATM   27  C   UNL     1     -11.243   6.452  68.865  1.00  0.00    -0.385 C  
BRANCH  27  28
HETATM   28  C   UNL     1      -9.983   6.079  69.646  1.00  0.00    -0.217 C  
BRANCH  28  29
HETATM   29  C   UNL     1     -10.288   5.221  70.844  1.00  0.00    -0.303 A  
HETATM   30  C   UNL     1      -9.903   3.874  70.859  1.00  0.00    -0.213 A  
HETATM   31  C   UNL     1     -10.178   3.074  71.967  1.00  0.00    -0.108 A  
HETATM   32  C   UNL     1     -10.845   3.613  73.065  1.00  0.00    -0.206 A  
HETATM   33  C   UNL     1     -11.241   4.950  73.055  1.00  0.00    -0.367 A  
HETATM   34  C   UNL     1     -10.966   5.752  71.946  1.00  0.00    -0.318 A  
ENDBRANCH  28  29
ENDBRANCH  27  28
ENDBRANCH  24  27
ENDBRANCH  23  24
ENDBRANCH  22  23
ENDBRANCH  19  22
ENDBRANCH  12  13
ENDBRANCH  11  12
ENDBRANCH   9  10
ENDBRANCH   8   9
ENDBRANCH   7   8
ENDBRANCH   5   7
ENDBRANCH   4   5
ENDBRANCH   2   4
TORSDOF 14
ENDMDL
MODEL      164
REMARK 921   NORMALIZED FREE ENERGY PREDICTED BY IDOCK:   -4.38 KCAL/MOL
REMARK 922        TOTAL FREE ENERGY PREDICTED BY IDOCK:  -11.26 KCAL/MOL
REMARK 923 INTER-LIGAND FREE ENERGY PREDICTED BY IDOCK:   -9.47 KCAL/MOL
REMARK 924 INTRA-LIGAND FREE ENERGY PREDICTED BY IDOCK:   -1.79 KCAL/MOL
REMARK 927      BINDING AFFINITY PREDICTED BY RF-SCORE:    0.00 PKD
ROOT
HETATM    1  C   UNL     1      -7.268  18.995  67.914  1.00  0.00    -0.261 C  
HETATM    2  C   UNL     1      -7.741  19.707  66.651  1.00  0.00    -0.276 C  
HETATM    3  C   UNL     1      -6.565  20.019  65.734  1.00  0.00    -0.268 C  
ENDROOT
BRANCH   2   4
HETATM    4  O   UNL     1      -8.640  18.849  65.925  1.00  0.00    -0.471 OA 
BRANCH   4   5
HETATM    5  C   UNL     1      -9.948  18.924  66.307  1.00  0.00    -0.388 C  
HETATM    6  O   UNL     1     -10.656  19.920  66.217  1.00  0.00    -0.467 OA 
BRANCH   5   7
HETATM    7  C   UNL     1     -10.387  17.601  66.880  1.00  0.00    -0.329 C  
BRANCH   7   8
HETATM    8  C   UNL     1     -10.087  16.460  65.906  1.00  0.00    -0.370 C  
BRANCH   8   9
HETATM    9  C   UNL     1      -8.964  15.543  66.383  1.00  0.00    -0.359 C  
BRANCH   9  10
HETATM   10  C   UNL     1      -8.837  15.524  67.880  1.00  0.00    -0.171 C  
HETATM   11  C   UNL     1      -8.626  14.446  68.654  1.00  0.00    -0.161 C  
BRANCH  11  12
HETATM   12  C   UNL     1      -8.447  13.029  68.190  1.00  0.00    -0.176 C  
BRANCH  12  13
HETATM   13  C   UNL     1      -9.681  12.364  67.556  1.00  0.00    -0.191 C  
HETATM   14  C   UNL     1      -9.288  11.555  66.306  1.00  0.00    -0.213 C  
HETATM   15  C   UNL     1     -10.519  10.708  66.040  1.00  0.00    -0.250 C  
HETATM   16  O   UNL     1      -8.198  10.672  66.571  1.00  0.00    -0.128 OA 
HETATM   17  C   UNL     1     -10.938  10.254  67.434  1.00  0.00    -0.252 C  
HETATM   18  H   UNL     1      -7.955  10.173  65.799  1.00  0.00     0.000 HD 
HETATM   19  C   UNL     1     -10.412  11.317  68.435  1.00  0.00    -0.219 C  
HETATM   20  O   UNL     1     -10.341   8.995  67.740  1.00  0.00    -0.219 OA 
HETATM   21  H   UNL     1     -10.602   8.713  68.608  1.00  0.00     0.000 HD 
BRANCH  19  22
HETATM   22  C   UNL     1     -11.561  11.920  69.264  1.00  0.00    -0.376 C  
BRANCH  22  23
HETATM   23  C   UNL     1     -12.401  10.815  69.912  1.00  0.00    -0.340 C  
BRANCH  23  24
HETATM   24  C   UNL     1     -12.137  10.611  71.409  1.00  0.00    -0.242 C  
HETATM   25  O   UNL     1     -13.372  10.598  72.125  1.00  0.00    -0.574 OA 
HETATM   26  H   UNL     1     -13.208  10.471  73.052  1.00  0.00     0.000 HD 
BRANCH  24  27
HETATM   27  C   UNL     1     -11.442   9.267  71.677  1.00  0.00    -0.468 C  
BRANCH  27  28
HETATM   28  C   UNL     1     -12.345   8.065  71.395  1.00  0.00    -0.328 C  
BRANCH  28  29
HETATM   29  C   UNL     1     -11.560   6.795  71.207  1.00  0.00    -0.366 A  
HETATM   30  C   UNL     1     -11.168   6.397  69.922  1.00  0.00    -0.485 A  
HETATM   31  C   UNL     1     -10.436   5.224  69.740  1.00  0.00    -0.340 A  
HETATM   32  C   UNL     1     -10.096   4.439  70.839  1.00  0.00    -0.199 A  
HETATM   33  C   UNL     1     -10.490   4.823  72.120  1.00  0.00    -0.243 A  
HETATM   34  C   UNL     1     -11.222   5.997  72.304  1.00  0.00    -0.341 A  
ENDBRANCH  28  29
ENDBRANCH  27  28
ENDBRANCH  24  27
ENDBRANCH  23  24
ENDBRANCH  22  23
ENDBRANCH  19  22
ENDBRANCH  12  13
ENDBRANCH  11  12
ENDBRANCH   9  10
ENDBRANCH   8   9
ENDBRANCH   7   8
ENDBRANCH   5   7
ENDBRANCH   4   5
ENDBRANCH   2   4
TORSDOF 14
ENDMDL
MODEL      165
REMARK 921   NORMALIZED FREE ENERGY PREDICTED BY IDOCK:   -4.37 KCAL/MOL
REMARK 922        TOTAL FREE ENERGY PREDICTED BY IDOCK:  -11.23 KCAL/MOL
REMARK 923 INTER-LIGAND FREE ENERGY PREDICTED BY IDOCK:   -8.41 KCAL/MOL
REMARK 924 INTRA-LIGAND FREE ENERGY PREDICTED BY IDOCK:   -2.82 KCAL/MOL
REMARK 927      BINDING AFFINITY PREDICTED BY RF-SCORE:    0.00 PKD
ROOT
HETATM    1  C   UNL     1      -7.701  15.776  69.244  1.00  0.00    -0.224 C  
HETATM    2  C   UNL     1      -6.793  15.591  68.034  1.00  0.00    -0.136 C  
HETATM    3  C   UNL     1      -6.750  14.129  67.609  1.00  0.00    -0.188 C  
ENDROOT
BRANCH   2   4
HETATM    4  O   UNL     1      -7.310  16.349  66.926  1.00  0.00    -0.193 OA 
BRANCH   4   5
HETATM    5  C   UNL     1      -6.984  17.674  66.927  1.00  0.00    -0.185 C  
HETATM    6  O   UNL     1      -5.909  18.138  67.284  1.00  0.00    -0.136 OA 
BRANCH   5   7
HETATM    7  C   UNL     1      -8.158  18.487  66.443  1.00  0.00    -0.295 C  
BRANCH   7   8
HETATM    8  C   UNL     1      -9.006  18.973  67.620  1.00  0.00    -0.322 C  
BRANCH   8   9
HETATM    9  C   UNL     1     -10.482  18.606  67.490  1.00  0.00    -0.473 C  
BRANCH   9  10
HETATM   10  C   UNL     1     -10.862  17.444  68.364  1.00  0.00    -0.234 C  
HETATM   11  C   UNL     1     -11.048  16.172  67.972  1.00  0.00    -0.317 C  
BRANCH  11  12
HETATM   12  C   UNL     1     -10.892  15.629  66.580  1.00  0.00    -0.266 C  
BRANCH  12  13
HETATM   13  C   UNL     1     -11.466  14.223  66.335  1.00  0.00    -0.361 C  
HETATM   14  C   UNL     1     -12.392  14.215  65.105  1.00  0.00    -0.451 C  
HETATM   15  C   UNL     1     -12.565  12.737  64.812  1.00  0.00    -0.518 C  
HETATM   16  O   UNL     1     -11.768  14.817  63.971  1.00  0.00    -0.646 OA 
HETATM   17  C   UNL     1     -11.161  12.175  65.009  1.00  0.00    -0.320 C  
HETATM   18  H   UNL     1     -12.340  14.812  63.212  1.00  0.00     0.000 HD 
HETATM   19  C   UNL     1     -10.430  13.119  66.001  1.00  0.00    -0.291 C  
HETATM   20  O   UNL     1     -10.455  12.170  63.770  1.00  0.00    -0.361 OA 
HETATM   21  H   UNL     1      -9.581  11.820  63.893  1.00  0.00     0.000 HD 
BRANCH  19  22
HETATM   22  C   UNL     1      -9.940  12.353  67.244  1.00  0.00    -0.209 C  
BRANCH  22  23
HETATM   23  C   UNL     1     -10.883  12.580  68.429  1.00  0.00    -0.266 C  
BRANCH  23  24
HETATM   24  C   UNL     1     -11.218  11.313  69.226  1.00  0.00    -0.272 C  
HETATM   25  O   UNL     1     -12.486  10.800  68.818  1.00  0.00    -0.793 OA 
HETATM   26  H   UNL     1     -12.694  10.015  69.311  1.00  0.00     0.000 HD 
BRANCH  24  27
HETATM   27  C   UNL     1     -10.181  10.207  68.981  1.00  0.00    -0.221 C  
BRANCH  27  28
HETATM   28  C   UNL     1      -9.552   9.684  70.273  1.00  0.00    -0.307 C  
BRANCH  28  29
HETATM   29  C   UNL     1      -8.079   9.418  70.123  1.00  0.00    -0.167 A  
HETATM   30  C   UNL     1      -7.472   8.392  70.860  1.00  0.00    -0.066 A  
HETATM   31  C   UNL     1      -6.109   8.137  70.722  1.00  0.00    -0.033 A  
HETATM   32  C   UNL     1      -5.341   8.908  69.852  1.00  0.00    -0.029 A  
HETATM   33  C   UNL     1      -5.935   9.937  69.122  1.00  0.00    -0.034 A  
HETATM   34  C   UNL     1      -7.300  10.194  69.258  1.00  0.00    -0.098 A  
ENDBRANCH  28  29
ENDBRANCH  27  28
ENDBRANCH  24  27
ENDBRANCH  23  24
ENDBRANCH  22  23
ENDBRANCH  19  22
ENDBRANCH  12  13
ENDBRANCH  11  12
ENDBRANCH   9  10
ENDBRANCH   8   9
ENDBRANCH   7   8
ENDBRANCH   5   7
ENDBRANCH   4   5
ENDBRANCH   2   4
TORSDOF 14
ENDMDL
MODEL      166
REMARK 921   NORMALIZED FREE ENERGY PREDICTED BY IDOCK:   -4.37 KCAL/MOL
REMARK 922        TOTAL FREE ENERGY PREDICTED BY IDOCK:  -11.23 KCAL/MOL
REMARK 923 INTER-LIGAND FREE ENERGY PREDICTED BY IDOCK:   -8.30 KCAL/MOL
REMARK 924 INTRA-LIGAND FREE ENERGY PREDICTED BY IDOCK:   -2.93 KCAL/MOL
REMARK 927      BINDING AFFINITY PREDICTED BY RF-SCORE:    0.00 PKD
ROOT
HETATM    1  C   UNL     1     -10.167  13.537  66.295  1.00  0.00    -0.299 C  
HETATM    2  C   UNL     1     -11.271  12.709  65.647  1.00  0.00    -0.309 C  
HETATM    3  C   UNL     1     -10.722  11.385  65.132  1.00  0.00    -0.332 C  
ENDROOT
BRANCH   2   4
HETATM    4  O   UNL     1     -12.281  12.407  66.628  1.00  0.00    -0.562 OA 
BRANCH   4   5
HETATM    5  C   UNL     1     -11.850  12.403  67.922  1.00  0.00    -0.308 C  
HETATM    6  O   UNL     1     -11.694  13.398  68.619  1.00  0.00    -0.305 OA 
BRANCH   5   7
HETATM    7  C   UNL     1     -11.572  10.988  68.361  1.00  0.00    -0.372 C  
BRANCH   7   8
HETATM    8  C   UNL     1     -11.872  10.812  69.851  1.00  0.00    -0.413 C  
BRANCH   8   9
HETATM    9  C   UNL     1     -11.639   9.386  70.345  1.00  0.00    -0.241 C  
BRANCH   9  10
HETATM   10  C   UNL     1     -10.687   9.332  71.507  1.00  0.00    -0.425 C  
HETATM   11  C   UNL     1      -9.397   8.959  71.470  1.00  0.00    -0.335 C  
BRANCH  11  12
HETATM   12  C   UNL     1      -8.618   8.541  70.256  1.00  0.00    -0.137 C  
BRANCH  12  13
HETATM   13  C   UNL     1      -8.492   9.591  69.139  1.00  0.00    -0.131 C  
HETATM   14  C   UNL     1      -7.401  10.624  69.476  1.00  0.00    -0.141 C  
HETATM   15  C   UNL     1      -7.174  11.332  68.154  1.00  0.00    -0.081 C  
HETATM   16  O   UNL     1      -6.176   9.994  69.852  1.00  0.00    -0.047 OA 
HETATM   17  C   UNL     1      -7.193  10.194  67.140  1.00  0.00    -0.090 C  
HETATM   18  H   UNL     1      -5.504  10.632  70.061  1.00  0.00     0.000 HD 
HETATM   19  C   UNL     1      -8.049   9.054  67.754  1.00  0.00    -0.109 C  
HETATM   20  O   UNL     1      -5.869   9.711  66.920  1.00  0.00    -0.050 OA 
HETATM   21  H   UNL     1      -5.881   9.002  66.288  1.00  0.00     0.000 HD 
BRANCH  19  22
HETATM   22  C   UNL     1      -9.232   8.690  66.839  1.00  0.00    -0.198 C  
BRANCH  22  23
HETATM   23  C   UNL     1      -9.475   7.178  66.840  1.00  0.00    -0.200 C  
BRANCH  23  24
HETATM   24  C   UNL     1     -10.939   6.769  67.043  1.00  0.00    -0.368 C  
HETATM   25  O   UNL     1     -11.264   5.674  66.187  1.00  0.00    -0.763 OA 
HETATM   26  H   UNL     1     -12.171   5.421  66.313  1.00  0.00     0.000 HD 
BRANCH  24  27
HETATM   27  C   UNL     1     -11.198   6.309  68.486  1.00  0.00    -0.305 C  
BRANCH  27  28
HETATM   28  C   UNL     1     -10.090   5.408  69.030  1.00  0.00    -0.283 C  
BRANCH  28  29
HETATM   29  C   UNL     1     -10.145   5.278  70.528  1.00  0.00    -0.315 A  
HETATM   30  C   UNL     1      -9.163   4.543  71.206  1.00  0.00    -0.195 A  
HETATM   31  C   UNL     1      -9.204   4.423  72.594  1.00  0.00    -0.146 A  
HETATM   32  C   UNL     1     -10.230   5.031  73.314  1.00  0.00    -0.209 A  
HETATM   33  C   UNL     1     -11.218   5.756  72.647  1.00  0.00    -0.348 A  
HETATM   34  C   UNL     1     -11.177   5.877  71.258  1.00  0.00    -0.280 A  
ENDBRANCH  28  29
ENDBRANCH  27  28
ENDBRANCH  24  27
ENDBRANCH  23  24
ENDBRANCH  22  23
ENDBRANCH  19  22
ENDBRANCH  12  13
ENDBRANCH  11  12
ENDBRANCH   9  10
ENDBRANCH   8   9
ENDBRANCH   7   8
ENDBRANCH   5   7
ENDBRANCH   4   5
ENDBRANCH   2   4
TORSDOF 14
ENDMDL
MODEL      167
REMARK 921   NORMALIZED FREE ENERGY PREDICTED BY IDOCK:   -4.36 KCAL/MOL
REMARK 922        TOTAL FREE ENERGY PREDICTED BY IDOCK:  -11.22 KCAL/MOL
REMARK 923 INTER-LIGAND FREE ENERGY PREDICTED BY IDOCK:   -8.42 KCAL/MOL
REMARK 924 INTRA-LIGAND FREE ENERGY PREDICTED BY IDOCK:   -2.80 KCAL/MOL
REMARK 927      BINDING AFFINITY PREDICTED BY RF-SCORE:    0.00 PKD
ROOT
HETATM    1  C   UNL     1     -13.035  10.882  71.552  1.00  0.00    -0.556 C  
HETATM    2  C   UNL     1     -12.870   9.478  72.121  1.00  0.00    -0.389 C  
HETATM    3  C   UNL     1     -14.118   8.642  71.871  1.00  0.00    -0.512 C  
ENDROOT
BRANCH   2   4
HETATM    4  O   UNL     1     -11.770   8.821  71.465  1.00  0.00    -0.271 OA 
BRANCH   4   5
HETATM    5  C   UNL     1     -11.448   7.592  71.962  1.00  0.00    -0.279 C  
HETATM    6  O   UNL     1     -11.839   6.522  71.512  1.00  0.00    -0.314 OA 
BRANCH   5   7
HETATM    7  C   UNL     1     -10.555   7.748  73.166  1.00  0.00    -0.415 C  
BRANCH   7   8
HETATM    8  C   UNL     1      -9.082   7.748  72.754  1.00  0.00    -0.242 C  
BRANCH   8   9
HETATM    9  C   UNL     1      -8.469   6.350  72.717  1.00  0.00    -0.121 C  
BRANCH   9  10
HETATM   10  C   UNL     1      -7.381   6.229  71.687  1.00  0.00    -0.089 C  
HETATM   11  C   UNL     1      -7.530   5.869  70.401  1.00  0.00    -0.089 C  
BRANCH  11  12
HETATM   12  C   UNL     1      -8.818   5.534  69.706  1.00  0.00    -0.129 C  
BRANCH  12  13
HETATM   13  C   UNL     1      -9.078   6.264  68.377  1.00  0.00    -0.114 C  
HETATM   14  C   UNL     1     -10.496   5.966  67.855  1.00  0.00    -0.236 C  
HETATM   15  C   UNL     1     -10.696   7.016  66.778  1.00  0.00    -0.282 C  
HETATM   16  O   UNL     1     -11.484   6.178  68.863  1.00  0.00    -0.439 OA 
HETATM   17  C   UNL     1     -10.106   8.275  67.403  1.00  0.00    -0.233 C  
HETATM   18  H   UNL     1     -12.359   5.993  68.540  1.00  0.00     0.000 HD 
HETATM   19  C   UNL     1      -9.047   7.813  68.440  1.00  0.00    -0.131 C  
HETATM   20  O   UNL     1     -11.124   9.011  68.078  1.00  0.00    -0.489 OA 
HETATM   21  H   UNL     1     -10.756   9.795  68.468  1.00  0.00     0.000 HD 
BRANCH  19  22
HETATM   22  C   UNL     1      -7.660   8.404  68.123  1.00  0.00    -0.098 C  
BRANCH  22  23
HETATM   23  C   UNL     1      -7.176   9.297  69.268  1.00  0.00    -0.065 C  
BRANCH  23  24
HETATM   24  C   UNL     1      -7.831  10.683  69.314  1.00  0.00    -0.138 C  
HETATM   25  O   UNL     1      -6.968  11.610  69.973  1.00  0.00    -0.381 OA 
HETATM   26  H   UNL     1      -7.373  12.468  70.001  1.00  0.00     0.000 HD 
BRANCH  24  27
HETATM   27  C   UNL     1      -8.088  11.228  67.901  1.00  0.00    -0.121 C  
BRANCH  27  28
HETATM   28  C   UNL     1      -9.298  12.160  67.833  1.00  0.00    -0.192 C  
BRANCH  28  29
HETATM   29  C   UNL     1     -10.047  12.029  66.535  1.00  0.00    -0.224 A  
HETATM   30  C   UNL     1     -11.197  12.795  66.308  1.00  0.00    -0.339 A  
HETATM   31  C   UNL     1     -11.893  12.683  65.105  1.00  0.00    -0.437 A  
HETATM   32  C   UNL     1     -11.448  11.800  64.123  1.00  0.00    -0.409 A  
HETATM   33  C   UNL     1     -10.309  11.026  64.345  1.00  0.00    -0.424 A  
HETATM   34  C   UNL     1      -9.611  11.138  65.548  1.00  0.00    -0.263 A  
ENDBRANCH  28  29
ENDBRANCH  27  28
ENDBRANCH  24  27
ENDBRANCH  23  24
ENDBRANCH  22  23
ENDBRANCH  19  22
ENDBRANCH  12  13
ENDBRANCH  11  12
ENDBRANCH   9  10
ENDBRANCH   8   9
ENDBRANCH   7   8
ENDBRANCH   5   7
ENDBRANCH   4   5
ENDBRANCH   2   4
TORSDOF 14
ENDMDL
MODEL      168
REMARK 921   NORMALIZED FREE ENERGY PREDICTED BY IDOCK:   -4.35 KCAL/MOL
REMARK 922        TOTAL FREE ENERGY PREDICTED BY IDOCK:  -11.20 KCAL/MOL
REMARK 923 INTER-LIGAND FREE ENERGY PREDICTED BY IDOCK:   -8.48 KCAL/MOL
REMARK 924 INTRA-LIGAND FREE ENERGY PREDICTED BY IDOCK:   -2.72 KCAL/MOL
REMARK 927      BINDING AFFINITY PREDICTED BY RF-SCORE:    0.00 PKD
ROOT
HETATM    1  C   UNL     1     -10.943  16.153  70.212  1.00  0.00    -0.345 C  
HETATM    2  C   UNL     1     -11.473  15.169  71.248  1.00  0.00    -0.349 C  
HETATM    3  C   UNL     1     -12.020  15.906  72.463  1.00  0.00    -0.622 C  
ENDROOT
BRANCH   2   4
HETATM    4  O   UNL     1     -12.554  14.409  70.679  1.00  0.00    -0.325 OA 
BRANCH   4   5
HETATM    5  C   UNL     1     -12.643  13.116  71.108  1.00  0.00    -0.314 C  
HETATM    6  O   UNL     1     -13.270  12.738  72.089  1.00  0.00    -0.475 OA 
BRANCH   5   7
HETATM    7  C   UNL     1     -11.834  12.224  70.202  1.00  0.00    -0.352 C  
BRANCH   7   8
HETATM    8  C   UNL     1     -11.669  12.858  68.819  1.00  0.00    -0.363 C  
BRANCH   8   9
HETATM    9  C   UNL     1     -11.740  11.843  67.681  1.00  0.00    -0.346 C  
BRANCH   9  10
HETATM   10  C   UNL     1     -11.395  10.452  68.132  1.00  0.00    -0.284 C  
HETATM   11  C   UNL     1     -10.666   9.547  67.457  1.00  0.00    -0.311 C  
BRANCH  11  12
HETATM   12  C   UNL     1     -10.018   9.736  66.116  1.00  0.00    -0.338 C  
BRANCH  12  13
HETATM   13  C   UNL     1      -8.557   9.267  66.000  1.00  0.00    -0.158 C  
HETATM   14  C   UNL     1      -8.370   8.350  64.777  1.00  0.00    -0.141 C  
HETATM   15  C   UNL     1      -6.863   8.287  64.619  1.00  0.00    -0.068 C  
HETATM   16  O   UNL     1      -8.911   8.934  63.592  1.00  0.00    -0.429 OA 
HETATM   17  C   UNL     1      -6.425   9.728  64.864  1.00  0.00    -0.100 C  
HETATM   18  H   UNL     1      -8.796   8.368  62.838  1.00  0.00     0.000 HD 
HETATM   19  C   UNL     1      -7.506  10.382  65.765  1.00  0.00    -0.147 C  
HETATM   20  O   UNL     1      -6.360  10.438  63.629  1.00  0.00    -0.240 OA 
HETATM   21  H   UNL     1      -6.087  11.335  63.782  1.00  0.00     0.000 HD 
BRANCH  19  22
HETATM   22  C   UNL     1      -6.893  10.921  67.071  1.00  0.00    -0.100 C  
BRANCH  22  23
HETATM   23  C   UNL     1      -6.817   9.818  68.131  1.00  0.00    -0.069 C  
BRANCH  23  24
HETATM   24  C   UNL     1      -7.413  10.201  69.490  1.00  0.00    -0.133 C  
HETATM   25  O   UNL     1      -8.378  11.241  69.325  1.00  0.00    -0.375 OA 
HETATM   26  H   UNL     1      -8.748  11.478  70.167  1.00  0.00     0.000 HD 
BRANCH  24  27
HETATM   27  C   UNL     1      -8.136   9.012  70.141  1.00  0.00    -0.128 C  
BRANCH  27  28
HETATM   28  C   UNL     1      -9.435   9.414  70.838  1.00  0.00    -0.279 C  
BRANCH  28  29
HETATM   29  C   UNL     1     -10.229   8.220  71.297  1.00  0.00    -0.253 A  
HETATM   30  C   UNL     1     -11.546   8.041  70.854  1.00  0.00    -0.284 A  
HETATM   31  C   UNL     1     -12.285   6.935  71.270  1.00  0.00    -0.427 A  
HETATM   32  C   UNL     1     -11.716   6.004  72.136  1.00  0.00    -0.335 A  
HETATM   33  C   UNL     1     -10.409   6.179  72.589  1.00  0.00    -0.219 A  
HETATM   34  C   UNL     1      -9.668   7.286  72.173  1.00  0.00    -0.177 A  
ENDBRANCH  28  29
ENDBRANCH  27  28
ENDBRANCH  24  27
ENDBRANCH  23  24
ENDBRANCH  22  23
ENDBRANCH  19  22
ENDBRANCH  12  13
ENDBRANCH  11  12
ENDBRANCH   9  10
ENDBRANCH   8   9
ENDBRANCH   7   8
ENDBRANCH   5   7
ENDBRANCH   4   5
ENDBRANCH   2   4
TORSDOF 14
ENDMDL
MODEL      169
REMARK 921   NORMALIZED FREE ENERGY PREDICTED BY IDOCK:   -4.34 KCAL/MOL
REMARK 922        TOTAL FREE ENERGY PREDICTED BY IDOCK:  -11.19 KCAL/MOL
REMARK 923 INTER-LIGAND FREE ENERGY PREDICTED BY IDOCK:   -9.26 KCAL/MOL
REMARK 924 INTRA-LIGAND FREE ENERGY PREDICTED BY IDOCK:   -1.94 KCAL/MOL
REMARK 927      BINDING AFFINITY PREDICTED BY RF-SCORE:    0.00 PKD
ROOT
HETATM    1  C   UNL     1     -10.570  17.609  67.800  1.00  0.00    -0.380 C  
HETATM    2  C   UNL     1     -10.660  17.932  66.313  1.00  0.00    -0.240 C  
HETATM    3  C   UNL     1      -9.945  19.240  65.999  1.00  0.00    -0.403 C  
ENDROOT
BRANCH   2   4
HETATM    4  O   UNL     1     -10.011  16.892  65.557  1.00  0.00    -0.572 OA 
BRANCH   4   5
HETATM    5  C   UNL     1     -10.835  16.163  64.750  1.00  0.00    -0.262 C  
HETATM    6  O   UNL     1     -11.662  16.628  63.976  1.00  0.00    -1.143 OA 
BRANCH   5   7
HETATM    7  C   UNL     1     -10.590  14.692  64.970  1.00  0.00    -0.461 C  
BRANCH   7   8
HETATM    8  C   UNL     1     -11.766  14.048  65.707  1.00  0.00    -0.368 C  
BRANCH   8   9
HETATM    9  C   UNL     1     -11.854  14.461  67.174  1.00  0.00    -0.437 C  
BRANCH   9  10
HETATM   10  C   UNL     1     -12.071  13.288  68.087  1.00  0.00    -0.248 C  
HETATM   11  C   UNL     1     -11.347  12.157  68.126  1.00  0.00    -0.349 C  
BRANCH  11  12
HETATM   12  C   UNL     1     -10.147  11.830  67.284  1.00  0.00    -0.211 C  
BRANCH  12  13
HETATM   13  C   UNL     1      -9.897  10.335  67.017  1.00  0.00    -0.238 C  
HETATM   14  C   UNL     1      -9.684  10.074  65.514  1.00  0.00    -0.289 C  
HETATM   15  C   UNL     1      -9.111   8.670  65.485  1.00  0.00    -0.190 C  
HETATM   16  O   UNL     1      -8.709  10.957  64.958  1.00  0.00    -0.277 OA 
HETATM   17  C   UNL     1      -8.126   8.670  66.649  1.00  0.00    -0.100 C  
HETATM   18  H   UNL     1      -8.578  10.796  64.031  1.00  0.00     0.000 HD 
HETATM   19  C   UNL     1      -8.620   9.738  67.660  1.00  0.00    -0.125 C  
HETATM   20  O   UNL     1      -6.825   9.033  66.190  1.00  0.00    -0.078 OA 
HETATM   21  H   UNL     1      -6.211   9.033  66.916  1.00  0.00     0.000 HD 
BRANCH  19  22
HETATM   22  C   UNL     1      -8.873   9.119  69.047  1.00  0.00    -0.139 C  
BRANCH  22  23
HETATM   23  C   UNL     1     -10.373   8.940  69.296  1.00  0.00    -0.221 C  
BRANCH  23  24
HETATM   24  C   UNL     1     -10.720   7.894  70.362  1.00  0.00    -0.233 C  
HETATM   25  O   UNL     1     -12.092   8.016  70.738  1.00  0.00    -0.474 OA 
HETATM   26  H   UNL     1     -12.308   7.368  71.398  1.00  0.00     0.000 HD 
BRANCH  24  27
HETATM   27  C   UNL     1     -10.521   6.466  69.832  1.00  0.00    -0.265 C  
BRANCH  27  28
HETATM   28  C   UNL     1     -11.040   6.283  68.405  1.00  0.00    -0.371 C  
BRANCH  28  29
HETATM   29  C   UNL     1     -10.234   5.277  67.630  1.00  0.00    -0.223 A  
HETATM   30  C   UNL     1     -10.499   5.062  66.271  1.00  0.00    -0.352 A  
HETATM   31  C   UNL     1      -9.753   4.134  65.546  1.00  0.00    -0.202 A  
HETATM   32  C   UNL     1      -8.741   3.411  66.174  1.00  0.00    -0.126 A  
HETATM   33  C   UNL     1      -8.477   3.611  67.528  1.00  0.00    -0.104 A  
HETATM   34  C   UNL     1      -9.223   4.540  68.256  1.00  0.00    -0.174 A  
ENDBRANCH  28  29
ENDBRANCH  27  28
ENDBRANCH  24  27
ENDBRANCH  23  24
ENDBRANCH  22  23
ENDBRANCH  19  22
ENDBRANCH  12  13
ENDBRANCH  11  12
ENDBRANCH   9  10
ENDBRANCH   8   9
ENDBRANCH   7   8
ENDBRANCH   5   7
ENDBRANCH   4   5
ENDBRANCH   2   4
TORSDOF 14
ENDMDL
MODEL      170
REMARK 921   NORMALIZED FREE ENERGY PREDICTED BY IDOCK:   -4.34 KCAL/MOL
REMARK 922        TOTAL FREE ENERGY PREDICTED BY IDOCK:  -11.18 KCAL/MOL
REMARK 923 INTER-LIGAND FREE ENERGY PREDICTED BY IDOCK:   -7.97 KCAL/MOL
REMARK 924 INTRA-LIGAND FREE ENERGY PREDICTED BY IDOCK:   -3.21 KCAL/MOL
REMARK 927      BINDING AFFINITY PREDICTED BY RF-SCORE:    0.00 PKD
ROOT
HETATM    1  C   UNL     1      -6.756  12.199  69.169  1.00  0.00    -0.100 C  
HETATM    2  C   UNL     1      -7.642  13.012  68.232  1.00  0.00    -0.135 C  
HETATM    3  C   UNL     1      -6.886  14.212  67.678  1.00  0.00    -0.196 C  
ENDROOT
BRANCH   2   4
HETATM    4  O   UNL     1      -8.036  12.194  67.115  1.00  0.00    -0.167 OA 
BRANCH   4   5
HETATM    5  C   UNL     1      -7.179  11.176  66.811  1.00  0.00    -0.146 C  
HETATM    6  O   UNL     1      -6.042  11.313  66.378  1.00  0.00    -0.140 OA 
BRANCH   5   7
HETATM    7  C   UNL     1      -7.853   9.852  67.068  1.00  0.00    -0.102 C  
BRANCH   7   8
HETATM    8  C   UNL     1      -8.492   9.309  65.788  1.00  0.00    -0.144 C  
BRANCH   8   9
HETATM    9  C   UNL     1      -9.959   9.703  65.635  1.00  0.00    -0.321 C  
BRANCH   9  10
HETATM   10  C   UNL     1     -10.178  10.664  64.501  1.00  0.00    -0.399 C  
HETATM   11  C   UNL     1     -10.993  11.732  64.500  1.00  0.00    -0.382 C  
BRANCH  11  12
HETATM   12  C   UNL     1     -11.842  12.215  65.641  1.00  0.00    -0.343 C  
BRANCH  12  13
HETATM   13  C   UNL     1     -11.085  12.794  66.848  1.00  0.00    -0.308 C  
HETATM   14  C   UNL     1     -11.161  14.332  66.858  1.00  0.00    -0.326 C  
HETATM   15  C   UNL     1     -10.696  14.693  68.256  1.00  0.00    -0.240 C  
HETATM   16  O   UNL     1     -12.504  14.794  66.710  1.00  0.00    -0.350 OA 
HETATM   17  C   UNL     1     -11.384  13.652  69.133  1.00  0.00    -0.285 C  
HETATM   18  H   UNL     1     -12.551  15.743  66.716  1.00  0.00     0.000 HD 
HETATM   19  C   UNL     1     -11.640  12.407  68.243  1.00  0.00    -0.384 C  
HETATM   20  O   UNL     1     -12.635  14.154  69.599  1.00  0.00    -0.469 OA 
HETATM   21  H   UNL     1     -13.064  13.505  70.145  1.00  0.00     0.000 HD 
BRANCH  19  22
HETATM   22  C   UNL     1     -10.972  11.152  68.834  1.00  0.00    -0.276 C  
BRANCH  22  23
HETATM   23  C   UNL     1     -11.804  10.585  69.987  1.00  0.00    -0.388 C  
BRANCH  23  24
HETATM   24  C   UNL     1     -10.995   9.812  71.036  1.00  0.00    -0.332 C  
HETATM   25  O   UNL     1     -11.876   9.127  71.926  1.00  0.00    -0.354 OA 
HETATM   26  H   UNL     1     -11.375   8.648  72.575  1.00  0.00     0.000 HD 
BRANCH  24  27
HETATM   27  C   UNL     1     -10.097   8.752  70.380  1.00  0.00    -0.223 C  
BRANCH  27  28
HETATM   28  C   UNL     1     -10.881   7.548  69.860  1.00  0.00    -0.250 C  
BRANCH  28  29
HETATM   29  C   UNL     1     -10.203   6.888  68.690  1.00  0.00    -0.181 A  
HETATM   30  C   UNL     1     -10.959   6.461  67.590  1.00  0.00    -0.441 A  
HETATM   31  C   UNL     1     -10.336   5.853  66.500  1.00  0.00    -0.237 A  
HETATM   32  C   UNL     1      -8.956   5.664  66.504  1.00  0.00    -0.126 A  
HETATM   33  C   UNL     1      -8.197   6.077  67.599  1.00  0.00    -0.109 A  
HETATM   34  C   UNL     1      -8.819   6.686  68.690  1.00  0.00    -0.122 A  
ENDBRANCH  28  29
ENDBRANCH  27  28
ENDBRANCH  24  27
ENDBRANCH  23  24
ENDBRANCH  22  23
ENDBRANCH  19  22
ENDBRANCH  12  13
ENDBRANCH  11  12
ENDBRANCH   9  10
ENDBRANCH   8   9
ENDBRANCH   7   8
ENDBRANCH   5   7
ENDBRANCH   4   5
ENDBRANCH   2   4
TORSDOF 14
ENDMDL
MODEL      171
REMARK 921   NORMALIZED FREE ENERGY PREDICTED BY IDOCK:   -4.33 KCAL/MOL
REMARK 922        TOTAL FREE ENERGY PREDICTED BY IDOCK:  -11.16 KCAL/MOL
REMARK 923 INTER-LIGAND FREE ENERGY PREDICTED BY IDOCK:   -9.64 KCAL/MOL
REMARK 924 INTRA-LIGAND FREE ENERGY PREDICTED BY IDOCK:   -1.51 KCAL/MOL
REMARK 927      BINDING AFFINITY PREDICTED BY RF-SCORE:    0.00 PKD
ROOT
HETATM    1  C   UNL     1      -8.355  17.119  68.490  1.00  0.00    -0.262 C  
HETATM    2  C   UNL     1      -9.689  17.823  68.272  1.00  0.00    -0.320 C  
HETATM    3  C   UNL     1      -9.600  19.289  68.676  1.00  0.00    -0.479 C  
ENDROOT
BRANCH   2   4
HETATM    4  O   UNL     1     -10.032  17.779  66.875  1.00  0.00    -0.303 OA 
BRANCH   4   5
HETATM    5  C   UNL     1     -10.059  16.531  66.323  1.00  0.00    -0.333 C  
HETATM    6  O   UNL     1      -9.352  16.150  65.399  1.00  0.00    -0.351 OA 
BRANCH   5   7
HETATM    7  C   UNL     1     -11.108  15.695  67.010  1.00  0.00    -0.200 C  
BRANCH   7   8
HETATM    8  C   UNL     1     -11.341  14.385  66.255  1.00  0.00    -0.350 C  
BRANCH   8   9
HETATM    9  C   UNL     1     -12.196  14.557  65.002  1.00  0.00    -0.376 C  
BRANCH   9  10
HETATM   10  C   UNL     1     -12.805  13.263  64.542  1.00  0.00    -0.123 C  
HETATM   11  C   UNL     1     -12.171  12.254  63.921  1.00  0.00    -0.608 C  
BRANCH  11  12
HETATM   12  C   UNL     1     -10.712  12.189  63.573  1.00  0.00    -0.509 C  
BRANCH  12  13
HETATM   13  C   UNL     1     -10.036  10.819  63.752  1.00  0.00    -0.411 C  
HETATM   14  C   UNL     1      -9.052  10.537  62.601  1.00  0.00    -0.292 C  
HETATM   15  C   UNL     1      -8.243   9.362  63.116  1.00  0.00    -0.165 C  
HETATM   16  O   UNL     1      -8.156  11.629  62.394  1.00  0.00    -0.646 OA 
HETATM   17  C   UNL     1      -7.995   9.722  64.577  1.00  0.00    -0.144 C  
HETATM   18  H   UNL     1      -7.549  11.455  61.684  1.00  0.00     0.000 HD 
HETATM   19  C   UNL     1      -9.151  10.661  65.014  1.00  0.00    -0.229 C  
HETATM   20  O   UNL     1      -6.758  10.419  64.707  1.00  0.00    -0.240 OA 
HETATM   21  H   UNL     1      -6.604  10.643  65.617  1.00  0.00     0.000 HD 
BRANCH  19  22
HETATM   22  C   UNL     1      -9.914  10.083  66.221  1.00  0.00    -0.310 C  
BRANCH  22  23
HETATM   23  C   UNL     1     -10.126  11.155  67.294  1.00  0.00    -0.218 C  
BRANCH  23  24
HETATM   24  C   UNL     1     -10.788  10.645  68.579  1.00  0.00    -0.233 C  
HETATM   25  O   UNL     1     -12.208  10.636  68.428  1.00  0.00    -0.822 OA 
HETATM   26  H   UNL     1     -12.617  10.320  69.225  1.00  0.00     0.000 HD 
BRANCH  24  27
HETATM   27  C   UNL     1     -10.357   9.205  68.898  1.00  0.00    -0.232 C  
BRANCH  27  28
HETATM   28  C   UNL     1     -10.340   8.908  70.398  1.00  0.00    -0.240 C  
BRANCH  28  29
HETATM   29  C   UNL     1     -10.148   7.443  70.686  1.00  0.00    -0.191 A  
HETATM   30  C   UNL     1     -10.940   6.489  70.033  1.00  0.00    -0.388 A  
HETATM   31  C   UNL     1     -10.763   5.131  70.291  1.00  0.00    -0.121 A  
HETATM   32  C   UNL     1      -9.799   4.716  71.207  1.00  0.00    -0.261 A  
HETATM   33  C   UNL     1      -9.013   5.659  71.868  1.00  0.00    -0.144 A  
HETATM   34  C   UNL     1      -9.188   7.020  71.610  1.00  0.00    -0.144 A  
ENDBRANCH  28  29
ENDBRANCH  27  28
ENDBRANCH  24  27
ENDBRANCH  23  24
ENDBRANCH  22  23
ENDBRANCH  19  22
ENDBRANCH  12  13
ENDBRANCH  11  12
ENDBRANCH   9  10
ENDBRANCH   8   9
ENDBRANCH   7   8
ENDBRANCH   5   7
ENDBRANCH   4   5
ENDBRANCH   2   4
TORSDOF 14
ENDMDL
MODEL      172
REMARK 921   NORMALIZED FREE ENERGY PREDICTED BY IDOCK:   -4.31 KCAL/MOL
REMARK 922        TOTAL FREE ENERGY PREDICTED BY IDOCK:  -11.14 KCAL/MOL
REMARK 923 INTER-LIGAND FREE ENERGY PREDICTED BY IDOCK:   -8.31 KCAL/MOL
REMARK 924 INTRA-LIGAND FREE ENERGY PREDICTED BY IDOCK:   -2.82 KCAL/MOL
REMARK 927      BINDING AFFINITY PREDICTED BY RF-SCORE:    0.00 PKD
ROOT
HETATM    1  C   UNL     1      -9.646   4.783  70.962  1.00  0.00    -0.242 C  
HETATM    2  C   UNL     1      -8.901   5.894  70.231  1.00  0.00    -0.143 C  
HETATM    3  C   UNL     1      -8.309   6.890  71.219  1.00  0.00    -0.119 C  
ENDROOT
BRANCH   2   4
HETATM    4  O   UNL     1      -7.810   5.327  69.482  1.00  0.00    -0.081 OA 
BRANCH   4   5
HETATM    5  C   UNL     1      -7.982   5.311  68.128  1.00  0.00    -0.091 C  
HETATM    6  O   UNL     1      -8.323   4.337  67.469  1.00  0.00    -0.099 OA 
BRANCH   5   7
HETATM    7  C   UNL     1      -7.665   6.671  67.561  1.00  0.00    -0.110 C  
BRANCH   7   8
HETATM    8  C   UNL     1      -8.430   6.909  66.257  1.00  0.00    -0.131 C  
BRANCH   8   9
HETATM    9  C   UNL     1      -8.571   8.387  65.904  1.00  0.00    -0.179 C  
BRANCH   9  10
HETATM   10  C   UNL     1      -9.932   8.928  66.239  1.00  0.00    -0.337 C  
HETATM   11  C   UNL     1     -10.229   9.811  67.207  1.00  0.00    -0.289 C  
BRANCH  11  12
HETATM   12  C   UNL     1      -9.262  10.470  68.148  1.00  0.00    -0.148 C  
BRANCH  12  13
HETATM   13  C   UNL     1      -9.363  12.001  68.259  1.00  0.00    -0.197 C  
HETATM   14  C   UNL     1      -8.029  12.669  67.876  1.00  0.00    -0.156 C  
HETATM   15  C   UNL     1      -8.411  14.126  67.695  1.00  0.00    -0.187 C  
HETATM   16  O   UNL     1      -7.537  12.186  66.626  1.00  0.00    -0.368 OA 
HETATM   17  C   UNL     1      -9.740  14.049  66.951  1.00  0.00    -0.271 C  
HETATM   18  H   UNL     1      -6.714  12.597  66.390  1.00  0.00     0.000 HD 
HETATM   19  C   UNL     1     -10.380  12.682  67.307  1.00  0.00    -0.230 C  
HETATM   20  O   UNL     1      -9.517  14.104  65.543  1.00  0.00    -0.527 OA 
HETATM   21  H   UNL     1     -10.345  14.056  65.080  1.00  0.00     0.000 HD 
BRANCH  19  22
HETATM   22  C   UNL     1     -11.772  12.865  67.940  1.00  0.00    -0.405 C  
BRANCH  22  23
HETATM   23  C   UNL     1     -12.012  14.332  68.308  1.00  0.00    -0.346 C  
BRANCH  23  24
HETATM   24  C   UNL     1     -12.007  14.619  69.814  1.00  0.00    -0.329 C  
HETATM   25  O   UNL     1     -13.296  15.070  70.231  1.00  0.00    -0.635 OA 
HETATM   26  H   UNL     1     -13.293  15.248  71.164  1.00  0.00     0.000 HD 
BRANCH  24  27
HETATM   27  C   UNL     1     -11.686  13.354  70.624  1.00  0.00    -0.003 C  
BRANCH  27  28
HETATM   28  C   UNL     1     -12.938  12.631  71.121  1.00  0.00    -0.239 C  
BRANCH  28  29
HETATM   29  C   UNL     1     -12.711  11.155  71.301  1.00  0.00    -0.531 A  
HETATM   30  C   UNL     1     -11.564  10.551  70.768  1.00  0.00    -0.432 A  
HETATM   31  C   UNL     1     -11.345   9.185  70.936  1.00  0.00    -0.359 A  
HETATM   32  C   UNL     1     -12.272   8.411  71.632  1.00  0.00    -0.358 A  
HETATM   33  C   UNL     1     -13.420   9.002  72.157  1.00  0.00    -0.514 A  
HETATM   34  C   UNL     1     -13.641  10.370  71.990  1.00  0.00    -0.257 A  
ENDBRANCH  28  29
ENDBRANCH  27  28
ENDBRANCH  24  27
ENDBRANCH  23  24
ENDBRANCH  22  23
ENDBRANCH  19  22
ENDBRANCH  12  13
ENDBRANCH  11  12
ENDBRANCH   9  10
ENDBRANCH   8   9
ENDBRANCH   7   8
ENDBRANCH   5   7
ENDBRANCH   4   5
ENDBRANCH   2   4
TORSDOF 14
ENDMDL
MODEL      173
REMARK 921   NORMALIZED FREE ENERGY PREDICTED BY IDOCK:   -4.30 KCAL/MOL
REMARK 922        TOTAL FREE ENERGY PREDICTED BY IDOCK:  -11.12 KCAL/MOL
REMARK 923 INTER-LIGAND FREE ENERGY PREDICTED BY IDOCK:   -9.62 KCAL/MOL
REMARK 924 INTRA-LIGAND FREE ENERGY PREDICTED BY IDOCK:   -1.50 KCAL/MOL
REMARK 927      BINDING AFFINITY PREDICTED BY RF-SCORE:    0.00 PKD
ROOT
HETATM    1  C   UNL     1     -13.280   8.900  72.482  1.00  0.00    -0.438 C  
HETATM    2  C   UNL     1     -13.034   9.689  71.201  1.00  0.00    -0.309 C  
HETATM    3  C   UNL     1     -12.696  11.140  71.516  1.00  0.00    -0.499 C  
ENDROOT
BRANCH   2   4
HETATM    4  O   UNL     1     -11.911   9.125  70.499  1.00  0.00    -0.218 OA 
BRANCH   4   5
HETATM    5  C   UNL     1     -11.050   8.400  71.271  1.00  0.00    -0.255 C  
HETATM    6  O   UNL     1     -10.082   8.853  71.869  1.00  0.00    -0.321 OA 
BRANCH   5   7
HETATM    7  C   UNL     1     -11.456   6.948  71.258  1.00  0.00    -0.337 C  
BRANCH   7   8
HETATM    8  C   UNL     1     -11.953   6.534  69.872  1.00  0.00    -0.046 C  
BRANCH   8   9
HETATM    9  C   UNL     1     -10.821   6.246  68.889  1.00  0.00    -0.396 C  
BRANCH   9  10
HETATM   10  C   UNL     1     -10.960   7.025  67.612  1.00  0.00    -0.259 C  
HETATM   11  C   UNL     1     -10.295   8.144  67.278  1.00  0.00    -0.373 C  
BRANCH  11  12
HETATM   12  C   UNL     1      -9.251   8.846  68.097  1.00  0.00    -0.145 C  
BRANCH  12  13
HETATM   13  C   UNL     1      -9.115  10.361  67.864  1.00  0.00    -0.132 C  
HETATM   14  C   UNL     1      -7.853  10.680  67.042  1.00  0.00    -0.117 C  
HETATM   15  C   UNL     1      -8.071  12.119  66.615  1.00  0.00     0.016 C  
HETATM   16  O   UNL     1      -7.775   9.879  65.863  1.00  0.00    -0.103 OA 
HETATM   17  C   UNL     1      -9.547  12.149  66.232  1.00  0.00    -0.237 C  
HETATM   18  H   UNL     1      -6.996  10.076  65.356  1.00  0.00     0.000 HD 
HETATM   19  C   UNL     1     -10.247  11.021  67.036  1.00  0.00    -0.250 C  
HETATM   20  O   UNL     1      -9.697  11.886  64.838  1.00  0.00    -0.344 OA 
HETATM   21  H   UNL     1     -10.617  11.905  64.600  1.00  0.00     0.000 HD 
BRANCH  19  22
HETATM   22  C   UNL     1     -11.387  11.582  67.907  1.00  0.00    -0.372 C  
BRANCH  22  23
HETATM   23  C   UNL     1     -10.952  12.873  68.606  1.00  0.00    -0.295 C  
BRANCH  23  24
HETATM   24  C   UNL     1     -11.719  14.125  68.162  1.00  0.00    -0.355 C  
HETATM   25  O   UNL     1     -12.519  14.615  69.239  1.00  0.00    -0.556 OA 
HETATM   26  H   UNL     1     -12.994  15.390  68.965  1.00  0.00     0.000 HD 
BRANCH  24  27
HETATM   27  C   UNL     1     -10.761  15.256  67.758  1.00  0.00    -0.286 C  
BRANCH  27  28
HETATM   28  C   UNL     1     -10.781  16.431  68.736  1.00  0.00    -0.321 C  
BRANCH  28  29
HETATM   29  C   UNL     1     -10.491  17.742  68.057  1.00  0.00    -0.399 A  
HETATM   30  C   UNL     1     -10.590  17.847  66.663  1.00  0.00    -0.243 A  
HETATM   31  C   UNL     1     -10.327  19.060  66.028  1.00  0.00    -0.512 A  
HETATM   32  C   UNL     1      -9.960  20.174  66.780  1.00  0.00    -0.604 A  
HETATM   33  C   UNL     1      -9.850  20.075  68.167  1.00  0.00    -0.499 A  
HETATM   34  C   UNL     1     -10.113  18.862  68.804  1.00  0.00    -0.415 A  
ENDBRANCH  28  29
ENDBRANCH  27  28
ENDBRANCH  24  27
ENDBRANCH  23  24
ENDBRANCH  22  23
ENDBRANCH  19  22
ENDBRANCH  12  13
ENDBRANCH  11  12
ENDBRANCH   9  10
ENDBRANCH   8   9
ENDBRANCH   7   8
ENDBRANCH   5   7
ENDBRANCH   4   5
ENDBRANCH   2   4
TORSDOF 14
ENDMDL
MODEL      174
REMARK 921   NORMALIZED FREE ENERGY PREDICTED BY IDOCK:   -4.29 KCAL/MOL
REMARK 922        TOTAL FREE ENERGY PREDICTED BY IDOCK:  -11.10 KCAL/MOL
REMARK 923 INTER-LIGAND FREE ENERGY PREDICTED BY IDOCK:   -8.75 KCAL/MOL
REMARK 924 INTRA-LIGAND FREE ENERGY PREDICTED BY IDOCK:   -2.35 KCAL/MOL
REMARK 927      BINDING AFFINITY PREDICTED BY RF-SCORE:    0.00 PKD
ROOT
HETATM    1  C   UNL     1     -11.225   2.735  73.448  1.00  0.00    -0.262 C  
HETATM    2  C   UNL     1     -10.227   3.626  72.717  1.00  0.00    -0.167 C  
HETATM    3  C   UNL     1      -9.131   4.099  73.663  1.00  0.00    -0.094 C  
ENDROOT
BRANCH   2   4
HETATM    4  O   UNL     1      -9.596   2.874  71.664  1.00  0.00    -0.131 OA 
BRANCH   4   5
HETATM    5  C   UNL     1      -9.225   3.603  70.573  1.00  0.00    -0.140 C  
HETATM    6  O   UNL     1      -8.167   3.483  69.966  1.00  0.00    -0.052 OA 
BRANCH   5   7
HETATM    7  C   UNL     1     -10.305   4.600  70.237  1.00  0.00    -0.084 C  
BRANCH   7   8
HETATM    8  C   UNL     1      -9.863   5.518  69.096  1.00  0.00    -0.227 C  
BRANCH   8   9
HETATM    9  C   UNL     1     -11.032   6.172  68.364  1.00  0.00    -0.391 C  
BRANCH   9  10
HETATM   10  C   UNL     1     -10.589   6.947  67.155  1.00  0.00    -0.408 C  
HETATM   11  C   UNL     1     -10.493   8.283  67.049  1.00  0.00    -0.384 C  
BRANCH  11  12
HETATM   12  C   UNL     1     -10.784   9.292  68.123  1.00  0.00    -0.205 C  
BRANCH  12  13
HETATM   13  C   UNL     1     -10.241  10.711  67.881  1.00  0.00    -0.206 C  
HETATM   14  C   UNL     1      -8.977  10.967  68.723  1.00  0.00    -0.164 C  
HETATM   15  C   UNL     1      -8.398  12.225  68.104  1.00  0.00    -0.174 C  
HETATM   16  O   UNL     1      -8.019   9.920  68.567  1.00  0.00    -0.084 OA 
HETATM   17  C   UNL     1      -8.571  11.991  66.608  1.00  0.00    -0.143 C  
HETATM   18  H   UNL     1      -7.239  10.078  69.087  1.00  0.00     0.000 HD 
HETATM   19  C   UNL     1      -9.767  11.016  66.437  1.00  0.00    -0.235 C  
HETATM   20  O   UNL     1      -7.399  11.383  66.068  1.00  0.00    -0.366 OA 
HETATM   21  H   UNL     1      -7.507  11.237  65.135  1.00  0.00     0.000 HD 
BRANCH  19  22
HETATM   22  C   UNL     1     -10.868  11.634  65.556  1.00  0.00    -0.334 C  
BRANCH  22  23
HETATM   23  C   UNL     1     -10.413  12.977  64.978  1.00  0.00    -0.345 C  
BRANCH  23  24
HETATM   24  C   UNL     1     -11.518  14.037  64.886  1.00  0.00    -0.358 C  
HETATM   25  O   UNL     1     -12.574  13.569  64.047  1.00  0.00    -0.661 OA 
HETATM   26  H   UNL     1     -13.259  14.225  63.991  1.00  0.00     0.000 HD 
BRANCH  24  27
HETATM   27  C   UNL     1     -12.129  14.330  66.265  1.00  0.00    -0.433 C  
BRANCH  27  28
HETATM   28  C   UNL     1     -11.143  15.003  67.221  1.00  0.00    -0.334 C  
BRANCH  28  29
HETATM   29  C   UNL     1     -11.548  14.844  68.661  1.00  0.00    -0.342 A  
HETATM   30  C   UNL     1     -11.441  15.927  69.544  1.00  0.00    -0.342 A  
HETATM   31  C   UNL     1     -11.820  15.788  70.879  1.00  0.00    -0.451 A  
HETATM   32  C   UNL     1     -12.302  14.566  71.342  1.00  0.00    -0.425 A  
HETATM   33  C   UNL     1     -12.403  13.481  70.473  1.00  0.00    -0.412 A  
HETATM   34  C   UNL     1     -12.025  13.618  69.136  1.00  0.00    -0.394 A  
ENDBRANCH  28  29
ENDBRANCH  27  28
ENDBRANCH  24  27
ENDBRANCH  23  24
ENDBRANCH  22  23
ENDBRANCH  19  22
ENDBRANCH  12  13
ENDBRANCH  11  12
ENDBRANCH   9  10
ENDBRANCH   8   9
ENDBRANCH   7   8
ENDBRANCH   5   7
ENDBRANCH   4   5
ENDBRANCH   2   4
TORSDOF 14
ENDMDL
MODEL      175
REMARK 921   NORMALIZED FREE ENERGY PREDICTED BY IDOCK:   -4.29 KCAL/MOL
REMARK 922        TOTAL FREE ENERGY PREDICTED BY IDOCK:  -11.10 KCAL/MOL
REMARK 923 INTER-LIGAND FREE ENERGY PREDICTED BY IDOCK:   -8.35 KCAL/MOL
REMARK 924 INTRA-LIGAND FREE ENERGY PREDICTED BY IDOCK:   -2.74 KCAL/MOL
REMARK 927      BINDING AFFINITY PREDICTED BY RF-SCORE:    0.00 PKD
ROOT
HETATM    1  C   UNL     1      -5.489   9.687  66.073  1.00  0.00    -0.043 C  
HETATM    2  C   UNL     1      -6.838  10.134  66.624  1.00  0.00    -0.084 C  
HETATM    3  C   UNL     1      -6.830  11.626  66.931  1.00  0.00    -0.129 C  
ENDROOT
BRANCH   2   4
HETATM    4  O   UNL     1      -7.860   9.901  65.637  1.00  0.00    -0.117 OA 
BRANCH   4   5
HETATM    5  C   UNL     1      -8.941   9.195  66.078  1.00  0.00    -0.181 C  
HETATM    6  O   UNL     1      -8.895   8.108  66.642  1.00  0.00    -0.130 OA 
BRANCH   5   7
HETATM    7  C   UNL     1     -10.207   9.943  65.745  1.00  0.00    -0.251 C  
BRANCH   7   8
HETATM    8  C   UNL     1     -10.467  11.053  66.764  1.00  0.00    -0.300 C  
BRANCH   8   9
HETATM    9  C   UNL     1     -11.328  10.600  67.940  1.00  0.00    -0.342 C  
BRANCH   9  10
HETATM   10  C   UNL     1     -10.641  10.796  69.262  1.00  0.00    -0.261 C  
HETATM   11  C   UNL     1     -11.175  11.336  70.371  1.00  0.00     0.096 C  
BRANCH  11  12
HETATM   12  C   UNL     1     -12.580  11.838  70.539  1.00  0.00    -0.234 C  
BRANCH  12  13
HETATM   13  C   UNL     1     -12.782  13.353  70.365  1.00  0.00    -0.136 C  
HETATM   14  C   UNL     1     -13.723  13.910  71.449  1.00  0.00    -0.170 C  
HETATM   15  C   UNL     1     -13.520  15.410  71.347  1.00  0.00    -0.607 C  
HETATM   16  O   UNL     1     -13.321  13.502  72.757  1.00  0.00    -0.548 OA 
HETATM   17  C   UNL     1     -12.012  15.547  71.166  1.00  0.00    -0.382 C  
HETATM   18  H   UNL     1     -13.902  13.845  73.426  1.00  0.00     0.000 HD 
HETATM   19  C   UNL     1     -11.511  14.226  70.523  1.00  0.00    -0.151 C  
HETATM   20  O   UNL     1     -11.379  15.714  72.433  1.00  0.00    -0.385 OA 
HETATM   21  H   UNL     1     -10.439  15.799  72.320  1.00  0.00     0.000 HD 
BRANCH  19  22
HETATM   22  C   UNL     1     -10.790  14.494  69.188  1.00  0.00    -0.278 C  
BRANCH  22  23
HETATM   23  C   UNL     1     -11.798  14.618  68.042  1.00  0.00    -0.343 C  
BRANCH  23  24
HETATM   24  C   UNL     1     -11.215  14.343  66.651  1.00  0.00    -0.339 C  
HETATM   25  O   UNL     1     -12.037  14.944  65.650  1.00  0.00    -0.175 OA 
HETATM   26  H   UNL     1     -11.676  14.774  64.788  1.00  0.00     0.000 HD 
BRANCH  24  27
HETATM   27  C   UNL     1      -9.809  14.943  66.504  1.00  0.00    -0.281 C  
BRANCH  27  28
HETATM   28  C   UNL     1      -9.804  16.268  65.742  1.00  0.00    -0.332 C  
BRANCH  28  29
HETATM   29  C   UNL     1      -9.661  17.453  66.658  1.00  0.00    -0.296 A  
HETATM   30  C   UNL     1      -8.641  17.478  67.619  1.00  0.00    -0.219 A  
HETATM   31  C   UNL     1      -8.499  18.574  68.468  1.00  0.00    -0.354 A  
HETATM   32  C   UNL     1      -9.379  19.650  68.368  1.00  0.00    -0.425 A  
HETATM   33  C   UNL     1     -10.403  19.629  67.422  1.00  0.00    -0.581 A  
HETATM   34  C   UNL     1     -10.546  18.532  66.570  1.00  0.00    -0.375 A  
ENDBRANCH  28  29
ENDBRANCH  27  28
ENDBRANCH  24  27
ENDBRANCH  23  24
ENDBRANCH  22  23
ENDBRANCH  19  22
ENDBRANCH  12  13
ENDBRANCH  11  12
ENDBRANCH   9  10
ENDBRANCH   8   9
ENDBRANCH   7   8
ENDBRANCH   5   7
ENDBRANCH   4   5
ENDBRANCH   2   4
TORSDOF 14
ENDMDL
MODEL      176
REMARK 921   NORMALIZED FREE ENERGY PREDICTED BY IDOCK:   -4.27 KCAL/MOL
REMARK 922        TOTAL FREE ENERGY PREDICTED BY IDOCK:  -11.06 KCAL/MOL
REMARK 923 INTER-LIGAND FREE ENERGY PREDICTED BY IDOCK:   -9.19 KCAL/MOL
REMARK 924 INTRA-LIGAND FREE ENERGY PREDICTED BY IDOCK:   -1.88 KCAL/MOL
REMARK 927      BINDING AFFINITY PREDICTED BY RF-SCORE:    0.00 PKD
ROOT
HETATM    1  C   UNL     1      -8.633   6.532  70.751  1.00  0.00    -0.135 C  
HETATM    2  C   UNL     1      -9.858   5.831  71.328  1.00  0.00    -0.179 C  
HETATM    3  C   UNL     1      -9.498   5.072  72.598  1.00  0.00    -0.161 C  
ENDROOT
BRANCH   2   4
HETATM    4  O   UNL     1     -10.852   6.812  71.677  1.00  0.00    -0.224 OA 
BRANCH   4   5
HETATM    5  C   UNL     1     -10.387   7.882  72.386  1.00  0.00    -0.270 C  
HETATM    6  O   UNL     1      -9.995   7.846  73.545  1.00  0.00    -0.296 OA 
BRANCH   5   7
HETATM    7  C   UNL     1     -10.449   9.123  71.532  1.00  0.00    -0.422 C  
BRANCH   7   8
HETATM    8  C   UNL     1     -11.900   9.495  71.219  1.00  0.00    -0.450 C  
BRANCH   8   9
HETATM    9  C   UNL     1     -12.107   9.936  69.772  1.00  0.00     0.140 C  
BRANCH   9  10
HETATM   10  C   UNL     1     -10.924   9.618  68.902  1.00  0.00    -0.153 C  
HETATM   11  C   UNL     1     -10.424  10.383  67.917  1.00  0.00    -0.248 C  
BRANCH  11  12
HETATM   12  C   UNL     1     -10.922  11.733  67.488  1.00  0.00    -0.310 C  
BRANCH  12  13
HETATM   13  C   UNL     1     -10.339  12.282  66.174  1.00  0.00    -0.269 C  
HETATM   14  C   UNL     1     -11.090  11.708  64.958  1.00  0.00    -0.249 C  
HETATM   15  C   UNL     1     -10.640  12.604  63.819  1.00  0.00    -0.432 C  
HETATM   16  O   UNL     1     -12.504  11.850  65.096  1.00  0.00    -0.311 OA 
HETATM   17  C   UNL     1     -10.661  13.996  64.441  1.00  0.00    -0.216 C  
HETATM   18  H   UNL     1     -12.967  11.496  64.346  1.00  0.00     0.000 HD 
HETATM   19  C   UNL     1     -10.460  13.813  65.969  1.00  0.00    -0.297 C  
HETATM   20  O   UNL     1     -11.925  14.617  64.212  1.00  0.00    -0.595 OA 
HETATM   21  H   UNL     1     -11.937  15.484  64.599  1.00  0.00     0.000 HD 
BRANCH  19  22
HETATM   22  C   UNL     1      -9.227  14.590  66.467  1.00  0.00    -0.282 C  
BRANCH  22  23
HETATM   23  C   UNL     1      -9.382  16.089  66.194  1.00  0.00    -0.377 C  
BRANCH  23  24
HETATM   24  C   UNL     1      -9.511  16.953  67.454  1.00  0.00    -0.238 C  
HETATM   25  O   UNL     1     -10.580  17.887  67.299  1.00  0.00    -0.373 OA 
HETATM   26  H   UNL     1     -10.660  18.422  68.079  1.00  0.00     0.000 HD 
BRANCH  24  27
HETATM   27  C   UNL     1      -9.831  16.099  68.690  1.00  0.00    -0.226 C  
BRANCH  27  28
HETATM   28  C   UNL     1     -10.913  16.717  69.576  1.00  0.00    -0.228 C  
BRANCH  28  29
HETATM   29  C   UNL     1     -11.713  15.674  70.309  1.00  0.00    -0.375 A  
HETATM   30  C   UNL     1     -12.494  16.038  71.414  1.00  0.00    -0.343 A  
HETATM   31  C   UNL     1     -13.243  15.078  72.094  1.00  0.00    -0.462 A  
HETATM   32  C   UNL     1     -13.212  13.749  71.679  1.00  0.00    -0.450 A  
HETATM   33  C   UNL     1     -12.429  13.377  70.586  1.00  0.00    -0.385 A  
HETATM   34  C   UNL     1     -11.680  14.336  69.904  1.00  0.00    -0.373 A  
ENDBRANCH  28  29
ENDBRANCH  27  28
ENDBRANCH  24  27
ENDBRANCH  23  24
ENDBRANCH  22  23
ENDBRANCH  19  22
ENDBRANCH  12  13
ENDBRANCH  11  12
ENDBRANCH   9  10
ENDBRANCH   8   9
ENDBRANCH   7   8
ENDBRANCH   5   7
ENDBRANCH   4   5
ENDBRANCH   2   4
TORSDOF 14
ENDMDL
MODEL      177
REMARK 921   NORMALIZED FREE ENERGY PREDICTED BY IDOCK:   -4.27 KCAL/MOL
REMARK 922        TOTAL FREE ENERGY PREDICTED BY IDOCK:  -11.06 KCAL/MOL
REMARK 923 INTER-LIGAND FREE ENERGY PREDICTED BY IDOCK:   -8.51 KCAL/MOL
REMARK 924 INTRA-LIGAND FREE ENERGY PREDICTED BY IDOCK:   -2.55 KCAL/MOL
REMARK 927      BINDING AFFINITY PREDICTED BY RF-SCORE:    0.00 PKD
ROOT
HETATM    1  C   UNL     1      -7.820  10.422  69.682  1.00  0.00    -0.138 C  
HETATM    2  C   UNL     1      -7.062   9.183  69.219  1.00  0.00    -0.058 C  
HETATM    3  C   UNL     1      -5.561   9.437  69.217  1.00  0.00    -0.035 C  
ENDROOT
BRANCH   2   4
HETATM    4  O   UNL     1      -7.317   8.097  70.129  1.00  0.00    -0.058 OA 
BRANCH   4   5
HETATM    5  C   UNL     1      -7.488   6.877  69.543  1.00  0.00    -0.096 C  
HETATM    6  O   UNL     1      -7.459   5.801  70.127  1.00  0.00    -0.077 OA 
BRANCH   5   7
HETATM    7  C   UNL     1      -7.696   7.051  68.060  1.00  0.00    -0.113 C  
BRANCH   7   8
HETATM    8  C   UNL     1      -9.056   6.496  67.633  1.00  0.00    -0.112 C  
BRANCH   8   9
HETATM    9  C   UNL     1      -9.834   7.447  66.727  1.00  0.00    -0.290 C  
BRANCH   9  10
HETATM   10  C   UNL     1     -10.406   8.615  67.479  1.00  0.00    -0.336 C  
HETATM   11  C   UNL     1     -10.171   9.917  67.241  1.00  0.00    -0.277 C  
BRANCH  11  12
HETATM   12  C   UNL     1      -9.305  10.488  66.154  1.00  0.00    -0.210 C  
BRANCH  12  13
HETATM   13  C   UNL     1      -9.500  11.984  65.853  1.00  0.00    -0.207 C  
HETATM   14  C   UNL     1     -10.274  12.183  64.536  1.00  0.00    -0.293 C  
HETATM   15  C   UNL     1     -10.675  13.645  64.588  1.00  0.00    -0.433 C  
HETATM   16  O   UNL     1     -11.468  11.401  64.504  1.00  0.00    -0.202 OA 
HETATM   17  C   UNL     1     -11.104  13.839  66.039  1.00  0.00    -0.291 C  
HETATM   18  H   UNL     1     -11.946  11.524  63.691  1.00  0.00     0.000 HD 
HETATM   19  C   UNL     1     -10.348  12.776  66.880  1.00  0.00    -0.245 C  
HETATM   20  O   UNL     1     -12.507  13.619  66.169  1.00  0.00    -0.433 OA 
HETATM   21  H   UNL     1     -12.774  13.740  67.073  1.00  0.00     0.000 HD 
BRANCH  19  22
HETATM   22  C   UNL     1      -9.500  13.437  67.983  1.00  0.00    -0.218 C  
BRANCH  22  23
HETATM   23  C   UNL     1      -9.625  14.962  67.923  1.00  0.00    -0.205 C  
BRANCH  23  24
HETATM   24  C   UNL     1      -9.304  15.678  69.241  1.00  0.00    -0.267 C  
HETATM   25  O   UNL     1      -8.295  16.666  69.026  1.00  0.00    -0.235 OA 
HETATM   26  H   UNL     1      -8.096  17.110  69.842  1.00  0.00     0.000 HD 
BRANCH  24  27
HETATM   27  C   UNL     1     -10.537  16.404  69.799  1.00  0.00    -0.288 C  
BRANCH  27  28
HETATM   28  C   UNL     1     -11.854  15.780  69.337  1.00  0.00    -0.361 C  
BRANCH  28  29
HETATM   29  C   UNL     1     -12.482  14.920  70.400  1.00  0.00    -0.403 A  
HETATM   30  C   UNL     1     -12.332  13.528  70.356  1.00  0.00    -0.397 A  
HETATM   31  C   UNL     1     -12.906  12.725  71.341  1.00  0.00    -0.371 A  
HETATM   32  C   UNL     1     -13.639  13.307  72.372  1.00  0.00    -0.694 A  
HETATM   33  C   UNL     1     -13.802  14.692  72.419  1.00  0.00    -0.580 A  
HETATM   34  C   UNL     1     -13.227  15.496  71.434  1.00  0.00    -0.587 A  
ENDBRANCH  28  29
ENDBRANCH  27  28
ENDBRANCH  24  27
ENDBRANCH  23  24
ENDBRANCH  22  23
ENDBRANCH  19  22
ENDBRANCH  12  13
ENDBRANCH  11  12
ENDBRANCH   9  10
ENDBRANCH   8   9
ENDBRANCH   7   8
ENDBRANCH   5   7
ENDBRANCH   4   5
ENDBRANCH   2   4
TORSDOF 14
ENDMDL
MODEL      178
REMARK 921   NORMALIZED FREE ENERGY PREDICTED BY IDOCK:   -4.27 KCAL/MOL
REMARK 922        TOTAL FREE ENERGY PREDICTED BY IDOCK:  -11.05 KCAL/MOL
REMARK 923 INTER-LIGAND FREE ENERGY PREDICTED BY IDOCK:   -8.90 KCAL/MOL
REMARK 924 INTRA-LIGAND FREE ENERGY PREDICTED BY IDOCK:   -2.15 KCAL/MOL
REMARK 927      BINDING AFFINITY PREDICTED BY RF-SCORE:    0.00 PKD
ROOT
HETATM    1  C   UNL     1     -10.264  18.811  66.675  1.00  0.00    -0.453 C  
HETATM    2  C   UNL     1      -8.992  19.376  67.297  1.00  0.00    -0.299 C  
HETATM    3  C   UNL     1      -9.112  20.881  67.499  1.00  0.00    -0.195 C  
ENDROOT
BRANCH   2   4
HETATM    4  O   UNL     1      -8.787  18.781  68.592  1.00  0.00    -0.335 OA 
BRANCH   4   5
HETATM    5  C   UNL     1      -7.497  18.439  68.875  1.00  0.00    -0.243 C  
HETATM    6  O   UNL     1      -6.711  19.117  69.525  1.00  0.00    -0.296 OA 
BRANCH   5   7
HETATM    7  C   UNL     1      -7.175  17.107  68.246  1.00  0.00    -0.204 C  
BRANCH   7   8
HETATM    8  C   UNL     1      -7.774  15.961  69.064  1.00  0.00    -0.209 C  
BRANCH   8   9
HETATM    9  C   UNL     1      -8.774  15.119  68.275  1.00  0.00    -0.171 C  
BRANCH   9  10
HETATM   10  C   UNL     1      -8.719  15.398  66.800  1.00  0.00    -0.304 C  
HETATM   11  C   UNL     1      -9.747  15.357  65.936  1.00  0.00    -0.392 C  
BRANCH  11  12
HETATM   12  C   UNL     1     -11.181  15.048  66.261  1.00  0.00    -0.309 C  
BRANCH  12  13
HETATM   13  C   UNL     1     -11.690  13.665  65.818  1.00  0.00    -0.369 C  
HETATM   14  C   UNL     1     -12.784  13.802  64.742  1.00  0.00    -0.215 C  
HETATM   15  C   UNL     1     -12.899  12.395  64.186  1.00  0.00    -0.364 C  
HETATM   16  O   UNL     1     -12.373  14.662  63.679  1.00  0.00    -1.060 OA 
HETATM   17  C   UNL     1     -11.448  11.940  64.083  1.00  0.00    -0.370 C  
HETATM   18  H   UNL     1     -13.048  14.746  63.016  1.00  0.00     0.000 HD 
HETATM   19  C   UNL     1     -10.644  12.745  65.139  1.00  0.00    -0.324 C  
HETATM   20  O   UNL     1     -10.932  12.233  62.787  1.00  0.00    -0.469 OA 
HETATM   21  H   UNL     1     -10.028  11.949  62.723  1.00  0.00     0.000 HD 
BRANCH  19  22
HETATM   22  C   UNL     1      -9.929  11.808  66.130  1.00  0.00    -0.254 C  
BRANCH  22  23
HETATM   23  C   UNL     1      -9.815  10.393  65.554  1.00  0.00    -0.332 C  
BRANCH  23  24
HETATM   24  C   UNL     1      -8.392   9.823  65.544  1.00  0.00    -0.136 C  
HETATM   25  O   UNL     1      -7.463  10.820  65.972  1.00  0.00    -0.149 OA 
HETATM   26  H   UNL     1      -6.582  10.467  65.966  1.00  0.00     0.000 HD 
BRANCH  24  27
HETATM   27  C   UNL     1      -8.258   8.635  66.509  1.00  0.00    -0.107 C  
BRANCH  27  28
HETATM   28  C   UNL     1      -8.836   8.925  67.894  1.00  0.00    -0.133 C  
BRANCH  28  29
HETATM   29  C   UNL     1      -9.314   7.676  68.584  1.00  0.00    -0.147 A  
HETATM   30  C   UNL     1      -9.679   7.718  69.937  1.00  0.00    -0.176 A  
HETATM   31  C   UNL     1     -10.128   6.566  70.582  1.00  0.00    -0.212 A  
HETATM   32  C   UNL     1     -10.210   5.365  69.882  1.00  0.00    -0.351 A  
HETATM   33  C   UNL     1      -9.840   5.312  68.538  1.00  0.00    -0.210 A  
HETATM   34  C   UNL     1      -9.391   6.464  67.891  1.00  0.00    -0.114 A  
ENDBRANCH  28  29
ENDBRANCH  27  28
ENDBRANCH  24  27
ENDBRANCH  23  24
ENDBRANCH  22  23
ENDBRANCH  19  22
ENDBRANCH  12  13
ENDBRANCH  11  12
ENDBRANCH   9  10
ENDBRANCH   8   9
ENDBRANCH   7   8
ENDBRANCH   5   7
ENDBRANCH   4   5
ENDBRANCH   2   4
TORSDOF 14
ENDMDL
MODEL      179
REMARK 921   NORMALIZED FREE ENERGY PREDICTED BY IDOCK:   -4.24 KCAL/MOL
REMARK 922        TOTAL FREE ENERGY PREDICTED BY IDOCK:  -11.01 KCAL/MOL
REMARK 923 INTER-LIGAND FREE ENERGY PREDICTED BY IDOCK:   -8.91 KCAL/MOL
REMARK 924 INTRA-LIGAND FREE ENERGY PREDICTED BY IDOCK:   -2.10 KCAL/MOL
REMARK 927      BINDING AFFINITY PREDICTED BY RF-SCORE:    0.00 PKD
ROOT
HETATM    1  C   UNL     1      -9.083   6.934  70.723  1.00  0.00    -0.154 C  
HETATM    2  C   UNL     1     -10.376   6.132  70.808  1.00  0.00    -0.213 C  
HETATM    3  C   UNL     1     -10.190   4.897  71.681  1.00  0.00    -0.267 C  
ENDROOT
BRANCH   2   4
HETATM    4  O   UNL     1     -11.402   6.940  71.415  1.00  0.00    -0.249 OA 
BRANCH   4   5
HETATM    5  C   UNL     1     -10.978   7.752  72.426  1.00  0.00    -0.311 C  
HETATM    6  O   UNL     1     -10.699   7.383  73.560  1.00  0.00    -0.385 OA 
BRANCH   5   7
HETATM    7  C   UNL     1     -10.927   9.179  71.944  1.00  0.00    -0.372 C  
BRANCH   7   8
HETATM    8  C   UNL     1     -12.327   9.686  71.595  1.00  0.00    -0.489 C  
BRANCH   8   9
HETATM    9  C   UNL     1     -12.328  10.727  70.478  1.00  0.00    -0.458 C  
BRANCH   9  10
HETATM   10  C   UNL     1     -11.226  10.500  69.483  1.00  0.00    -0.329 C  
HETATM   11  C   UNL     1     -10.951  11.252  68.404  1.00  0.00    -0.268 C  
BRANCH  11  12
HETATM   12  C   UNL     1     -11.670  12.497  67.971  1.00  0.00    -0.410 C  
BRANCH  12  13
HETATM   13  C   UNL     1     -11.949  12.627  66.463  1.00  0.00    -0.401 C  
HETATM   14  C   UNL     1     -12.311  14.077  66.094  1.00  0.00    -0.458 C  
HETATM   15  C   UNL     1     -12.196  14.089  64.582  1.00  0.00    -0.460 C  
HETATM   16  O   UNL     1     -11.360  15.007  66.614  1.00  0.00    -0.344 OA 
HETATM   17  C   UNL     1     -10.932  13.277  64.321  1.00  0.00    -0.395 C  
HETATM   18  H   UNL     1     -11.584  15.902  66.386  1.00  0.00     0.000 HD 
HETATM   19  C   UNL     1     -10.754  12.315  65.526  1.00  0.00    -0.314 C  
HETATM   20  O   UNL     1      -9.800  14.142  64.249  1.00  0.00    -0.538 OA 
HETATM   21  H   UNL     1      -9.012  13.636  64.087  1.00  0.00     0.000 HD 
BRANCH  19  22
HETATM   22  C   UNL     1     -10.713  10.846  65.066  1.00  0.00    -0.216 C  
BRANCH  22  23
HETATM   23  C   UNL     1      -9.520  10.601  64.138  1.00  0.00    -0.327 C  
BRANCH  23  24
HETATM   24  C   UNL     1      -8.359   9.834  64.784  1.00  0.00    -0.155 C  
HETATM   25  O   UNL     1      -7.275  10.724  65.051  1.00  0.00    -0.354 OA 
HETATM   26  H   UNL     1      -6.556  10.249  65.451  1.00  0.00     0.000 HD 
BRANCH  24  27
HETATM   27  C   UNL     1      -8.777   9.212  66.125  1.00  0.00    -0.169 C  
BRANCH  27  28
HETATM   28  C   UNL     1      -7.664   8.383  66.768  1.00  0.00    -0.091 C  
BRANCH  28  29
HETATM   29  C   UNL     1      -8.119   6.991  67.114  1.00  0.00    -0.118 A  
HETATM   30  C   UNL     1      -9.441   6.602  66.864  1.00  0.00    -0.184 A  
HETATM   31  C   UNL     1      -9.868   5.313  67.178  1.00  0.00    -0.184 A  
HETATM   32  C   UNL     1      -8.978   4.405  67.749  1.00  0.00    -0.136 A  
HETATM   33  C   UNL     1      -7.663   4.787  68.010  1.00  0.00    -0.082 A  
HETATM   34  C   UNL     1      -7.234   6.078  67.696  1.00  0.00    -0.076 A  
ENDBRANCH  28  29
ENDBRANCH  27  28
ENDBRANCH  24  27
ENDBRANCH  23  24
ENDBRANCH  22  23
ENDBRANCH  19  22
ENDBRANCH  12  13
ENDBRANCH  11  12
ENDBRANCH   9  10
ENDBRANCH   8   9
ENDBRANCH   7   8
ENDBRANCH   5   7
ENDBRANCH   4   5
ENDBRANCH   2   4
TORSDOF 14
ENDMDL
MODEL      180
REMARK 921   NORMALIZED FREE ENERGY PREDICTED BY IDOCK:   -4.24 KCAL/MOL
REMARK 922        TOTAL FREE ENERGY PREDICTED BY IDOCK:  -11.00 KCAL/MOL
REMARK 923 INTER-LIGAND FREE ENERGY PREDICTED BY IDOCK:   -8.30 KCAL/MOL
REMARK 924 INTRA-LIGAND FREE ENERGY PREDICTED BY IDOCK:   -2.69 KCAL/MOL
REMARK 927      BINDING AFFINITY PREDICTED BY RF-SCORE:    0.00 PKD
ROOT
HETATM    1  C   UNL     1      -9.470   2.756  70.279  1.00  0.00    -0.183 C  
HETATM    2  C   UNL     1      -8.931   4.035  69.649  1.00  0.00    -0.101 C  
HETATM    3  C   UNL     1      -9.397   4.164  68.204  1.00  0.00    -0.212 C  
ENDROOT
BRANCH   2   4
HETATM    4  O   UNL     1      -9.437   5.174  70.370  1.00  0.00    -0.151 OA 
BRANCH   4   5
HETATM    5  C   UNL     1      -8.703   5.542  71.460  1.00  0.00    -0.136 C  
HETATM    6  O   UNL     1      -7.490   5.418  71.572  1.00  0.00    -0.094 OA 
BRANCH   5   7
HETATM    7  C   UNL     1      -9.616   6.105  72.519  1.00  0.00    -0.149 C  
BRANCH   7   8
HETATM    8  C   UNL     1     -11.042   5.580  72.344  1.00  0.00    -0.312 C  
BRANCH   8   9
HETATM    9  C   UNL     1     -12.043   6.673  71.973  1.00  0.00    -0.353 C  
BRANCH   9  10
HETATM   10  C   UNL     1     -11.685   8.003  72.573  1.00  0.00    -0.446 C  
HETATM   11  C   UNL     1     -11.577   9.174  71.922  1.00  0.00    -0.430 C  
BRANCH  11  12
HETATM   12  C   UNL     1     -11.813   9.412  70.459  1.00  0.00    -0.207 C  
BRANCH  12  13
HETATM   13  C   UNL     1     -10.561   9.696  69.610  1.00  0.00    -0.252 C  
HETATM   14  C   UNL     1      -9.675   8.441  69.501  1.00  0.00    -0.177 C  
HETATM   15  C   UNL     1      -8.720   8.788  68.375  1.00  0.00    -0.135 C  
HETATM   16  O   UNL     1     -10.429   7.297  69.100  1.00  0.00    -0.207 OA 
HETATM   17  C   UNL     1      -9.621   9.467  67.349  1.00  0.00    -0.141 C  
HETATM   18  H   UNL     1      -9.883   6.522  69.033  1.00  0.00     0.000 HD 
HETATM   19  C   UNL     1     -10.820  10.071  68.129  1.00  0.00    -0.303 C  
HETATM   20  O   UNL     1     -10.113   8.508  66.416  1.00  0.00    -0.341 OA 
HETATM   21  H   UNL     1     -10.674   8.931  65.777  1.00  0.00     0.000 HD 
BRANCH  19  22
HETATM   22  C   UNL     1     -10.927  11.590  67.899  1.00  0.00    -0.287 C  
BRANCH  22  23
HETATM   23  C   UNL     1      -9.541  12.240  67.905  1.00  0.00    -0.203 C  
BRANCH  23  24
HETATM   24  C   UNL     1      -9.555  13.768  68.024  1.00  0.00    -0.214 C  
HETATM   25  O   UNL     1      -8.627  14.189  69.024  1.00  0.00    -0.350 OA 
HETATM   26  H   UNL     1      -8.635  15.136  69.097  1.00  0.00     0.000 HD 
BRANCH  24  27
HETATM   27  C   UNL     1      -9.137  14.437  66.706  1.00  0.00    -0.278 C  
BRANCH  27  28
HETATM   28  C   UNL     1     -10.328  14.939  65.890  1.00  0.00    -0.330 C  
BRANCH  28  29
HETATM   29  C   UNL     1     -10.939  13.853  65.046  1.00  0.00    -0.371 A  
HETATM   30  C   UNL     1     -10.131  13.089  64.193  1.00  0.00    -0.146 A  
HETATM   31  C   UNL     1     -10.689  12.078  63.412  1.00  0.00    -0.475 A  
HETATM   32  C   UNL     1     -12.058  11.828  63.473  1.00  0.00    -0.485 A  
HETATM   33  C   UNL     1     -12.871  12.590  64.311  1.00  0.00    -0.350 A  
HETATM   34  C   UNL     1     -12.314  13.602  65.094  1.00  0.00    -0.486 A  
ENDBRANCH  28  29
ENDBRANCH  27  28
ENDBRANCH  24  27
ENDBRANCH  23  24
ENDBRANCH  22  23
ENDBRANCH  19  22
ENDBRANCH  12  13
ENDBRANCH  11  12
ENDBRANCH   9  10
ENDBRANCH   8   9
ENDBRANCH   7   8
ENDBRANCH   5   7
ENDBRANCH   4   5
ENDBRANCH   2   4
TORSDOF 14
ENDMDL
MODEL      181
REMARK 921   NORMALIZED FREE ENERGY PREDICTED BY IDOCK:   -4.23 KCAL/MOL
REMARK 922        TOTAL FREE ENERGY PREDICTED BY IDOCK:  -10.99 KCAL/MOL
REMARK 923 INTER-LIGAND FREE ENERGY PREDICTED BY IDOCK:   -8.58 KCAL/MOL
REMARK 924 INTRA-LIGAND FREE ENERGY PREDICTED BY IDOCK:   -2.41 KCAL/MOL
REMARK 927      BINDING AFFINITY PREDICTED BY RF-SCORE:    0.00 PKD
ROOT
HETATM    1  C   UNL     1     -12.981  11.978  71.718  1.00  0.00    -0.445 C  
HETATM    2  C   UNL     1     -12.791  10.607  71.079  1.00  0.00    -0.402 C  
HETATM    3  C   UNL     1     -11.726  10.660  69.992  1.00  0.00    -0.405 C  
ENDROOT
BRANCH   2   4
HETATM    4  O   UNL     1     -12.344   9.671  72.077  1.00  0.00    -0.361 OA 
BRANCH   4   5
HETATM    5  C   UNL     1     -12.762   8.385  71.895  1.00  0.00    -0.355 C  
HETATM    6  O   UNL     1     -13.891   8.048  71.561  1.00  0.00    -0.352 OA 
BRANCH   5   7
HETATM    7  C   UNL     1     -11.629   7.435  72.190  1.00  0.00    -0.331 C  
BRANCH   7   8
HETATM    8  C   UNL     1     -10.674   7.341  70.998  1.00  0.00    -0.247 C  
BRANCH   8   9
HETATM    9  C   UNL     1     -10.881   6.082  70.160  1.00  0.00    -0.409 C  
BRANCH   9  10
HETATM   10  C   UNL     1     -11.363   6.392  68.771  1.00  0.00    -0.252 C  
HETATM   11  C   UNL     1     -10.600   6.622  67.689  1.00  0.00    -0.325 C  
BRANCH  11  12
HETATM   12  C   UNL     1      -9.100   6.594  67.627  1.00  0.00    -0.112 C  
BRANCH  12  13
HETATM   13  C   UNL     1      -8.384   7.902  68.007  1.00  0.00    -0.123 C  
HETATM   14  C   UNL     1      -6.991   7.614  68.596  1.00  0.00    -0.075 C  
HETATM   15  C   UNL     1      -6.316   8.973  68.570  1.00  0.00    -0.054 C  
HETATM   16  O   UNL     1      -6.237   6.734  67.761  1.00  0.00    -0.036 OA 
HETATM   17  C   UNL     1      -6.731   9.543  67.218  1.00  0.00    -0.072 C  
HETATM   18  H   UNL     1      -5.377   6.557  68.125  1.00  0.00     0.000 HD 
HETATM   19  C   UNL     1      -8.075   8.868  66.835  1.00  0.00    -0.109 C  
HETATM   20  O   UNL     1      -5.754   9.223  66.230  1.00  0.00    -0.051 OA 
HETATM   21  H   UNL     1      -6.013   9.579  65.388  1.00  0.00     0.000 HD 
BRANCH  19  22
HETATM   22  C   UNL     1      -9.181   9.916  66.607  1.00  0.00    -0.185 C  
BRANCH  22  23
HETATM   23  C   UNL     1      -9.678   9.875  65.159  1.00  0.00    -0.376 C  
BRANCH  23  24
HETATM   24  C   UNL     1      -9.504  11.190  64.390  1.00  0.00    -0.220 C  
HETATM   25  O   UNL     1      -8.529  11.028  63.360  1.00  0.00    -0.371 OA 
HETATM   26  H   UNL     1      -8.421  11.843  62.883  1.00  0.00     0.000 HD 
BRANCH  24  27
HETATM   27  C   UNL     1     -10.814  11.620  63.712  1.00  0.00    -0.493 C  
BRANCH  27  28
HETATM   28  C   UNL     1     -11.925  11.939  64.712  1.00  0.00    -0.222 C  
BRANCH  28  29
HETATM   29  C   UNL     1     -11.657  13.206  65.477  1.00  0.00    -0.365 A  
HETATM   30  C   UNL     1     -11.052  14.297  64.838  1.00  0.00    -0.396 A  
HETATM   31  C   UNL     1     -10.805  15.476  65.540  1.00  0.00    -0.372 A  
HETATM   32  C   UNL     1     -11.155  15.572  66.885  1.00  0.00    -0.221 A  
HETATM   33  C   UNL     1     -11.748  14.488  67.531  1.00  0.00    -0.413 A  
HETATM   34  C   UNL     1     -11.996  13.307  66.830  1.00  0.00    -0.430 A  
ENDBRANCH  28  29
ENDBRANCH  27  28
ENDBRANCH  24  27
ENDBRANCH  23  24
ENDBRANCH  22  23
ENDBRANCH  19  22
ENDBRANCH  12  13
ENDBRANCH  11  12
ENDBRANCH   9  10
ENDBRANCH   8   9
ENDBRANCH   7   8
ENDBRANCH   5   7
ENDBRANCH   4   5
ENDBRANCH   2   4
TORSDOF 14
ENDMDL
MODEL      182
REMARK 921   NORMALIZED FREE ENERGY PREDICTED BY IDOCK:   -4.22 KCAL/MOL
REMARK 922        TOTAL FREE ENERGY PREDICTED BY IDOCK:  -10.97 KCAL/MOL
REMARK 923 INTER-LIGAND FREE ENERGY PREDICTED BY IDOCK:   -9.18 KCAL/MOL
REMARK 924 INTRA-LIGAND FREE ENERGY PREDICTED BY IDOCK:   -1.79 KCAL/MOL
REMARK 927      BINDING AFFINITY PREDICTED BY RF-SCORE:    0.00 PKD
ROOT
HETATM    1  C   UNL     1      -9.091   5.077  67.326  1.00  0.00    -0.117 C  
HETATM    2  C   UNL     1      -7.968   4.883  68.338  1.00  0.00    -0.085 C  
HETATM    3  C   UNL     1      -6.617   4.809  67.638  1.00  0.00    -0.047 C  
ENDROOT
BRANCH   2   4
HETATM    4  O   UNL     1      -7.930   6.010  69.233  1.00  0.00    -0.100 OA 
BRANCH   4   5
HETATM    5  C   UNL     1      -8.126   5.710  70.550  1.00  0.00    -0.105 C  
HETATM    6  O   UNL     1      -7.468   4.906  71.199  1.00  0.00    -0.069 OA 
BRANCH   5   7
HETATM    7  C   UNL     1      -9.292   6.504  71.083  1.00  0.00    -0.167 C  
BRANCH   7   8
HETATM    8  C   UNL     1     -10.600   5.728  70.916  1.00  0.00    -0.329 C  
BRANCH   8   9
HETATM    9  C   UNL     1     -11.841   6.597  71.103  1.00  0.00    -0.414 C  
BRANCH   9  10
HETATM   10  C   UNL     1     -11.706   7.547  72.259  1.00  0.00    -0.348 C  
HETATM   11  C   UNL     1     -11.962   8.866  72.248  1.00  0.00    -0.380 C  
BRANCH  11  12
HETATM   12  C   UNL     1     -12.462   9.674  71.085  1.00  0.00    -0.421 C  
BRANCH  12  13
HETATM   13  C   UNL     1     -11.415  10.540  70.365  1.00  0.00    -0.427 C  
HETATM   14  C   UNL     1     -10.530   9.680  69.443  1.00  0.00    -0.220 C  
HETATM   15  C   UNL     1      -9.830  10.709  68.576  1.00  0.00    -0.175 C  
HETATM   16  O   UNL     1     -11.313   8.846  68.589  1.00  0.00    -0.296 OA 
HETATM   17  C   UNL     1     -10.939  11.705  68.252  1.00  0.00    -0.226 C  
HETATM   18  H   UNL     1     -10.767   8.315  68.021  1.00  0.00     0.000 HD 
HETATM   19  C   UNL     1     -11.976  11.619  69.404  1.00  0.00    -0.381 C  
HETATM   20  O   UNL     1     -11.576  11.349  67.027  1.00  0.00    -0.510 OA 
HETATM   21  H   UNL     1     -12.267  11.969  66.826  1.00  0.00     0.000 HD 
BRANCH  19  22
HETATM   22  C   UNL     1     -12.174  12.988  70.080  1.00  0.00    -0.342 C  
BRANCH  22  23
HETATM   23  C   UNL     1     -11.555  14.106  69.236  1.00  0.00    -0.350 C  
BRANCH  23  24
HETATM   24  C   UNL     1     -10.828  15.186  70.045  1.00  0.00    -0.254 C  
HETATM   25  O   UNL     1      -9.423  14.933  70.045  1.00  0.00    -0.439 OA 
HETATM   26  H   UNL     1      -8.972  15.602  70.546  1.00  0.00     0.000 HD 
BRANCH  24  27
HETATM   27  C   UNL     1     -11.038  16.580  69.435  1.00  0.00    -0.253 C  
BRANCH  27  28
HETATM   28  C   UNL     1     -10.496  16.694  68.010  1.00  0.00    -0.320 C  
BRANCH  28  29
HETATM   29  C   UNL     1     -10.003  18.080  67.696  1.00  0.00    -0.332 A  
HETATM   30  C   UNL     1      -8.790  18.532  68.233  1.00  0.00    -0.332 A  
HETATM   31  C   UNL     1      -8.324  19.813  67.943  1.00  0.00    -0.342 A  
HETATM   32  C   UNL     1      -9.069  20.654  67.120  1.00  0.00    -0.401 A  
HETATM   33  C   UNL     1     -10.282  20.217  66.589  1.00  0.00    -0.556 A  
HETATM   34  C   UNL     1     -10.750  18.934  66.878  1.00  0.00    -0.447 A  
ENDBRANCH  28  29
ENDBRANCH  27  28
ENDBRANCH  24  27
ENDBRANCH  23  24
ENDBRANCH  22  23
ENDBRANCH  19  22
ENDBRANCH  12  13
ENDBRANCH  11  12
ENDBRANCH   9  10
ENDBRANCH   8   9
ENDBRANCH   7   8
ENDBRANCH   5   7
ENDBRANCH   4   5
ENDBRANCH   2   4
TORSDOF 14
ENDMDL
MODEL      183
REMARK 921   NORMALIZED FREE ENERGY PREDICTED BY IDOCK:   -4.21 KCAL/MOL
REMARK 922        TOTAL FREE ENERGY PREDICTED BY IDOCK:  -10.96 KCAL/MOL
REMARK 923 INTER-LIGAND FREE ENERGY PREDICTED BY IDOCK:   -9.30 KCAL/MOL
REMARK 924 INTRA-LIGAND FREE ENERGY PREDICTED BY IDOCK:   -1.65 KCAL/MOL
REMARK 927      BINDING AFFINITY PREDICTED BY RF-SCORE:    0.00 PKD
ROOT
HETATM    1  C   UNL     1     -12.676  11.866  63.257  1.00  0.00    -0.407 C  
HETATM    2  C   UNL     1     -11.488  12.107  64.181  1.00  0.00    -0.387 C  
HETATM    3  C   UNL     1     -10.335  11.175  63.835  1.00  0.00    -0.441 C  
ENDROOT
BRANCH   2   4
HETATM    4  O   UNL     1     -11.019  13.458  64.016  1.00  0.00    -0.358 OA 
BRANCH   4   5
HETATM    5  C   UNL     1     -11.886  14.428  64.426  1.00  0.00    -0.415 C  
HETATM    6  O   UNL     1     -12.681  15.018  63.706  1.00  0.00    -0.741 OA 
BRANCH   5   7
HETATM    7  C   UNL     1     -11.702  14.683  65.901  1.00  0.00    -0.301 C  
BRANCH   7   8
HETATM    8  C   UNL     1     -10.863  15.940  66.136  1.00  0.00    -0.208 C  
BRANCH   8   9
HETATM    9  C   UNL     1      -9.368  15.653  66.247  1.00  0.00    -0.358 C  
BRANCH   9  10
HETATM   10  C   UNL     1      -8.662  16.633  67.142  1.00  0.00    -0.215 C  
HETATM   11  C   UNL     1      -8.206  16.399  68.384  1.00  0.00    -0.190 C  
BRANCH  11  12
HETATM   12  C   UNL     1      -8.278  15.103  69.138  1.00  0.00    -0.214 C  
BRANCH  12  13
HETATM   13  C   UNL     1      -7.307  14.000  68.681  1.00  0.00    -0.120 C  
HETATM   14  C   UNL     1      -5.984  14.073  69.467  1.00  0.00    -0.102 C  
HETATM   15  C   UNL     1      -5.324  12.743  69.156  1.00  0.00    -0.069 C  
HETATM   16  O   UNL     1      -6.210  14.132  70.875  1.00  0.00    -0.351 OA 
HETATM   17  C   UNL     1      -6.479  11.752  69.234  1.00  0.00    -0.107 C  
HETATM   18  H   UNL     1      -5.394  14.177  71.360  1.00  0.00     0.000 HD 
HETATM   19  C   UNL     1      -7.777  12.543  68.923  1.00  0.00     0.085 C  
HETATM   20  O   UNL     1      -6.572  11.210  70.550  1.00  0.00    -0.480 OA 
HETATM   21  H   UNL     1      -7.293  10.592  70.599  1.00  0.00     0.000 HD 
BRANCH  19  22
HETATM   22  C   UNL     1      -8.523  11.941  67.717  1.00  0.00    -0.154 C  
BRANCH  22  23
HETATM   23  C   UNL     1      -9.888  12.610  67.533  1.00  0.00    -0.203 C  
BRANCH  23  24
HETATM   24  C   UNL     1     -11.013  12.004  68.380  1.00  0.00    -0.237 C  
HETATM   25  O   UNL     1     -12.064  11.537  67.534  1.00  0.00    -0.614 OA 
HETATM   26  H   UNL     1     -12.761  11.161  68.059  1.00  0.00     0.000 HD 
BRANCH  24  27
HETATM   27  C   UNL     1     -10.515  10.798  69.192  1.00  0.00    -0.243 C  
BRANCH  27  28
HETATM   28  C   UNL     1     -11.396  10.492  70.403  1.00  0.00    -0.411 C  
BRANCH  28  29
HETATM   29  C   UNL     1     -10.830   9.389  71.256  1.00  0.00    -0.431 A  
HETATM   30  C   UNL     1      -9.494   8.996  71.099  1.00  0.00    -0.348 A  
HETATM   31  C   UNL     1      -8.962   7.979  71.889  1.00  0.00    -0.200 A  
HETATM   32  C   UNL     1      -9.761   7.343  72.837  1.00  0.00    -0.231 A  
HETATM   33  C   UNL     1     -11.094   7.721  72.993  1.00  0.00    -0.419 A  
HETATM   34  C   UNL     1     -11.628   8.740  72.203  1.00  0.00    -0.434 A  
ENDBRANCH  28  29
ENDBRANCH  27  28
ENDBRANCH  24  27
ENDBRANCH  23  24
ENDBRANCH  22  23
ENDBRANCH  19  22
ENDBRANCH  12  13
ENDBRANCH  11  12
ENDBRANCH   9  10
ENDBRANCH   8   9
ENDBRANCH   7   8
ENDBRANCH   5   7
ENDBRANCH   4   5
ENDBRANCH   2   4
TORSDOF 14
ENDMDL
MODEL      184
REMARK 921   NORMALIZED FREE ENERGY PREDICTED BY IDOCK:   -4.21 KCAL/MOL
REMARK 922        TOTAL FREE ENERGY PREDICTED BY IDOCK:  -10.95 KCAL/MOL
REMARK 923 INTER-LIGAND FREE ENERGY PREDICTED BY IDOCK:   -8.39 KCAL/MOL
REMARK 924 INTRA-LIGAND FREE ENERGY PREDICTED BY IDOCK:   -2.56 KCAL/MOL
REMARK 927      BINDING AFFINITY PREDICTED BY RF-SCORE:    0.00 PKD
ROOT
HETATM    1  C   UNL     1     -10.177   5.545  72.172  1.00  0.00    -0.247 C  
HETATM    2  C   UNL     1      -9.868   6.174  70.817  1.00  0.00    -0.186 C  
HETATM    3  C   UNL     1     -10.422   5.318  69.686  1.00  0.00    -0.320 C  
ENDROOT
BRANCH   2   4
HETATM    4  O   UNL     1     -10.499   7.465  70.733  1.00  0.00    -0.210 OA 
BRANCH   4   5
HETATM    5  C   UNL     1     -11.825   7.485  71.056  1.00  0.00    -0.293 C  
HETATM    6  O   UNL     1     -12.635   6.611  70.775  1.00  0.00    -0.261 OA 
BRANCH   5   7
HETATM    7  C   UNL     1     -12.148   8.758  71.795  1.00  0.00    -0.418 C  
BRANCH   7   8
HETATM    8  C   UNL     1     -11.540   9.969  71.085  1.00  0.00    -0.460 C  
BRANCH   8   9
HETATM    9  C   UNL     1     -12.587  10.897  70.474  1.00  0.00    -0.409 C  
BRANCH   9  10
HETATM   10  C   UNL     1     -12.000  12.204  70.023  1.00  0.00    -0.391 C  
HETATM   11  C   UNL     1     -11.791  12.594  68.754  1.00  0.00    -0.341 C  
BRANCH  11  12
HETATM   12  C   UNL     1     -12.121  11.819  67.511  1.00  0.00     0.143 C  
BRANCH  12  13
HETATM   13  C   UNL     1     -11.418  12.279  66.222  1.00  0.00    -0.435 C  
HETATM   14  C   UNL     1     -12.418  12.947  65.259  1.00  0.00    -0.493 C  
HETATM   15  C   UNL     1     -11.519  13.636  64.249  1.00  0.00    -0.393 C  
HETATM   16  O   UNL     1     -13.191  13.952  65.915  1.00  0.00    -0.524 OA 
HETATM   17  C   UNL     1     -10.414  14.232  65.115  1.00  0.00    -0.411 C  
HETATM   18  H   UNL     1     -13.808  14.363  65.321  1.00  0.00     0.000 HD 
HETATM   19  C   UNL     1     -10.325  13.364  66.398  1.00  0.00    -0.288 C  
HETATM   20  O   UNL     1     -10.748  15.569  65.483  1.00  0.00    -0.337 OA 
HETATM   21  H   UNL     1     -10.060  15.940  66.022  1.00  0.00     0.000 HD 
BRANCH  19  22
HETATM   22  C   UNL     1      -8.913  12.776  66.577  1.00  0.00    -0.098 C  
BRANCH  22  23
HETATM   23  C   UNL     1      -8.409  12.998  68.006  1.00  0.00    -0.169 C  
BRANCH  23  24
HETATM   24  C   UNL     1      -7.078  12.307  68.326  1.00  0.00    -0.093 C  
HETATM   25  O   UNL     1      -7.065  11.879  69.688  1.00  0.00    -0.337 OA 
HETATM   26  H   UNL     1      -6.241  11.450  69.886  1.00  0.00     0.000 HD 
BRANCH  24  27
HETATM   27  C   UNL     1      -6.873  11.057  67.455  1.00  0.00    -0.084 C  
BRANCH  27  28
HETATM   28  C   UNL     1      -7.050   9.754  68.235  1.00  0.00    -0.077 C  
BRANCH  28  29
HETATM   29  C   UNL     1      -8.245   8.968  67.766  1.00  0.00    -0.109 A  
HETATM   30  C   UNL     1      -9.538   9.466  67.975  1.00  0.00    -0.156 A  
HETATM   31  C   UNL     1     -10.649   8.746  67.539  1.00  0.00    -0.298 A  
HETATM   32  C   UNL     1     -10.477   7.522  66.897  1.00  0.00    -0.385 A  
HETATM   33  C   UNL     1      -9.194   7.014  66.694  1.00  0.00    -0.189 A  
HETATM   34  C   UNL     1      -8.080   7.734  67.129  1.00  0.00    -0.118 A  
ENDBRANCH  28  29
ENDBRANCH  27  28
ENDBRANCH  24  27
ENDBRANCH  23  24
ENDBRANCH  22  23
ENDBRANCH  19  22
ENDBRANCH  12  13
ENDBRANCH  11  12
ENDBRANCH   9  10
ENDBRANCH   8   9
ENDBRANCH   7   8
ENDBRANCH   5   7
ENDBRANCH   4   5
ENDBRANCH   2   4
TORSDOF 14
ENDMDL
MODEL      185
REMARK 921   NORMALIZED FREE ENERGY PREDICTED BY IDOCK:   -4.21 KCAL/MOL
REMARK 922        TOTAL FREE ENERGY PREDICTED BY IDOCK:  -10.94 KCAL/MOL
REMARK 923 INTER-LIGAND FREE ENERGY PREDICTED BY IDOCK:   -9.21 KCAL/MOL
REMARK 924 INTRA-LIGAND FREE ENERGY PREDICTED BY IDOCK:   -1.73 KCAL/MOL
REMARK 927      BINDING AFFINITY PREDICTED BY RF-SCORE:    0.00 PKD
ROOT
HETATM    1  C   UNL     1     -11.440   5.595  72.686  1.00  0.00    -0.339 C  
HETATM    2  C   UNL     1     -10.764   6.949  72.507  1.00  0.00    -0.232 C  
HETATM    3  C   UNL     1     -11.800   8.059  72.382  1.00  0.00    -0.429 C  
ENDROOT
BRANCH   2   4
HETATM    4  O   UNL     1      -9.957   7.239  73.664  1.00  0.00    -0.279 OA 
BRANCH   4   5
HETATM    5  C   UNL     1      -8.716   7.737  73.395  1.00  0.00    -0.227 C  
HETATM    6  O   UNL     1      -8.082   8.490  74.124  1.00  0.00    -0.356 OA 
BRANCH   5   7
HETATM    7  C   UNL     1      -8.248   7.239  72.052  1.00  0.00    -0.108 C  
BRANCH   7   8
HETATM    8  C   UNL     1      -7.177   8.164  71.471  1.00  0.00    -0.077 C  
BRANCH   8   9
HETATM    9  C   UNL     1      -7.664   8.963  70.264  1.00  0.00    -0.090 C  
BRANCH   9  10
HETATM   10  C   UNL     1      -9.010   9.587  70.496  1.00  0.00    -0.265 C  
HETATM   11  C   UNL     1      -9.994   9.734  69.592  1.00  0.00    -0.244 C  
BRANCH  11  12
HETATM   12  C   UNL     1      -9.971   9.283  68.160  1.00  0.00    -0.206 C  
BRANCH  12  13
HETATM   13  C   UNL     1      -9.268  10.225  67.167  1.00  0.00    -0.163 C  
HETATM   14  C   UNL     1      -8.772   9.449  65.932  1.00  0.00    -0.154 C  
HETATM   15  C   UNL     1      -8.449  10.550  64.939  1.00  0.00    -0.161 C  
HETATM   16  O   UNL     1      -9.804   8.639  65.368  1.00  0.00    -0.353 OA 
HETATM   17  C   UNL     1      -9.610  11.524  65.107  1.00  0.00    -0.210 C  
HETATM   18  H   UNL     1      -9.497   8.161  64.607  1.00  0.00     0.000 HD 
HETATM   19  C   UNL     1     -10.154  11.337  66.549  1.00  0.00    -0.256 C  
HETATM   20  O   UNL     1     -10.647  11.217  64.178  1.00  0.00    -0.346 OA 
HETATM   21  H   UNL     1     -11.370  11.824  64.283  1.00  0.00     0.000 HD 
BRANCH  19  22
HETATM   22  C   UNL     1     -10.106  12.658  67.340  1.00  0.00    -0.218 C  
BRANCH  22  23
HETATM   23  C   UNL     1     -11.461  13.369  67.292  1.00  0.00    -0.374 C  
BRANCH  23  24
HETATM   24  C   UNL     1     -11.766  14.240  68.516  1.00  0.00    -0.341 C  
HETATM   25  O   UNL     1     -11.504  13.508  69.714  1.00  0.00    -0.400 OA 
HETATM   26  H   UNL     1     -11.692  14.048  70.472  1.00  0.00     0.000 HD 
BRANCH  24  27
HETATM   27  C   UNL     1     -10.877  15.493  68.547  1.00  0.00    -0.272 C  
BRANCH  27  28
HETATM   28  C   UNL     1     -10.800  16.201  67.194  1.00  0.00    -0.216 C  
BRANCH  28  29
HETATM   29  C   UNL     1     -10.431  17.653  67.331  1.00  0.00    -0.356 A  
HETATM   30  C   UNL     1     -10.447  18.490  66.207  1.00  0.00    -0.441 A  
HETATM   31  C   UNL     1     -10.111  19.838  66.328  1.00  0.00    -0.601 A  
HETATM   32  C   UNL     1      -9.752  20.357  67.569  1.00  0.00    -0.571 A  
HETATM   33  C   UNL     1      -9.724  19.529  68.691  1.00  0.00    -0.514 A  
HETATM   34  C   UNL     1     -10.061  18.180  68.572  1.00  0.00    -0.413 A  
ENDBRANCH  28  29
ENDBRANCH  27  28
ENDBRANCH  24  27
ENDBRANCH  23  24
ENDBRANCH  22  23
ENDBRANCH  19  22
ENDBRANCH  12  13
ENDBRANCH  11  12
ENDBRANCH   9  10
ENDBRANCH   8   9
ENDBRANCH   7   8
ENDBRANCH   5   7
ENDBRANCH   4   5
ENDBRANCH   2   4
TORSDOF 14
ENDMDL
MODEL      186
REMARK 921   NORMALIZED FREE ENERGY PREDICTED BY IDOCK:   -4.21 KCAL/MOL
REMARK 922        TOTAL FREE ENERGY PREDICTED BY IDOCK:  -10.94 KCAL/MOL
REMARK 923 INTER-LIGAND FREE ENERGY PREDICTED BY IDOCK:   -8.87 KCAL/MOL
REMARK 924 INTRA-LIGAND FREE ENERGY PREDICTED BY IDOCK:   -2.07 KCAL/MOL
REMARK 927      BINDING AFFINITY PREDICTED BY RF-SCORE:    0.00 PKD
ROOT
HETATM    1  C   UNL     1      -9.573   5.595  68.285  1.00  0.00    -0.145 C  
HETATM    2  C   UNL     1     -10.044   6.763  69.144  1.00  0.00    -0.171 C  
HETATM    3  C   UNL     1     -11.348   6.421  69.854  1.00  0.00    -0.500 C  
ENDROOT
BRANCH   2   4
HETATM    4  O   UNL     1      -9.060   7.041  70.157  1.00  0.00    -0.148 OA 
BRANCH   4   5
HETATM    5  C   UNL     1      -8.845   8.365  70.410  1.00  0.00    -0.146 C  
HETATM    6  O   UNL     1      -8.987   8.910  71.497  1.00  0.00    -0.222 OA 
BRANCH   5   7
HETATM    7  C   UNL     1      -8.428   9.063  69.141  1.00  0.00    -0.128 C  
BRANCH   7   8
HETATM    8  C   UNL     1      -7.711  10.378  69.453  1.00  0.00    -0.158 C  
BRANCH   8   9
HETATM    9  C   UNL     1      -7.402  11.205  68.207  1.00  0.00    -0.090 C  
BRANCH   9  10
HETATM   10  C   UNL     1      -7.320  12.676  68.502  1.00  0.00    -0.115 C  
HETATM   11  C   UNL     1      -8.321  13.568  68.416  1.00  0.00    -0.140 C  
BRANCH  11  12
HETATM   12  C   UNL     1      -9.745  13.286  68.029  1.00  0.00    -0.223 C  
BRANCH  12  13
HETATM   13  C   UNL     1     -10.049  13.291  66.521  1.00  0.00    -0.275 C  
HETATM   14  C   UNL     1     -10.944  12.098  66.138  1.00  0.00    -0.298 C  
HETATM   15  C   UNL     1     -11.421  12.457  64.743  1.00  0.00    -0.375 C  
HETATM   16  O   UNL     1     -12.090  12.005  66.984  1.00  0.00    -0.603 OA 
HETATM   17  C   UNL     1     -11.733  13.946  64.854  1.00  0.00    -0.368 C  
HETATM   18  H   UNL     1     -12.642  11.269  66.747  1.00  0.00     0.000 HD 
HETATM   19  C   UNL     1     -10.848  14.511  65.997  1.00  0.00    -0.310 C  
HETATM   20  O   UNL     1     -13.105  14.135  65.194  1.00  0.00    -0.757 OA 
HETATM   21  H   UNL     1     -13.299  15.063  65.262  1.00  0.00     0.000 HD 
BRANCH  19  22
HETATM   22  C   UNL     1      -9.948  15.653  65.493  1.00  0.00    -0.364 C  
BRANCH  22  23
HETATM   23  C   UNL     1     -10.765  16.927  65.258  1.00  0.00    -0.147 C  
BRANCH  23  24
HETATM   24  C   UNL     1     -10.303  18.139  66.076  1.00  0.00    -0.353 C  
HETATM   25  O   UNL     1     -10.974  19.316  65.627  1.00  0.00    -0.353 OA 
HETATM   26  H   UNL     1     -10.688  20.067  66.134  1.00  0.00     0.000 HD 
BRANCH  24  27
HETATM   27  C   UNL     1     -10.636  17.968  67.567  1.00  0.00    -0.402 C  
BRANCH  27  28
HETATM   28  C   UNL     1      -9.933  18.996  68.454  1.00  0.00    -0.473 C  
BRANCH  28  29
HETATM   29  C   UNL     1      -8.441  18.808  68.472  1.00  0.00    -0.379 A  
HETATM   30  C   UNL     1      -7.896  17.537  68.695  1.00  0.00    -0.272 A  
HETATM   31  C   UNL     1      -6.514  17.355  68.708  1.00  0.00    -0.201 A  
HETATM   32  C   UNL     1      -5.667  18.442  68.504  1.00  0.00    -0.181 A  
HETATM   33  C   UNL     1      -6.200  19.712  68.290  1.00  0.00    -0.267 A  
HETATM   34  C   UNL     1      -7.584  19.896  68.276  1.00  0.00    -0.306 A  
ENDBRANCH  28  29
ENDBRANCH  27  28
ENDBRANCH  24  27
ENDBRANCH  23  24
ENDBRANCH  22  23
ENDBRANCH  19  22
ENDBRANCH  12  13
ENDBRANCH  11  12
ENDBRANCH   9  10
ENDBRANCH   8   9
ENDBRANCH   7   8
ENDBRANCH   5   7
ENDBRANCH   4   5
ENDBRANCH   2   4
TORSDOF 14
ENDMDL
MODEL      187
REMARK 921   NORMALIZED FREE ENERGY PREDICTED BY IDOCK:   -4.20 KCAL/MOL
REMARK 922        TOTAL FREE ENERGY PREDICTED BY IDOCK:  -10.93 KCAL/MOL
REMARK 923 INTER-LIGAND FREE ENERGY PREDICTED BY IDOCK:   -8.58 KCAL/MOL
REMARK 924 INTRA-LIGAND FREE ENERGY PREDICTED BY IDOCK:   -2.35 KCAL/MOL
REMARK 927      BINDING AFFINITY PREDICTED BY RF-SCORE:    0.00 PKD
ROOT
HETATM    1  C   UNL     1      -6.896   5.520  71.890  1.00  0.00    -0.063 C  
HETATM    2  C   UNL     1      -7.953   5.785  72.956  1.00  0.00    -0.107 C  
HETATM    3  C   UNL     1      -7.313   6.314  74.233  1.00  0.00    -0.089 C  
ENDROOT
BRANCH   2   4
HETATM    4  O   UNL     1      -8.870   6.789  72.483  1.00  0.00    -0.127 OA 
BRANCH   4   5
HETATM    5  C   UNL     1     -10.186   6.541  72.744  1.00  0.00    -0.186 C  
HETATM    6  O   UNL     1     -10.847   7.080  73.623  1.00  0.00    -0.336 OA 
BRANCH   5   7
HETATM    7  C   UNL     1     -10.701   5.485  71.800  1.00  0.00    -0.289 C  
BRANCH   7   8
HETATM    8  C   UNL     1     -11.352   6.124  70.572  1.00  0.00    -0.381 C  
BRANCH   8   9
HETATM    9  C   UNL     1     -10.448   6.119  69.342  1.00  0.00    -0.316 C  
BRANCH   9  10
HETATM   10  C   UNL     1     -11.131   6.684  68.128  1.00  0.00    -0.287 C  
HETATM   11  C   UNL     1     -10.546   7.333  67.108  1.00  0.00    -0.416 C  
BRANCH  11  12
HETATM   12  C   UNL     1      -9.079   7.615  66.946  1.00  0.00    -0.171 C  
BRANCH  12  13
HETATM   13  C   UNL     1      -8.719   8.932  66.238  1.00  0.00    -0.162 C  
HETATM   14  C   UNL     1      -7.545   8.728  65.262  1.00  0.00    -0.091 C  
HETATM   15  C   UNL     1      -7.570   9.991  64.421  1.00  0.00    -0.145 C  
HETATM   16  O   UNL     1      -7.769   7.618  64.392  1.00  0.00    -0.113 OA 
HETATM   17  C   UNL     1      -9.057  10.210  64.164  1.00  0.00    -0.251 C  
HETATM   18  H   UNL     1      -7.045   7.492  63.791  1.00  0.00     0.000 HD 
HETATM   19  C   UNL     1      -9.823   9.538  65.334  1.00  0.00    -0.248 C  
HETATM   20  O   UNL     1      -9.440   9.586  62.941  1.00  0.00    -0.544 OA 
HETATM   21  H   UNL     1     -10.366   9.723  62.780  1.00  0.00     0.000 HD 
BRANCH  19  22
HETATM   22  C   UNL     1     -10.719  10.552  66.070  1.00  0.00    -0.086 C  
BRANCH  22  23
HETATM   23  C   UNL     1     -10.334  11.987  65.699  1.00  0.00    -0.288 C  
BRANCH  23  24
HETATM   24  C   UNL     1     -11.458  13.014  65.882  1.00  0.00    -0.337 C  
HETATM   25  O   UNL     1     -12.684  12.493  65.369  1.00  0.00    -0.624 OA 
HETATM   26  H   UNL     1     -13.380  13.129  65.483  1.00  0.00     0.000 HD 
BRANCH  24  27
HETATM   27  C   UNL     1     -11.686  13.335  67.367  1.00  0.00    -0.419 C  
BRANCH  27  28
HETATM   28  C   UNL     1     -10.563  12.820  68.267  1.00  0.00    -0.251 C  
BRANCH  28  29
HETATM   29  C   UNL     1     -11.058  11.834  69.289  1.00  0.00    -0.278 A  
HETATM   30  C   UNL     1     -12.115  12.179  70.143  1.00  0.00    -0.368 A  
HETATM   31  C   UNL     1     -12.582  11.269  71.089  1.00  0.00    -0.501 A  
HETATM   32  C   UNL     1     -11.994  10.010  71.194  1.00  0.00    -0.484 A  
HETATM   33  C   UNL     1     -10.936   9.662  70.355  1.00  0.00    -0.356 A  
HETATM   34  C   UNL     1     -10.467  10.572  69.406  1.00  0.00    -0.264 A  
ENDBRANCH  28  29
ENDBRANCH  27  28
ENDBRANCH  24  27
ENDBRANCH  23  24
ENDBRANCH  22  23
ENDBRANCH  19  22
ENDBRANCH  12  13
ENDBRANCH  11  12
ENDBRANCH   9  10
ENDBRANCH   8   9
ENDBRANCH   7   8
ENDBRANCH   5   7
ENDBRANCH   4   5
ENDBRANCH   2   4
TORSDOF 14
ENDMDL
MODEL      188
REMARK 921   NORMALIZED FREE ENERGY PREDICTED BY IDOCK:   -4.19 KCAL/MOL
REMARK 922        TOTAL FREE ENERGY PREDICTED BY IDOCK:  -10.92 KCAL/MOL
REMARK 923 INTER-LIGAND FREE ENERGY PREDICTED BY IDOCK:   -8.45 KCAL/MOL
REMARK 924 INTRA-LIGAND FREE ENERGY PREDICTED BY IDOCK:   -2.46 KCAL/MOL
REMARK 927      BINDING AFFINITY PREDICTED BY RF-SCORE:    0.00 PKD
ROOT
HETATM    1  C   UNL     1      -7.436  20.908  66.972  1.00  0.00    -0.289 C  
HETATM    2  C   UNL     1      -5.919  20.907  67.121  1.00  0.00    -0.247 C  
HETATM    3  C   UNL     1      -5.520  20.967  68.590  1.00  0.00    -0.375 C  
ENDROOT
BRANCH   2   4
HETATM    4  O   UNL     1      -5.385  19.686  66.577  1.00  0.00    -0.163 OA 
BRANCH   4   5
HETATM    5  C   UNL     1      -6.289  18.894  65.932  1.00  0.00    -0.217 C  
HETATM    6  O   UNL     1      -6.717  19.085  64.801  1.00  0.00    -0.453 OA 
BRANCH   5   7
HETATM    7  C   UNL     1      -6.702  17.757  66.831  1.00  0.00    -0.211 C  
BRANCH   7   8
HETATM    8  C   UNL     1      -7.859  16.968  66.216  1.00  0.00    -0.346 C  
BRANCH   8   9
HETATM    9  C   UNL     1      -9.221  17.613  66.460  1.00  0.00    -0.286 C  
BRANCH   9  10
HETATM   10  C   UNL     1      -9.632  17.553  67.904  1.00  0.00    -0.277 C  
HETATM   11  C   UNL     1     -10.109  16.481  68.559  1.00  0.00    -0.255 C  
BRANCH  11  12
HETATM   12  C   UNL     1     -10.312  15.103  67.998  1.00  0.00    -0.240 C  
BRANCH  12  13
HETATM   13  C   UNL     1     -10.482  13.973  69.028  1.00  0.00    -0.169 C  
HETATM   14  C   UNL     1     -11.925  13.930  69.564  1.00  0.00    -0.343 C  
HETATM   15  C   UNL     1     -11.997  12.584  70.258  1.00  0.00    -0.364 C  
HETATM   16  O   UNL     1     -12.881  13.928  68.503  1.00  0.00     0.045 OA 
HETATM   17  C   UNL     1     -11.259  11.656  69.299  1.00  0.00    -0.265 C  
HETATM   18  H   UNL     1     -13.771  13.902  68.834  1.00  0.00     0.000 HD 
HETATM   19  C   UNL     1     -10.264  12.534  68.494  1.00  0.00    -0.210 C  
HETATM   20  O   UNL     1     -12.181  11.053  68.393  1.00  0.00    -0.770 OA 
HETATM   21  H   UNL     1     -11.721  10.475  67.796  1.00  0.00     0.000 HD 
BRANCH  19  22
HETATM   22  C   UNL     1      -8.816  12.038  68.666  1.00  0.00    -0.024 C  
BRANCH  22  23
HETATM   23  C   UNL     1      -8.196  11.694  67.308  1.00  0.00    -0.159 C  
BRANCH  23  24
HETATM   24  C   UNL     1      -8.566  10.305  66.774  1.00  0.00    -0.127 C  
HETATM   25  O   UNL     1      -8.924   9.444  67.856  1.00  0.00    -0.124 OA 
HETATM   26  H   UNL     1      -9.153   8.584  67.525  1.00  0.00     0.000 HD 
BRANCH  24  27
HETATM   27  C   UNL     1      -9.775  10.372  65.829  1.00  0.00    -0.285 C  
BRANCH  27  28
HETATM   28  C   UNL     1      -9.588  11.381  64.696  1.00  0.00    -0.228 C  
BRANCH  28  29
HETATM   29  C   UNL     1     -10.566  12.522  64.782  1.00  0.00    -0.333 A  
HETATM   30  C   UNL     1     -11.936  12.263  64.929  1.00  0.00    -0.420 A  
HETATM   31  C   UNL     1     -12.847  13.314  65.015  1.00  0.00    -0.356 A  
HETATM   32  C   UNL     1     -12.397  14.631  64.948  1.00  0.00    -0.322 A  
HETATM   33  C   UNL     1     -11.037  14.898  64.792  1.00  0.00    -0.395 A  
HETATM   34  C   UNL     1     -10.124  13.846  64.707  1.00  0.00    -0.247 A  
ENDBRANCH  28  29
ENDBRANCH  27  28
ENDBRANCH  24  27
ENDBRANCH  23  24
ENDBRANCH  22  23
ENDBRANCH  19  22
ENDBRANCH  12  13
ENDBRANCH  11  12
ENDBRANCH   9  10
ENDBRANCH   8   9
ENDBRANCH   7   8
ENDBRANCH   5   7
ENDBRANCH   4   5
ENDBRANCH   2   4
TORSDOF 14
ENDMDL
MODEL      189
REMARK 921   NORMALIZED FREE ENERGY PREDICTED BY IDOCK:   -4.18 KCAL/MOL
REMARK 922        TOTAL FREE ENERGY PREDICTED BY IDOCK:  -10.89 KCAL/MOL
REMARK 923 INTER-LIGAND FREE ENERGY PREDICTED BY IDOCK:   -9.05 KCAL/MOL
REMARK 924 INTRA-LIGAND FREE ENERGY PREDICTED BY IDOCK:   -1.84 KCAL/MOL
REMARK 927      BINDING AFFINITY PREDICTED BY RF-SCORE:    0.00 PKD
ROOT
HETATM    1  C   UNL     1      -8.022  13.528  67.740  1.00  0.00    -0.168 C  
HETATM    2  C   UNL     1      -8.373  14.972  67.402  1.00  0.00    -0.190 C  
HETATM    3  C   UNL     1      -7.121  15.766  67.054  1.00  0.00    -0.169 C  
ENDROOT
BRANCH   2   4
HETATM    4  O   UNL     1      -9.236  14.999  66.250  1.00  0.00    -0.289 OA 
BRANCH   4   5
HETATM    5  C   UNL     1     -10.214  15.950  66.280  1.00  0.00    -0.311 C  
HETATM    6  O   UNL     1     -10.684  16.513  65.300  1.00  0.00    -0.531 OA 
BRANCH   5   7
HETATM    7  C   UNL     1     -10.616  16.221  67.708  1.00  0.00    -0.314 C  
BRANCH   7   8
HETATM    8  C   UNL     1     -11.567  15.139  68.221  1.00  0.00    -0.357 C  
BRANCH   8   9
HETATM    9  C   UNL     1     -12.057  14.199  67.122  1.00  0.00    -0.432 C  
BRANCH   9  10
HETATM   10  C   UNL     1     -11.893  12.752  67.490  1.00  0.00    -0.402 C  
HETATM   11  C   UNL     1     -11.385  11.779  66.715  1.00  0.00    -0.385 C  
BRANCH  11  12
HETATM   12  C   UNL     1     -10.847  11.930  65.321  1.00  0.00    -0.347 C  
BRANCH  12  13
HETATM   13  C   UNL     1     -10.231  10.668  64.694  1.00  0.00    -0.404 C  
HETATM   14  C   UNL     1      -9.998  10.862  63.184  1.00  0.00    -0.321 C  
HETATM   15  C   UNL     1      -9.086   9.705  62.823  1.00  0.00    -0.254 C  
HETATM   16  O   UNL     1      -9.298  12.075  62.910  1.00  0.00    -0.578 OA 
HETATM   17  C   UNL     1      -8.103   9.658  63.987  1.00  0.00    -0.152 C  
HETATM   18  H   UNL     1      -9.155  12.194  61.978  1.00  0.00     0.000 HD 
HETATM   19  C   UNL     1      -8.826  10.271  65.216  1.00  0.00    -0.200 C  
HETATM   20  O   UNL     1      -6.951  10.444  63.688  1.00  0.00    -0.275 OA 
HETATM   21  H   UNL     1      -6.339  10.415  64.414  1.00  0.00     0.000 HD 
BRANCH  19  22
HETATM   22  C   UNL     1      -8.875   9.275  66.389  1.00  0.00    -0.169 C  
BRANCH  22  23
HETATM   23  C   UNL     1     -10.034   8.289  66.217  1.00  0.00    -0.179 C  
BRANCH  23  24
HETATM   24  C   UNL     1     -10.768   7.937  67.516  1.00  0.00    -0.181 C  
HETATM   25  O   UNL     1     -11.436   6.683  67.376  1.00  0.00    -0.747 OA 
HETATM   26  H   UNL     1     -11.890   6.465  68.181  1.00  0.00     0.000 HD 
BRANCH  24  27
HETATM   27  C   UNL     1      -9.790   7.801  68.693  1.00  0.00    -0.174 C  
BRANCH  27  28
HETATM   28  C   UNL     1      -9.444   6.347  69.014  1.00  0.00    -0.131 C  
BRANCH  28  29
HETATM   29  C   UNL     1      -9.926   5.935  70.379  1.00  0.00    -0.247 A  
HETATM   30  C   UNL     1     -10.295   6.909  71.316  1.00  0.00    -0.221 A  
HETATM   31  C   UNL     1     -10.746   6.534  72.581  1.00  0.00    -0.260 A  
HETATM   32  C   UNL     1     -10.827   5.185  72.920  1.00  0.00    -0.324 A  
HETATM   33  C   UNL     1     -10.452   4.210  71.996  1.00  0.00    -0.068 A  
HETATM   34  C   UNL     1     -10.001   4.583  70.730  1.00  0.00    -0.269 A  
ENDBRANCH  28  29
ENDBRANCH  27  28
ENDBRANCH  24  27
ENDBRANCH  23  24
ENDBRANCH  22  23
ENDBRANCH  19  22
ENDBRANCH  12  13
ENDBRANCH  11  12
ENDBRANCH   9  10
ENDBRANCH   8   9
ENDBRANCH   7   8
ENDBRANCH   5   7
ENDBRANCH   4   5
ENDBRANCH   2   4
TORSDOF 14
ENDMDL
MODEL      190
REMARK 921   NORMALIZED FREE ENERGY PREDICTED BY IDOCK:   -4.17 KCAL/MOL
REMARK 922        TOTAL FREE ENERGY PREDICTED BY IDOCK:  -10.87 KCAL/MOL
REMARK 923 INTER-LIGAND FREE ENERGY PREDICTED BY IDOCK:   -8.73 KCAL/MOL
REMARK 924 INTRA-LIGAND FREE ENERGY PREDICTED BY IDOCK:   -2.14 KCAL/MOL
REMARK 927      BINDING AFFINITY PREDICTED BY RF-SCORE:    0.00 PKD
ROOT
HETATM    1  C   UNL     1     -10.282  17.863  66.165  1.00  0.00    -0.343 C  
HETATM    2  C   UNL     1      -9.756  16.450  66.389  1.00  0.00    -0.287 C  
HETATM    3  C   UNL     1      -8.680  16.438  67.467  1.00  0.00    -0.188 C  
ENDROOT
BRANCH   2   4
HETATM    4  O   UNL     1     -10.830  15.604  66.840  1.00  0.00    -0.315 OA 
BRANCH   4   5
HETATM    5  C   UNL     1     -11.231  14.651  65.950  1.00  0.00    -0.336 C  
HETATM    6  O   UNL     1     -11.136  14.736  64.731  1.00  0.00    -0.387 OA 
BRANCH   5   7
HETATM    7  C   UNL     1     -11.830  13.483  66.691  1.00  0.00    -0.450 C  
BRANCH   7   8
HETATM    8  C   UNL     1     -11.885  13.763  68.194  1.00  0.00    -0.411 C  
BRANCH   8   9
HETATM    9  C   UNL     1     -12.006  12.496  69.037  1.00  0.00    -0.280 C  
BRANCH   9  10
HETATM   10  C   UNL     1     -12.116  12.794  70.505  1.00  0.00    -0.369 C  
HETATM   11  C   UNL     1     -12.672  12.009  71.444  1.00  0.00    -0.380 C  
BRANCH  11  12
HETATM   12  C   UNL     1     -13.282  10.653  71.234  1.00  0.00    -0.357 C  
BRANCH  12  13
HETATM   13  C   UNL     1     -12.445   9.454  71.712  1.00  0.00    -0.471 C  
HETATM   14  C   UNL     1     -13.345   8.245  72.026  1.00  0.00    -0.313 C  
HETATM   15  C   UNL     1     -12.360   7.096  72.124  1.00  0.00    -0.228 C  
HETATM   16  O   UNL     1     -14.243   7.963  70.953  1.00  0.00    -0.643 OA 
HETATM   17  C   UNL     1     -11.404   7.355  70.965  1.00  0.00    -0.275 C  
HETATM   18  H   UNL     1     -14.799   7.218  71.147  1.00  0.00     0.000 HD 
HETATM   19  C   UNL     1     -11.436   8.881  70.684  1.00  0.00    -0.280 C  
HETATM   20  O   UNL     1     -11.846   6.661  69.800  1.00  0.00    -0.640 OA 
HETATM   21  H   UNL     1     -11.250   6.823  69.078  1.00  0.00     0.000 HD 
BRANCH  19  22
HETATM   22  C   UNL     1     -10.031   9.500  70.804  1.00  0.00    -0.334 C  
BRANCH  22  23
HETATM   23  C   UNL     1      -9.408   9.706  69.420  1.00  0.00    -0.201 C  
BRANCH  23  24
HETATM   24  C   UNL     1      -7.951   9.244  69.304  1.00  0.00    -0.098 C  
HETATM   25  O   UNL     1      -7.562   8.551  70.490  1.00  0.00    -0.064 OA 
HETATM   26  H   UNL     1      -6.660   8.264  70.418  1.00  0.00     0.000 HD 
BRANCH  24  27
HETATM   27  C   UNL     1      -7.763   8.273  68.128  1.00  0.00    -0.106 C  
BRANCH  27  28
HETATM   28  C   UNL     1      -7.989   6.813  68.522  1.00  0.00    -0.119 C  
BRANCH  28  29
HETATM   29  C   UNL     1      -8.677   6.030  67.436  1.00  0.00    -0.104 A  
HETATM   30  C   UNL     1      -7.970   5.057  66.717  1.00  0.00    -0.104 A  
HETATM   31  C   UNL     1      -8.603   4.325  65.713  1.00  0.00    -0.114 A  
HETATM   32  C   UNL     1      -9.943   4.563  65.418  1.00  0.00    -0.207 A  
HETATM   33  C   UNL     1     -10.651   5.536  66.122  1.00  0.00    -0.136 A  
HETATM   34  C   UNL     1     -10.020   6.270  67.127  1.00  0.00    -0.189 A  
ENDBRANCH  28  29
ENDBRANCH  27  28
ENDBRANCH  24  27
ENDBRANCH  23  24
ENDBRANCH  22  23
ENDBRANCH  19  22
ENDBRANCH  12  13
ENDBRANCH  11  12
ENDBRANCH   9  10
ENDBRANCH   8   9
ENDBRANCH   7   8
ENDBRANCH   5   7
ENDBRANCH   4   5
ENDBRANCH   2   4
TORSDOF 14
ENDMDL
MODEL      191
REMARK 921   NORMALIZED FREE ENERGY PREDICTED BY IDOCK:   -4.17 KCAL/MOL
REMARK 922        TOTAL FREE ENERGY PREDICTED BY IDOCK:  -10.87 KCAL/MOL
REMARK 923 INTER-LIGAND FREE ENERGY PREDICTED BY IDOCK:   -8.42 KCAL/MOL
REMARK 924 INTRA-LIGAND FREE ENERGY PREDICTED BY IDOCK:   -2.44 KCAL/MOL
REMARK 927      BINDING AFFINITY PREDICTED BY RF-SCORE:    0.00 PKD
ROOT
HETATM    1  C   UNL     1      -8.478   6.469  71.646  1.00  0.00    -0.124 C  
HETATM    2  C   UNL     1      -9.755   5.902  71.037  1.00  0.00    -0.172 C  
HETATM    3  C   UNL     1     -10.244   4.697  71.831  1.00  0.00    -0.254 C  
ENDROOT
BRANCH   2   4
HETATM    4  O   UNL     1     -10.792   6.900  71.083  1.00  0.00    -0.233 OA 
BRANCH   4   5
HETATM    5  C   UNL     1     -10.691   7.793  72.110  1.00  0.00    -0.248 C  
HETATM    6  O   UNL     1     -10.715   7.509  73.301  1.00  0.00    -0.375 OA 
BRANCH   5   7
HETATM    7  C   UNL     1     -10.569   9.190  71.557  1.00  0.00    -0.428 C  
BRANCH   7   8
HETATM    8  C   UNL     1     -11.514   9.391  70.371  1.00  0.00    -0.272 C  
BRANCH   8   9
HETATM    9  C   UNL     1     -10.840  10.051  69.171  1.00  0.00    -0.253 C  
BRANCH   9  10
HETATM   10  C   UNL     1      -9.407   9.625  69.013  1.00  0.00    -0.159 C  
HETATM   11  C   UNL     1      -8.956   8.571  68.311  1.00  0.00    -0.139 C  
BRANCH  11  12
HETATM   12  C   UNL     1      -9.783   7.606  67.510  1.00  0.00    -0.197 C  
BRANCH  12  13
HETATM   13  C   UNL     1      -9.037   6.383  66.948  1.00  0.00    -0.138 C  
HETATM   14  C   UNL     1      -9.944   5.139  66.948  1.00  0.00    -0.201 C  
HETATM   15  C   UNL     1      -9.195   4.165  66.059  1.00  0.00    -0.149 C  
HETATM   16  O   UNL     1     -11.207   5.407  66.339  1.00  0.00    -0.622 OA 
HETATM   17  C   UNL     1      -8.704   5.043  64.913  1.00  0.00    -0.150 C  
HETATM   18  H   UNL     1     -11.767   4.640  66.339  1.00  0.00     0.000 HD 
HETATM   19  C   UNL     1      -8.586   6.488  65.468  1.00  0.00    -0.109 C  
HETATM   20  O   UNL     1      -9.651   5.034  63.847  1.00  0.00    -0.336 OA 
HETATM   21  H   UNL     1      -9.345   5.581  63.133  1.00  0.00     0.000 HD 
BRANCH  19  22
HETATM   22  C   UNL     1      -7.155   7.032  65.309  1.00  0.00    -0.068 C  
BRANCH  22  23
HETATM   23  C   UNL     1      -7.128   8.213  64.334  1.00  0.00    -0.078 C  
BRANCH  23  24
HETATM   24  C   UNL     1      -7.593   9.545  64.936  1.00  0.00    -0.111 C  
HETATM   25  O   UNL     1      -6.592  10.544  64.741  1.00  0.00    -0.297 OA 
HETATM   26  H   UNL     1      -6.880  11.369  65.113  1.00  0.00     0.000 HD 
BRANCH  24  27
HETATM   27  C   UNL     1      -8.876  10.049  64.257  1.00  0.00    -0.245 C  
BRANCH  27  28
HETATM   28  C   UNL     1     -10.066  10.121  65.214  1.00  0.00    -0.344 C  
BRANCH  28  29
HETATM   29  C   UNL     1     -10.883  11.368  65.014  1.00  0.00    -0.311 A  
HETATM   30  C   UNL     1     -11.268  11.756  63.724  1.00  0.00    -0.518 A  
HETATM   31  C   UNL     1     -12.030  12.907  63.532  1.00  0.00    -0.629 A  
HETATM   32  C   UNL     1     -12.406  13.683  64.626  1.00  0.00    -0.413 A  
HETATM   33  C   UNL     1     -12.019  13.310  65.913  1.00  0.00    -0.466 A  
HETATM   34  C   UNL     1     -11.257  12.157  66.107  1.00  0.00    -0.386 A  
ENDBRANCH  28  29
ENDBRANCH  27  28
ENDBRANCH  24  27
ENDBRANCH  23  24
ENDBRANCH  22  23
ENDBRANCH  19  22
ENDBRANCH  12  13
ENDBRANCH  11  12
ENDBRANCH   9  10
ENDBRANCH   8   9
ENDBRANCH   7   8
ENDBRANCH   5   7
ENDBRANCH   4   5
ENDBRANCH   2   4
TORSDOF 14
ENDMDL
MODEL      192
REMARK 921   NORMALIZED FREE ENERGY PREDICTED BY IDOCK:   -4.15 KCAL/MOL
REMARK 922        TOTAL FREE ENERGY PREDICTED BY IDOCK:  -10.84 KCAL/MOL
REMARK 923 INTER-LIGAND FREE ENERGY PREDICTED BY IDOCK:   -8.90 KCAL/MOL
REMARK 924 INTRA-LIGAND FREE ENERGY PREDICTED BY IDOCK:   -1.94 KCAL/MOL
REMARK 927      BINDING AFFINITY PREDICTED BY RF-SCORE:    0.00 PKD
ROOT
HETATM    1  C   UNL     1     -10.604  17.052  65.573  1.00  0.00    -0.184 C  
HETATM    2  C   UNL     1      -9.872  18.119  66.379  1.00  0.00    -0.353 C  
HETATM    3  C   UNL     1     -10.574  19.466  66.257  1.00  0.00    -0.569 C  
ENDROOT
BRANCH   2   4
HETATM    4  O   UNL     1      -9.875  17.755  67.772  1.00  0.00    -0.276 OA 
BRANCH   4   5
HETATM    5  C   UNL     1      -8.793  18.181  68.485  1.00  0.00    -0.299 C  
HETATM    6  O   UNL     1      -8.708  19.254  69.069  1.00  0.00    -0.335 OA 
BRANCH   5   7
HETATM    7  C   UNL     1      -7.705  17.140  68.429  1.00  0.00    -0.237 C  
BRANCH   7   8
HETATM    8  C   UNL     1      -8.296  15.730  68.492  1.00  0.00    -0.175 C  
BRANCH   8   9
HETATM    9  C   UNL     1      -7.834  14.833  67.347  1.00  0.00    -0.224 C  
BRANCH   9  10
HETATM   10  C   UNL     1      -7.482  13.448  67.811  1.00  0.00    -0.160 C  
HETATM   11  C   UNL     1      -8.325  12.411  67.954  1.00  0.00    -0.165 C  
BRANCH  11  12
HETATM   12  C   UNL     1      -9.797  12.404  67.658  1.00  0.00    -0.198 C  
BRANCH  12  13
HETATM   13  C   UNL     1     -10.259  11.439  66.551  1.00  0.00    -0.259 C  
HETATM   14  C   UNL     1     -10.764  12.216  65.321  1.00  0.00    -0.288 C  
HETATM   15  C   UNL     1     -10.827  11.152  64.242  1.00  0.00    -0.354 C  
HETATM   16  O   UNL     1      -9.827  13.209  64.904  1.00  0.00    -0.538 OA 
HETATM   17  C   UNL     1      -9.547  10.353  64.463  1.00  0.00    -0.309 C  
HETATM   18  H   UNL     1     -10.139  13.689  64.145  1.00  0.00     0.000 HD 
HETATM   19  C   UNL     1      -9.162  10.518  65.957  1.00  0.00    -0.205 C  
HETATM   20  O   UNL     1      -8.496  10.877  63.654  1.00  0.00    -0.353 OA 
HETATM   21  H   UNL     1      -7.699  10.379  63.792  1.00  0.00     0.000 HD 
BRANCH  19  22
HETATM   22  C   UNL     1      -9.070   9.153  66.664  1.00  0.00    -0.182 C  
BRANCH  22  23
HETATM   23  C   UNL     1     -10.454   8.686  67.125  1.00  0.00    -0.360 C  
BRANCH  23  24
HETATM   24  C   UNL     1     -10.807   7.250  66.720  1.00  0.00    -0.056 C  
HETATM   25  O   UNL     1      -9.739   6.678  65.964  1.00  0.00    -0.397 OA 
HETATM   26  H   UNL     1      -9.957   5.789  65.714  1.00  0.00     0.000 HD 
BRANCH  24  27
HETATM   27  C   UNL     1     -11.019   6.356  67.952  1.00  0.00    -0.416 C  
BRANCH  27  28
HETATM   28  C   UNL     1     -10.857   7.113  69.271  1.00  0.00    -0.204 C  
BRANCH  28  29
HETATM   29  C   UNL     1     -10.797   6.188  70.455  1.00  0.00    -0.364 A  
HETATM   30  C   UNL     1      -9.913   5.100  70.452  1.00  0.00    -0.316 A  
HETATM   31  C   UNL     1      -9.848   4.242  71.549  1.00  0.00    -0.260 A  
HETATM   32  C   UNL     1     -10.669   4.460  72.653  1.00  0.00    -0.204 A  
HETATM   33  C   UNL     1     -11.558   5.534  72.660  1.00  0.00    -0.293 A  
HETATM   34  C   UNL     1     -11.624   6.395  71.564  1.00  0.00    -0.364 A  
ENDBRANCH  28  29
ENDBRANCH  27  28
ENDBRANCH  24  27
ENDBRANCH  23  24
ENDBRANCH  22  23
ENDBRANCH  19  22
ENDBRANCH  12  13
ENDBRANCH  11  12
ENDBRANCH   9  10
ENDBRANCH   8   9
ENDBRANCH   7   8
ENDBRANCH   5   7
ENDBRANCH   4   5
ENDBRANCH   2   4
TORSDOF 14
ENDMDL
MODEL      193
REMARK 921   NORMALIZED FREE ENERGY PREDICTED BY IDOCK:   -4.15 KCAL/MOL
REMARK 922        TOTAL FREE ENERGY PREDICTED BY IDOCK:  -10.84 KCAL/MOL
REMARK 923 INTER-LIGAND FREE ENERGY PREDICTED BY IDOCK:   -8.40 KCAL/MOL
REMARK 924 INTRA-LIGAND FREE ENERGY PREDICTED BY IDOCK:   -2.44 KCAL/MOL
REMARK 927      BINDING AFFINITY PREDICTED BY RF-SCORE:    0.00 PKD
ROOT
HETATM    1  C   UNL     1     -10.024   7.201  71.401  1.00  0.00    -0.193 C  
HETATM    2  C   UNL     1     -10.445   7.427  69.954  1.00  0.00    -0.231 C  
HETATM    3  C   UNL     1     -11.068   6.166  69.369  1.00  0.00    -0.479 C  
ENDROOT
BRANCH   2   4
HETATM    4  O   UNL     1     -11.439   8.467  69.901  1.00  0.00    -0.026 OA 
BRANCH   4   5
HETATM    5  C   UNL     1     -12.240   8.560  71.002  1.00  0.00    -0.168 C  
HETATM    6  O   UNL     1     -13.000   7.686  71.400  1.00  0.00    -0.339 OA 
BRANCH   5   7
HETATM    7  C   UNL     1     -12.066   9.913  71.643  1.00  0.00    -0.457 C  
BRANCH   7   8
HETATM    8  C   UNL     1     -11.673  10.963  70.602  1.00  0.00    -0.418 C  
BRANCH   8   9
HETATM    9  C   UNL     1     -12.646  12.138  70.538  1.00  0.00    -0.184 C  
BRANCH   9  10
HETATM   10  C   UNL     1     -12.045  13.342  69.870  1.00  0.00    -0.389 C  
HETATM   11  C   UNL     1     -11.723  13.462  68.571  1.00  0.00    -0.392 C  
BRANCH  11  12
HETATM   12  C   UNL     1     -11.915  12.428  67.499  1.00  0.00    -0.253 C  
BRANCH  12  13
HETATM   13  C   UNL     1     -11.199  12.697  66.164  1.00  0.00    -0.350 C  
HETATM   14  C   UNL     1     -12.075  12.264  64.973  1.00  0.00    -0.327 C  
HETATM   15  C   UNL     1     -11.392  12.915  63.786  1.00  0.00    -0.490 C  
HETATM   16  O   UNL     1     -13.395  12.798  65.068  1.00  0.00    -0.678 OA 
HETATM   17  C   UNL     1     -11.030  14.302  64.308  1.00  0.00    -0.028 C  
HETATM   18  H   UNL     1     -13.935  12.531  64.333  1.00  0.00     0.000 HD 
HETATM   19  C   UNL     1     -10.893  14.184  65.849  1.00  0.00    -0.294 C  
HETATM   20  O   UNL     1     -12.073  15.227  64.006  1.00  0.00    -0.901 OA 
HETATM   21  H   UNL     1     -11.848  16.090  64.332  1.00  0.00     0.000 HD 
BRANCH  19  22
HETATM   22  C   UNL     1      -9.495  14.626  66.320  1.00  0.00    -0.322 C  
BRANCH  22  23
HETATM   23  C   UNL     1      -9.602  15.702  67.405  1.00  0.00    -0.217 C  
BRANCH  23  24
HETATM   24  C   UNL     1      -8.432  15.725  68.396  1.00  0.00    -0.170 C  
HETATM   25  O   UNL     1      -8.866  15.258  69.674  1.00  0.00    -0.379 OA 
HETATM   26  H   UNL     1      -8.142  15.272  70.288  1.00  0.00     0.000 HD 
BRANCH  24  27
HETATM   27  C   UNL     1      -7.293  14.802  67.939  1.00  0.00    -0.162 C  
BRANCH  27  28
HETATM   28  C   UNL     1      -6.890  13.782  69.004  1.00  0.00    -0.111 C  
BRANCH  28  29
HETATM   29  C   UNL     1      -7.166  12.367  68.572  1.00  0.00    -0.103 A  
HETATM   30  C   UNL     1      -8.427  11.799  68.794  1.00  0.00     0.005 A  
HETATM   31  C   UNL     1      -8.692  10.491  68.391  1.00  0.00    -0.137 A  
HETATM   32  C   UNL     1      -7.697   9.739  67.770  1.00  0.00    -0.091 A  
HETATM   33  C   UNL     1      -6.436  10.294  67.554  1.00  0.00    -0.066 A  
HETATM   34  C   UNL     1      -6.170  11.603  67.955  1.00  0.00    -0.047 A  
ENDBRANCH  28  29
ENDBRANCH  27  28
ENDBRANCH  24  27
ENDBRANCH  23  24
ENDBRANCH  22  23
ENDBRANCH  19  22
ENDBRANCH  12  13
ENDBRANCH  11  12
ENDBRANCH   9  10
ENDBRANCH   8   9
ENDBRANCH   7   8
ENDBRANCH   5   7
ENDBRANCH   4   5
ENDBRANCH   2   4
TORSDOF 14
ENDMDL
MODEL      194
REMARK 921   NORMALIZED FREE ENERGY PREDICTED BY IDOCK:   -4.14 KCAL/MOL
REMARK 922        TOTAL FREE ENERGY PREDICTED BY IDOCK:  -10.81 KCAL/MOL
REMARK 923 INTER-LIGAND FREE ENERGY PREDICTED BY IDOCK:   -8.50 KCAL/MOL
REMARK 924 INTRA-LIGAND FREE ENERGY PREDICTED BY IDOCK:   -2.31 KCAL/MOL
REMARK 927      BINDING AFFINITY PREDICTED BY RF-SCORE:    0.00 PKD
ROOT
HETATM    1  C   UNL     1     -10.162   4.989  67.333  1.00  0.00    -0.201 C  
HETATM    2  C   UNL     1      -8.805   5.681  67.381  1.00  0.00    -0.105 C  
HETATM    3  C   UNL     1      -8.214   5.810  65.983  1.00  0.00    -0.114 C  
ENDROOT
BRANCH   2   4
HETATM    4  O   UNL     1      -8.964   7.011  67.908  1.00  0.00    -0.123 OA 
BRANCH   4   5
HETATM    5  C   UNL     1     -10.234   7.508  67.856  1.00  0.00    -0.194 C  
HETATM    6  O   UNL     1     -10.846   7.780  66.830  1.00  0.00    -0.311 OA 
BRANCH   5   7
HETATM    7  C   UNL     1     -10.765   7.694  69.254  1.00  0.00    -0.169 C  
BRANCH   7   8
HETATM    8  C   UNL     1      -9.985   8.784  69.992  1.00  0.00    -0.196 C  
BRANCH   8   9
HETATM    9  C   UNL     1     -10.835  10.006  70.332  1.00  0.00    -0.380 C  
BRANCH   9  10
HETATM   10  C   UNL     1     -11.609  10.512  69.148  1.00  0.00    -0.295 C  
HETATM   11  C   UNL     1     -11.137  11.272  68.145  1.00  0.00    -0.319 C  
BRANCH  11  12
HETATM   12  C   UNL     1      -9.727  11.761  67.977  1.00  0.00    -0.185 C  
BRANCH  12  13
HETATM   13  C   UNL     1      -9.148  11.674  66.554  1.00  0.00    -0.200 C  
HETATM   14  C   UNL     1      -7.876  10.806  66.531  1.00  0.00    -0.145 C  
HETATM   15  C   UNL     1      -7.663  10.543  65.052  1.00  0.00    -0.039 C  
HETATM   16  O   UNL     1      -8.083   9.549  67.175  1.00  0.00    -0.105 OA 
HETATM   17  C   UNL     1      -9.073  10.264  64.541  1.00  0.00    -0.234 C  
HETATM   18  H   UNL     1      -7.298   9.014  67.161  1.00  0.00     0.000 HD 
HETATM   19  C   UNL     1     -10.054  10.994  65.496  1.00  0.00    -0.316 C  
HETATM   20  O   UNL     1      -9.342   8.864  64.583  1.00  0.00    -0.397 OA 
HETATM   21  H   UNL     1     -10.220   8.690  64.265  1.00  0.00     0.000 HD 
BRANCH  19  22
HETATM   22  C   UNL     1     -10.941  11.992  64.728  1.00  0.00    -0.361 C  
BRANCH  22  23
HETATM   23  C   UNL     1     -10.307  13.386  64.716  1.00  0.00    -0.397 C  
BRANCH  23  24
HETATM   24  C   UNL     1     -11.280  14.530  65.021  1.00  0.00    -0.382 C  
HETATM   25  O   UNL     1     -12.619  14.034  65.065  1.00  0.00    -0.565 OA 
HETATM   26  H   UNL     1     -13.222  14.743  65.254  1.00  0.00     0.000 HD 
BRANCH  24  27
HETATM   27  C   UNL     1     -10.987  15.165  66.389  1.00  0.00    -0.329 C  
BRANCH  27  28
HETATM   28  C   UNL     1      -9.557  15.694  66.505  1.00  0.00    -0.293 C  
BRANCH  28  29
HETATM   29  C   UNL     1      -9.506  17.198  66.524  1.00  0.00    -0.290 A  
HETATM   30  C   UNL     1      -8.351  17.854  66.970  1.00  0.00    -0.248 A  
HETATM   31  C   UNL     1      -8.294  19.247  66.986  1.00  0.00    -0.300 A  
HETATM   32  C   UNL     1      -9.392  19.993  66.563  1.00  0.00    -0.494 A  
HETATM   33  C   UNL     1     -10.549  19.348  66.127  1.00  0.00    -0.571 A  
HETATM   34  C   UNL     1     -10.607  17.954  66.110  1.00  0.00    -0.243 A  
ENDBRANCH  28  29
ENDBRANCH  27  28
ENDBRANCH  24  27
ENDBRANCH  23  24
ENDBRANCH  22  23
ENDBRANCH  19  22
ENDBRANCH  12  13
ENDBRANCH  11  12
ENDBRANCH   9  10
ENDBRANCH   8   9
ENDBRANCH   7   8
ENDBRANCH   5   7
ENDBRANCH   4   5
ENDBRANCH   2   4
TORSDOF 14
ENDMDL
MODEL      195
REMARK 921   NORMALIZED FREE ENERGY PREDICTED BY IDOCK:   -4.11 KCAL/MOL
REMARK 922        TOTAL FREE ENERGY PREDICTED BY IDOCK:  -10.76 KCAL/MOL
REMARK 923 INTER-LIGAND FREE ENERGY PREDICTED BY IDOCK:   -9.55 KCAL/MOL
REMARK 924 INTRA-LIGAND FREE ENERGY PREDICTED BY IDOCK:   -1.21 KCAL/MOL
REMARK 927      BINDING AFFINITY PREDICTED BY RF-SCORE:    0.00 PKD
ROOT
HETATM    1  C   UNL     1      -6.493  21.026  67.544  1.00  0.00    -0.420 C  
HETATM    2  C   UNL     1      -6.200  19.598  67.990  1.00  0.00    -0.218 C  
HETATM    3  C   UNL     1      -6.283  19.477  69.506  1.00  0.00    -0.335 C  
ENDROOT
BRANCH   2   4
HETATM    4  O   UNL     1      -7.185  18.710  67.430  1.00  0.00    -0.206 OA 
BRANCH   4   5
HETATM    5  C   UNL     1      -8.386  19.287  67.135  1.00  0.00    -0.280 C  
HETATM    6  O   UNL     1      -8.674  19.815  66.068  1.00  0.00    -0.367 OA 
BRANCH   5   7
HETATM    7  C   UNL     1      -9.299  19.199  68.331  1.00  0.00    -0.416 C  
BRANCH   7   8
HETATM    8  C   UNL     1      -9.624  17.741  68.661  1.00  0.00    -0.322 C  
BRANCH   8   9
HETATM    9  C   UNL     1     -10.847  17.214  67.916  1.00  0.00    -0.294 C  
BRANCH   9  10
HETATM   10  C   UNL     1     -11.467  16.028  68.600  1.00  0.00    -0.377 C  
HETATM   11  C   UNL     1     -11.314  14.737  68.262  1.00  0.00    -0.319 C  
BRANCH  11  12
HETATM   12  C   UNL     1     -10.470  14.195  67.145  1.00  0.00    -0.270 C  
BRANCH  12  13
HETATM   13  C   UNL     1     -11.074  13.025  66.348  1.00  0.00    -0.313 C  
HETATM   14  C   UNL     1     -11.237  13.398  64.863  1.00  0.00    -0.331 C  
HETATM   15  C   UNL     1     -11.489  12.059  64.196  1.00  0.00    -0.460 C  
HETATM   16  O   UNL     1     -10.032  13.938  64.320  1.00  0.00    -0.714 OA 
HETATM   17  C   UNL     1     -10.499  11.130  64.891  1.00  0.00    -0.308 C  
HETATM   18  H   UNL     1     -10.132  14.168  63.404  1.00  0.00     0.000 HD 
HETATM   19  C   UNL     1     -10.220  11.733  66.293  1.00  0.00    -0.255 C  
HETATM   20  O   UNL     1      -9.277  11.079  64.157  1.00  0.00    -0.244 OA 
HETATM   21  H   UNL     1      -8.661  10.500  64.591  1.00  0.00     0.000 HD 
BRANCH  19  22
HETATM   22  C   UNL     1     -10.567  10.730  67.410  1.00  0.00    -0.287 C  
BRANCH  22  23
HETATM   23  C   UNL     1     -11.651  11.297  68.331  1.00  0.00    -0.378 C  
BRANCH  23  24
HETATM   24  C   UNL     1     -11.287  11.290  69.821  1.00  0.00    -0.271 C  
HETATM   25  O   UNL     1     -11.967  12.350  70.494  1.00  0.00    -0.482 OA 
HETATM   26  H   UNL     1     -11.742  12.346  71.417  1.00  0.00     0.000 HD 
BRANCH  24  27
HETATM   27  C   UNL     1     -11.712   9.977  70.496  1.00  0.00    -0.400 C  
BRANCH  27  28
HETATM   28  C   UNL     1     -10.573   9.310  71.267  1.00  0.00    -0.417 C  
BRANCH  28  29
HETATM   29  C   UNL     1      -9.513   8.757  70.353  1.00  0.00    -0.206 A  
HETATM   30  C   UNL     1      -9.792   7.645  69.547  1.00  0.00    -0.178 A  
HETATM   31  C   UNL     1      -8.817   7.131  68.694  1.00  0.00    -0.126 A  
HETATM   32  C   UNL     1      -7.555   7.719  68.645  1.00  0.00    -0.105 A  
HETATM   33  C   UNL     1      -7.266   8.820  69.452  1.00  0.00    -0.061 A  
HETATM   34  C   UNL     1      -8.241   9.336  70.305  1.00  0.00    -0.187 A  
ENDBRANCH  28  29
ENDBRANCH  27  28
ENDBRANCH  24  27
ENDBRANCH  23  24
ENDBRANCH  22  23
ENDBRANCH  19  22
ENDBRANCH  12  13
ENDBRANCH  11  12
ENDBRANCH   9  10
ENDBRANCH   8   9
ENDBRANCH   7   8
ENDBRANCH   5   7
ENDBRANCH   4   5
ENDBRANCH   2   4
TORSDOF 14
ENDMDL
MODEL      196
REMARK 921   NORMALIZED FREE ENERGY PREDICTED BY IDOCK:   -4.10 KCAL/MOL
REMARK 922        TOTAL FREE ENERGY PREDICTED BY IDOCK:  -10.74 KCAL/MOL
REMARK 923 INTER-LIGAND FREE ENERGY PREDICTED BY IDOCK:   -8.96 KCAL/MOL
REMARK 924 INTRA-LIGAND FREE ENERGY PREDICTED BY IDOCK:   -1.79 KCAL/MOL
REMARK 927      BINDING AFFINITY PREDICTED BY RF-SCORE:    0.00 PKD
ROOT
HETATM    1  C   UNL     1      -7.360  20.531  67.335  1.00  0.00    -0.371 C  
HETATM    2  C   UNL     1      -6.413  19.540  68.001  1.00  0.00    -0.230 C  
HETATM    3  C   UNL     1      -6.601  19.542  69.512  1.00  0.00    -0.365 C  
ENDROOT
BRANCH   2   4
HETATM    4  O   UNL     1      -6.703  18.210  67.531  1.00  0.00    -0.187 OA 
BRANCH   4   5
HETATM    5  C   UNL     1      -7.870  18.083  66.835  1.00  0.00    -0.226 C  
HETATM    6  O   UNL     1      -7.998  18.253  65.629  1.00  0.00    -0.494 OA 
BRANCH   5   7
HETATM    7  C   UNL     1      -8.988  17.722  67.780  1.00  0.00    -0.249 C  
BRANCH   7   8
HETATM    8  C   UNL     1      -9.496  16.306  67.506  1.00  0.00    -0.227 C  
BRANCH   8   9
HETATM    9  C   UNL     1     -11.008  16.168  67.670  1.00  0.00    -0.268 C  
BRANCH   9  10
HETATM   10  C   UNL     1     -11.383  15.435  68.927  1.00  0.00    -0.322 C  
HETATM   11  C   UNL     1     -11.202  14.128  69.178  1.00  0.00    -0.307 C  
BRANCH  11  12
HETATM   12  C   UNL     1     -10.563  13.119  68.267  1.00  0.00    -0.260 C  
BRANCH  12  13
HETATM   13  C   UNL     1     -10.053  11.832  68.937  1.00  0.00    -0.088 C  
HETATM   14  C   UNL     1     -11.186  11.125  69.705  1.00  0.00    -0.264 C  
HETATM   15  C   UNL     1     -10.612   9.748  69.979  1.00  0.00    -0.320 C  
HETATM   16  O   UNL     1     -12.350  10.962  68.894  1.00  0.00    -0.752 OA 
HETATM   17  C   UNL     1      -9.919   9.391  68.669  1.00  0.00    -0.173 C  
HETATM   18  H   UNL     1     -13.049  10.526  69.368  1.00  0.00     0.000 HD 
HETATM   19  C   UNL     1      -9.539  10.728  67.978  1.00  0.00    -0.172 C  
HETATM   20  O   UNL     1     -10.811   8.669  67.822  1.00  0.00    -0.472 OA 
HETATM   21  H   UNL     1     -10.379   8.447  67.006  1.00  0.00     0.000 HD 
BRANCH  19  22
HETATM   22  C   UNL     1      -8.024  10.811  67.716  1.00  0.00    -0.110 C  
BRANCH  22  23
HETATM   23  C   UNL     1      -7.744  11.174  66.255  1.00  0.00    -0.097 C  
BRANCH  23  24
HETATM   24  C   UNL     1      -7.754   9.983  65.290  1.00  0.00    -0.139 C  
HETATM   25  O   UNL     1      -7.611   8.763  66.019  1.00  0.00    -0.091 OA 
HETATM   26  H   UNL     1      -7.617   8.025  65.421  1.00  0.00     0.000 HD 
BRANCH  24  27
HETATM   27  C   UNL     1      -9.079   9.898  64.518  1.00  0.00    -0.296 C  
BRANCH  27  28
HETATM   28  C   UNL     1      -9.247  11.026  63.500  1.00  0.00    -0.232 C  
BRANCH  28  29
HETATM   29  C   UNL     1     -10.351  11.975  63.878  1.00  0.00    -0.433 A  
HETATM   30  C   UNL     1     -10.042  13.232  64.417  1.00  0.00    -0.190 A  
HETATM   31  C   UNL     1     -11.060  14.119  64.765  1.00  0.00    -0.393 A  
HETATM   32  C   UNL     1     -12.393  13.755  64.583  1.00  0.00    -0.410 A  
HETATM   33  C   UNL     1     -12.709  12.503  64.057  1.00  0.00    -0.416 A  
HETATM   34  C   UNL     1     -11.691  11.614  63.708  1.00  0.00    -0.403 A  
ENDBRANCH  28  29
ENDBRANCH  27  28
ENDBRANCH  24  27
ENDBRANCH  23  24
ENDBRANCH  22  23
ENDBRANCH  19  22
ENDBRANCH  12  13
ENDBRANCH  11  12
ENDBRANCH   9  10
ENDBRANCH   8   9
ENDBRANCH   7   8
ENDBRANCH   5   7
ENDBRANCH   4   5
ENDBRANCH   2   4
TORSDOF 14
ENDMDL
MODEL      197
REMARK 921   NORMALIZED FREE ENERGY PREDICTED BY IDOCK:   -4.09 KCAL/MOL
REMARK 922        TOTAL FREE ENERGY PREDICTED BY IDOCK:  -10.74 KCAL/MOL
REMARK 923 INTER-LIGAND FREE ENERGY PREDICTED BY IDOCK:   -7.76 KCAL/MOL
REMARK 924 INTRA-LIGAND FREE ENERGY PREDICTED BY IDOCK:   -2.97 KCAL/MOL
REMARK 927      BINDING AFFINITY PREDICTED BY RF-SCORE:    0.00 PKD
ROOT
HETATM    1  C   UNL     1     -10.623   8.228  67.017  1.00  0.00    -0.328 C  
HETATM    2  C   UNL     1      -9.209   8.482  66.506  1.00  0.00    -0.190 C  
HETATM    3  C   UNL     1      -8.745   7.343  65.607  1.00  0.00    -0.099 C  
ENDROOT
BRANCH   2   4
HETATM    4  O   UNL     1      -9.194   9.688  65.719  1.00  0.00    -0.177 OA 
BRANCH   4   5
HETATM    5  C   UNL     1      -9.335  10.845  66.428  1.00  0.00    -0.176 C  
HETATM    6  O   UNL     1     -10.260  11.639  66.310  1.00  0.00    -0.215 OA 
BRANCH   5   7
HETATM    7  C   UNL     1      -8.167  11.012  67.366  1.00  0.00    -0.122 C  
BRANCH   7   8
HETATM    8  C   UNL     1      -8.624  10.938  68.824  1.00  0.00    -0.159 C  
BRANCH   8   9
HETATM    9  C   UNL     1      -7.636  10.202  69.726  1.00  0.00    -0.175 C  
BRANCH   9  10
HETATM   10  C   UNL     1      -6.774   9.237  68.963  1.00  0.00    -0.051 C  
HETATM   11  C   UNL     1      -6.795   7.897  69.055  1.00  0.00    -0.057 C  
BRANCH  11  12
HETATM   12  C   UNL     1      -7.702   7.070  69.920  1.00  0.00    -0.108 C  
BRANCH  12  13
HETATM   13  C   UNL     1      -8.540   6.003  69.195  1.00  0.00    -0.117 C  
HETATM   14  C   UNL     1      -7.666   4.804  68.783  1.00  0.00    -0.072 C  
HETATM   15  C   UNL     1      -8.685   3.739  68.427  1.00  0.00    -0.132 C  
HETATM   16  O   UNL     1      -6.888   4.318  69.878  1.00  0.00    -0.039 OA 
HETATM   17  C   UNL     1      -9.736   3.880  69.523  1.00  0.00    -0.121 C  
HETATM   18  H   UNL     1      -6.349   3.579  69.624  1.00  0.00     0.000 HD 
HETATM   19  C   UNL     1      -9.666   5.344  70.032  1.00  0.00    -0.248 C  
HETATM   20  O   UNL     1      -9.439   2.999  70.604  1.00  0.00    -0.145 OA 
HETATM   21  H   UNL     1     -10.093   3.087  71.287  1.00  0.00     0.000 HD 
BRANCH  19  22
HETATM   22  C   UNL     1     -11.026   6.053  69.882  1.00  0.00    -0.458 C  
BRANCH  22  23
HETATM   23  C   UNL     1     -11.064   7.336  70.717  1.00  0.00    -0.290 C  
BRANCH  23  24
HETATM   24  C   UNL     1     -12.135   7.348  71.814  1.00  0.00    -0.312 C  
HETATM   25  O   UNL     1     -11.771   6.448  72.862  1.00  0.00    -0.483 OA 
HETATM   26  H   UNL     1     -12.435   6.456  73.542  1.00  0.00     0.000 HD 
BRANCH  24  27
HETATM   27  C   UNL     1     -12.278   8.742  72.443  1.00  0.00    -0.396 C  
BRANCH  27  28
HETATM   28  C   UNL     1     -13.418   9.556  71.832  1.00  0.00    -0.502 C  
BRANCH  28  29
HETATM   29  C   UNL     1     -12.944  10.867  71.265  1.00  0.00    -0.492 A  
HETATM   30  C   UNL     1     -12.211  10.891  70.071  1.00  0.00    -0.422 A  
HETATM   31  C   UNL     1     -11.772  12.102  69.538  1.00  0.00    -0.402 A  
HETATM   32  C   UNL     1     -12.057  13.296  70.197  1.00  0.00    -0.403 A  
HETATM   33  C   UNL     1     -12.777  13.281  71.391  1.00  0.00    -0.401 A  
HETATM   34  C   UNL     1     -13.218  12.069  71.926  1.00  0.00    -0.469 A  
ENDBRANCH  28  29
ENDBRANCH  27  28
ENDBRANCH  24  27
ENDBRANCH  23  24
ENDBRANCH  22  23
ENDBRANCH  19  22
ENDBRANCH  12  13
ENDBRANCH  11  12
ENDBRANCH   9  10
ENDBRANCH   8   9
ENDBRANCH   7   8
ENDBRANCH   5   7
ENDBRANCH   4   5
ENDBRANCH   2   4
TORSDOF 14
ENDMDL
MODEL      198
REMARK 921   NORMALIZED FREE ENERGY PREDICTED BY IDOCK:   -4.09 KCAL/MOL
REMARK 922        TOTAL FREE ENERGY PREDICTED BY IDOCK:  -10.73 KCAL/MOL
REMARK 923 INTER-LIGAND FREE ENERGY PREDICTED BY IDOCK:   -8.90 KCAL/MOL
REMARK 924 INTRA-LIGAND FREE ENERGY PREDICTED BY IDOCK:   -1.83 KCAL/MOL
REMARK 927      BINDING AFFINITY PREDICTED BY RF-SCORE:    0.00 PKD
ROOT
HETATM    1  C   UNL     1      -7.531  10.339  66.142  1.00  0.00    -0.121 C  
HETATM    2  C   UNL     1      -6.736   9.948  67.382  1.00  0.00    -0.074 C  
HETATM    3  C   UNL     1      -5.415   9.296  66.993  1.00  0.00    -0.040 C  
ENDROOT
BRANCH   2   4
HETATM    4  O   UNL     1      -6.428  11.129  68.146  1.00  0.00    -0.056 OA 
BRANCH   4   5
HETATM    5  C   UNL     1      -6.260  12.267  67.412  1.00  0.00    -0.153 C  
HETATM    6  O   UNL     1      -5.281  12.527  66.723  1.00  0.00    -0.331 OA 
BRANCH   5   7
HETATM    7  C   UNL     1      -7.453  13.170  67.595  1.00  0.00    -0.164 C  
BRANCH   7   8
HETATM    8  C   UNL     1      -7.040  14.640  67.517  1.00  0.00    -0.203 C  
BRANCH   8   9
HETATM    9  C   UNL     1      -8.229  15.598  67.496  1.00  0.00    -0.185 C  
BRANCH   9  10
HETATM   10  C   UNL     1      -8.687  15.910  66.099  1.00  0.00    -0.328 C  
HETATM   11  C   UNL     1      -9.952  15.885  65.645  1.00  0.00    -0.368 C  
BRANCH  11  12
HETATM   12  C   UNL     1     -11.185  15.564  66.440  1.00  0.00    -0.098 C  
BRANCH  12  13
HETATM   13  C   UNL     1     -11.793  14.170  66.209  1.00  0.00    -0.427 C  
HETATM   14  C   UNL     1     -12.532  14.111  64.859  1.00  0.00    -0.401 C  
HETATM   15  C   UNL     1     -12.741  12.624  64.644  1.00  0.00    -0.458 C  
HETATM   16  O   UNL     1     -11.720  14.598  63.791  1.00  0.00    -0.676 OA 
HETATM   17  C   UNL     1     -11.413  12.017  65.084  1.00  0.00    -0.287 C  
HETATM   18  H   UNL     1     -12.176  14.562  62.958  1.00  0.00     0.000 HD 
HETATM   19  C   UNL     1     -10.782  13.000  66.106  1.00  0.00    -0.288 C  
HETATM   20  O   UNL     1     -10.538  11.888  63.965  1.00  0.00    -0.305 OA 
HETATM   21  H   UNL     1      -9.711  11.510  64.239  1.00  0.00     0.000 HD 
BRANCH  19  22
HETATM   22  C   UNL     1     -10.518  12.307  67.456  1.00  0.00    -0.230 C  
BRANCH  22  23
HETATM   23  C   UNL     1     -11.787  12.286  68.313  1.00  0.00    -0.367 C  
BRANCH  23  24
HETATM   24  C   UNL     1     -11.537  12.104  69.815  1.00  0.00    -0.262 C  
HETATM   25  O   UNL     1     -12.437  12.921  70.563  1.00  0.00    -0.298 OA 
HETATM   26  H   UNL     1     -12.283  12.808  71.493  1.00  0.00     0.000 HD 
BRANCH  24  27
HETATM   27  C   UNL     1     -11.775  10.650  70.250  1.00  0.00    -0.433 C  
BRANCH  27  28
HETATM   28  C   UNL     1     -10.501   9.806  70.230  1.00  0.00    -0.345 C  
BRANCH  28  29
HETATM   29  C   UNL     1     -10.625   8.607  69.331  1.00  0.00    -0.207 A  
HETATM   30  C   UNL     1     -10.384   8.732  67.956  1.00  0.00    -0.273 A  
HETATM   31  C   UNL     1     -10.492   7.624  67.117  1.00  0.00    -0.412 A  
HETATM   32  C   UNL     1     -10.847   6.384  67.645  1.00  0.00    -0.425 A  
HETATM   33  C   UNL     1     -11.098   6.252  69.010  1.00  0.00    -0.446 A  
HETATM   34  C   UNL     1     -10.989   7.361  69.851  1.00  0.00    -0.239 A  
ENDBRANCH  28  29
ENDBRANCH  27  28
ENDBRANCH  24  27
ENDBRANCH  23  24
ENDBRANCH  22  23
ENDBRANCH  19  22
ENDBRANCH  12  13
ENDBRANCH  11  12
ENDBRANCH   9  10
ENDBRANCH   8   9
ENDBRANCH   7   8
ENDBRANCH   5   7
ENDBRANCH   4   5
ENDBRANCH   2   4
TORSDOF 14
ENDMDL
MODEL      199
REMARK 921   NORMALIZED FREE ENERGY PREDICTED BY IDOCK:   -4.08 KCAL/MOL
REMARK 922        TOTAL FREE ENERGY PREDICTED BY IDOCK:  -10.71 KCAL/MOL
REMARK 923 INTER-LIGAND FREE ENERGY PREDICTED BY IDOCK:   -9.08 KCAL/MOL
REMARK 924 INTRA-LIGAND FREE ENERGY PREDICTED BY IDOCK:   -1.63 KCAL/MOL
REMARK 927      BINDING AFFINITY PREDICTED BY RF-SCORE:    0.00 PKD
ROOT
HETATM    1  C   UNL     1     -11.427  10.021  70.569  1.00  0.00    -0.407 C  
HETATM    2  C   UNL     1     -11.260   9.104  71.775  1.00  0.00    -0.381 C  
HETATM    3  C   UNL     1     -12.605   8.542  72.217  1.00  0.00    -0.438 C  
ENDROOT
BRANCH   2   4
HETATM    4  O   UNL     1     -10.422   7.990  71.418  1.00  0.00    -0.209 OA 
BRANCH   4   5
HETATM    5  C   UNL     1     -11.088   6.857  71.051  1.00  0.00    -0.266 C  
HETATM    6  O   UNL     1     -11.707   6.707  70.006  1.00  0.00    -0.383 OA 
BRANCH   5   7
HETATM    7  C   UNL     1     -10.965   5.822  72.140  1.00  0.00    -0.311 C  
BRANCH   7   8
HETATM    8  C   UNL     1      -9.563   5.209  72.153  1.00  0.00    -0.189 C  
BRANCH   8   9
HETATM    9  C   UNL     1      -9.194   4.527  70.838  1.00  0.00    -0.201 C  
BRANCH   9  10
HETATM   10  C   UNL     1      -7.924   5.073  70.247  1.00  0.00    -0.078 C  
HETATM   11  C   UNL     1      -7.290   4.621  69.152  1.00  0.00    -0.053 C  
BRANCH  11  12
HETATM   12  C   UNL     1      -7.724   3.490  68.265  1.00  0.00    -0.060 C  
BRANCH  12  13
HETATM   13  C   UNL     1      -8.025   3.856  66.801  1.00  0.00    -0.096 C  
HETATM   14  C   UNL     1      -8.754   2.705  66.086  1.00  0.00    -0.128 C  
HETATM   15  C   UNL     1      -9.273   3.358  64.819  1.00  0.00    -0.142 C  
HETATM   16  O   UNL     1      -9.880   2.247  66.835  1.00  0.00    -0.236 OA 
HETATM   17  C   UNL     1      -9.779   4.712  65.305  1.00  0.00    -0.136 C  
HETATM   18  H   UNL     1     -10.330   1.536  66.394  1.00  0.00     0.000 HD 
HETATM   19  C   UNL     1      -8.977   5.060  66.588  1.00  0.00    -0.114 C  
HETATM   20  O   UNL     1     -11.164   4.629  65.633  1.00  0.00    -0.854 OA 
HETATM   21  H   UNL     1     -11.479   5.473  65.937  1.00  0.00     0.000 HD 
BRANCH  19  22
HETATM   22  C   UNL     1      -8.234   6.400  66.435  1.00  0.00    -0.115 C  
BRANCH  22  23
HETATM   23  C   UNL     1      -8.881   7.483  67.303  1.00  0.00    -0.124 C  
BRANCH  23  24
HETATM   24  C   UNL     1     -10.166   8.083  66.719  1.00  0.00    -0.297 C  
HETATM   25  O   UNL     1     -11.280   7.756  67.549  1.00  0.00    -0.470 OA 
HETATM   26  H   UNL     1     -12.075   8.128  67.188  1.00  0.00     0.000 HD 
BRANCH  24  27
HETATM   27  C   UNL     1     -10.086   9.616  66.649  1.00  0.00    -0.307 C  
BRANCH  27  28
HETATM   28  C   UNL     1      -9.989  10.141  65.216  1.00  0.00    -0.381 C  
BRANCH  28  29
HETATM   29  C   UNL     1     -10.835  11.366  65.000  1.00  0.00    -0.311 A  
HETATM   30  C   UNL     1     -11.200  12.169  66.089  1.00  0.00    -0.386 A  
HETATM   31  C   UNL     1     -11.979  13.308  65.896  1.00  0.00    -0.466 A  
HETATM   32  C   UNL     1     -12.405  13.650  64.614  1.00  0.00    -0.413 A  
HETATM   33  C   UNL     1     -12.055  12.852  63.525  1.00  0.00    -0.633 A  
HETATM   34  C   UNL     1     -11.274  11.711  63.718  1.00  0.00    -0.498 A  
ENDBRANCH  28  29
ENDBRANCH  27  28
ENDBRANCH  24  27
ENDBRANCH  23  24
ENDBRANCH  22  23
ENDBRANCH  19  22
ENDBRANCH  12  13
ENDBRANCH  11  12
ENDBRANCH   9  10
ENDBRANCH   8   9
ENDBRANCH   7   8
ENDBRANCH   5   7
ENDBRANCH   4   5
ENDBRANCH   2   4
TORSDOF 14
ENDMDL
MODEL      200
REMARK 921   NORMALIZED FREE ENERGY PREDICTED BY IDOCK:   -4.08 KCAL/MOL
REMARK 922        TOTAL FREE ENERGY PREDICTED BY IDOCK:  -10.70 KCAL/MOL
REMARK 923 INTER-LIGAND FREE ENERGY PREDICTED BY IDOCK:   -8.71 KCAL/MOL
REMARK 924 INTRA-LIGAND FREE ENERGY PREDICTED BY IDOCK:   -1.99 KCAL/MOL
REMARK 927      BINDING AFFINITY PREDICTED BY RF-SCORE:    0.00 PKD
ROOT
HETATM    1  C   UNL     1     -10.692  13.857  64.605  1.00  0.00    -0.422 C  
HETATM    2  C   UNL     1     -12.111  13.534  64.151  1.00  0.00    -0.435 C  
HETATM    3  C   UNL     1     -12.126  12.296  63.264  1.00  0.00    -0.518 C  
ENDROOT
BRANCH   2   4
HETATM    4  O   UNL     1     -12.930  13.253  65.301  1.00  0.00    -0.659 OA 
BRANCH   4   5
HETATM    5  C   UNL     1     -12.287  13.327  66.502  1.00  0.00    -0.248 C  
HETATM    6  O   UNL     1     -12.206  14.329  67.202  1.00  0.00    -0.410 OA 
BRANCH   5   7
HETATM    7  C   UNL     1     -11.670  11.992  66.831  1.00  0.00    -0.342 C  
BRANCH   7   8
HETATM    8  C   UNL     1     -11.421  11.863  68.335  1.00  0.00    -0.357 C  
BRANCH   8   9
HETATM    9  C   UNL     1      -9.940  11.775  68.693  1.00  0.00    -0.181 C  
BRANCH   9  10
HETATM   10  C   UNL     1      -9.130  12.866  68.051  1.00  0.00    -0.211 C  
HETATM   11  C   UNL     1      -8.084  12.707  67.222  1.00  0.00    -0.178 C  
BRANCH  11  12
HETATM   12  C   UNL     1      -7.513  11.406  66.738  1.00  0.00    -0.137 C  
BRANCH  12  13
HETATM   13  C   UNL     1      -8.482  10.482  65.980  1.00  0.00    -0.157 C  
HETATM   14  C   UNL     1      -8.411  10.737  64.463  1.00  0.00    -0.005 C  
HETATM   15  C   UNL     1      -9.130   9.537  63.877  1.00  0.00    -0.172 C  
HETATM   16  O   UNL     1      -7.065  10.718  63.988  1.00  0.00    -0.335 OA 
HETATM   17  C   UNL     1      -8.616   8.375  64.720  1.00  0.00    -0.049 C  
HETATM   18  H   UNL     1      -7.021  10.875  63.052  1.00  0.00     0.000 HD 
HETATM   19  C   UNL     1      -8.196   8.963  66.094  1.00  0.00    -0.116 C  
HETATM   20  O   UNL     1      -7.474   7.786  64.101  1.00  0.00    -0.090 OA 
HETATM   21  H   UNL     1      -7.154   7.063  64.627  1.00  0.00     0.000 HD 
BRANCH  19  22
HETATM   22  C   UNL     1      -8.961   8.288  67.247  1.00  0.00    -0.149 C  
BRANCH  22  23
HETATM   23  C   UNL     1      -9.360   6.858  66.871  1.00  0.00    -0.177 C  
BRANCH  23  24
HETATM   24  C   UNL     1     -10.756   6.441  67.350  1.00  0.00    -0.336 C  
HETATM   25  O   UNL     1     -11.331   5.513  66.430  1.00  0.00    -0.627 OA 
HETATM   26  H   UNL     1     -12.196   5.255  66.727  1.00  0.00     0.000 HD 
BRANCH  24  27
HETATM   27  C   UNL     1     -10.693   5.744  68.718  1.00  0.00    -0.318 C  
BRANCH  27  28
HETATM   28  C   UNL     1     -11.598   6.398  69.761  1.00  0.00    -0.397 C  
BRANCH  28  29
HETATM   29  C   UNL     1     -10.821   6.939  70.931  1.00  0.00    -0.277 A  
HETATM   30  C   UNL     1      -9.494   7.356  70.759  1.00  0.00    -0.167 A  
HETATM   31  C   UNL     1      -8.769   7.863  71.837  1.00  0.00    -0.168 A  
HETATM   32  C   UNL     1      -9.363   7.952  73.094  1.00  0.00    -0.337 A  
HETATM   33  C   UNL     1     -10.680   7.531  73.276  1.00  0.00    -0.437 A  
HETATM   34  C   UNL     1     -11.407   7.024  72.198  1.00  0.00    -0.302 A  
ENDBRANCH  28  29
ENDBRANCH  27  28
ENDBRANCH  24  27
ENDBRANCH  23  24
ENDBRANCH  22  23
ENDBRANCH  19  22
ENDBRANCH  12  13
ENDBRANCH  11  12
ENDBRANCH   9  10
ENDBRANCH   8   9
ENDBRANCH   7   8
ENDBRANCH   5   7
ENDBRANCH   4   5
ENDBRANCH   2   4
TORSDOF 14
ENDMDL
MODEL      201
REMARK 921   NORMALIZED FREE ENERGY PREDICTED BY IDOCK:   -4.07 KCAL/MOL
REMARK 922        TOTAL FREE ENERGY PREDICTED BY IDOCK:  -10.70 KCAL/MOL
REMARK 923 INTER-LIGAND FREE ENERGY PREDICTED BY IDOCK:   -8.70 KCAL/MOL
REMARK 924 INTRA-LIGAND FREE ENERGY PREDICTED BY IDOCK:   -2.00 KCAL/MOL
REMARK 927      BINDING AFFINITY PREDICTED BY RF-SCORE:    0.00 PKD
ROOT
HETATM    1  C   UNL     1     -10.168   6.627  68.136  1.00  0.00    -0.193 C  
HETATM    2  C   UNL     1      -9.687   6.709  66.691  1.00  0.00    -0.159 C  
HETATM    3  C   UNL     1      -8.903   7.993  66.454  1.00  0.00    -0.183 C  
ENDROOT
BRANCH   2   4
HETATM    4  O   UNL     1      -8.804   5.605  66.418  1.00  0.00    -0.121 OA 
BRANCH   4   5
HETATM    5  C   UNL     1      -9.423   4.413  66.179  1.00  0.00    -0.174 C  
HETATM    6  O   UNL     1     -10.469   4.270  65.559  1.00  0.00    -0.233 OA 
BRANCH   5   7
HETATM    7  C   UNL     1      -8.635   3.295  66.814  1.00  0.00    -0.119 C  
BRANCH   7   8
HETATM    8  C   UNL     1      -9.317   2.807  68.093  1.00  0.00    -0.258 C  
BRANCH   8   9
HETATM    9  C   UNL     1      -8.392   2.812  69.307  1.00  0.00    -0.087 C  
BRANCH   9  10
HETATM   10  C   UNL     1      -9.099   2.397  70.567  1.00  0.00    -0.178 C  
HETATM   11  C   UNL     1      -9.775   3.197  71.408  1.00  0.00    -0.219 C  
BRANCH  11  12
HETATM   12  C   UNL     1      -9.994   4.676  71.261  1.00  0.00    -0.268 C  
BRANCH  12  13
HETATM   13  C   UNL     1      -9.888   5.506  72.551  1.00  0.00    -0.188 C  
HETATM   14  C   UNL     1      -8.495   5.353  73.190  1.00  0.00    -0.118 C  
HETATM   15  C   UNL     1      -8.453   6.480  74.204  1.00  0.00    -0.140 C  
HETATM   16  O   UNL     1      -7.452   5.577  72.241  1.00  0.00    -0.092 OA 
HETATM   17  C   UNL     1      -9.085   7.648  73.454  1.00  0.00    -0.241 C  
HETATM   18  H   UNL     1      -6.592   5.482  72.635  1.00  0.00     0.000 HD 
HETATM   19  C   UNL     1     -10.027   7.040  72.381  1.00  0.00    -0.184 C  
HETATM   20  O   UNL     1      -8.076   8.417  72.803  1.00  0.00    -0.249 OA 
HETATM   21  H   UNL     1      -8.471   9.144  72.336  1.00  0.00     0.000 HD 
BRANCH  19  22
HETATM   22  C   UNL     1     -11.473   7.540  72.559  1.00  0.00    -0.376 C  
BRANCH  22  23
HETATM   23  C   UNL     1     -11.920   8.354  71.341  1.00  0.00    -0.337 C  
BRANCH  23  24
HETATM   24  C   UNL     1     -11.448   9.812  71.343  1.00  0.00    -0.365 C  
HETATM   25  O   UNL     1     -10.307   9.957  70.496  1.00  0.00    -0.286 OA 
HETATM   26  H   UNL     1     -10.015  10.861  70.497  1.00  0.00     0.000 HD 
BRANCH  24  27
HETATM   27  C   UNL     1     -12.536  10.754  70.803  1.00  0.00    -0.481 C  
BRANCH  27  28
HETATM   28  C   UNL     1     -11.965  12.034  70.193  1.00  0.00    -0.401 C  
BRANCH  28  29
HETATM   29  C   UNL     1     -12.535  13.272  70.830  1.00  0.00    -0.403 A  
HETATM   30  C   UNL     1     -12.250  14.534  70.290  1.00  0.00    -0.391 A  
HETATM   31  C   UNL     1     -12.779  15.685  70.871  1.00  0.00    -0.500 A  
HETATM   32  C   UNL     1     -13.591  15.585  71.999  1.00  0.00    -0.595 A  
HETATM   33  C   UNL     1     -13.871  14.335  72.548  1.00  0.00    -0.575 A  
HETATM   34  C   UNL     1     -13.343  13.181  71.967  1.00  0.00    -0.587 A  
ENDBRANCH  28  29
ENDBRANCH  27  28
ENDBRANCH  24  27
ENDBRANCH  23  24
ENDBRANCH  22  23
ENDBRANCH  19  22
ENDBRANCH  12  13
ENDBRANCH  11  12
ENDBRANCH   9  10
ENDBRANCH   8   9
ENDBRANCH   7   8
ENDBRANCH   5   7
ENDBRANCH   4   5
ENDBRANCH   2   4
TORSDOF 14
ENDMDL
MODEL      202
REMARK 921   NORMALIZED FREE ENERGY PREDICTED BY IDOCK:   -4.07 KCAL/MOL
REMARK 922        TOTAL FREE ENERGY PREDICTED BY IDOCK:  -10.69 KCAL/MOL
REMARK 923 INTER-LIGAND FREE ENERGY PREDICTED BY IDOCK:   -8.76 KCAL/MOL
REMARK 924 INTRA-LIGAND FREE ENERGY PREDICTED BY IDOCK:   -1.93 KCAL/MOL
REMARK 927      BINDING AFFINITY PREDICTED BY RF-SCORE:    0.00 PKD
ROOT
HETATM    1  C   UNL     1     -11.479  15.599  71.436  1.00  0.00    -0.488 C  
HETATM    2  C   UNL     1     -12.569  14.810  72.153  1.00  0.00    -0.334 C  
HETATM    3  C   UNL     1     -13.752  15.708  72.492  1.00  0.00    -0.651 C  
ENDROOT
BRANCH   2   4
HETATM    4  O   UNL     1     -13.053  13.767  71.287  1.00  0.00    -0.329 OA 
BRANCH   4   5
HETATM    5  C   UNL     1     -13.366  12.594  71.911  1.00  0.00    -0.387 C  
HETATM    6  O   UNL     1     -14.123  12.481  72.867  1.00  0.00     0.045 OA 
BRANCH   5   7
HETATM    7  C   UNL     1     -12.619  11.458  71.261  1.00  0.00    -0.480 C  
BRANCH   7   8
HETATM    8  C   UNL     1     -11.865  11.941  70.020  1.00  0.00    -0.407 C  
BRANCH   8   9
HETATM    9  C   UNL     1     -11.646  10.842  68.984  1.00  0.00    -0.387 C  
BRANCH   9  10
HETATM   10  C   UNL     1     -10.949   9.642  69.560  1.00  0.00    -0.233 C  
HETATM   11  C   UNL     1     -10.451   8.598  68.876  1.00  0.00    -0.211 C  
BRANCH  11  12
HETATM   12  C   UNL     1     -10.459   8.415  67.386  1.00  0.00    -0.354 C  
BRANCH  12  13
HETATM   13  C   UNL     1      -9.171   8.823  66.649  1.00  0.00    -0.223 C  
HETATM   14  C   UNL     1      -8.341   7.584  66.267  1.00  0.00    -0.134 C  
HETATM   15  C   UNL     1      -7.338   8.133  65.269  1.00  0.00    -0.073 C  
HETATM   16  O   UNL     1      -9.134   6.604  65.597  1.00  0.00    -0.356 OA 
HETATM   17  C   UNL     1      -8.178   9.076  64.413  1.00  0.00    -0.165 C  
HETATM   18  H   UNL     1      -8.621   5.839  65.362  1.00  0.00     0.000 HD 
HETATM   19  C   UNL     1      -9.370   9.544  65.291  1.00  0.00    -0.317 C  
HETATM   20  O   UNL     1      -8.685   8.385  63.274  1.00  0.00    -0.424 OA 
HETATM   21  H   UNL     1      -9.207   8.973  62.741  1.00  0.00     0.000 HD 
BRANCH  19  22
HETATM   22  C   UNL     1      -9.401  11.078  65.418  1.00  0.00    -0.244 C  
BRANCH  22  23
HETATM   23  C   UNL     1      -8.331  11.564  66.400  1.00  0.00    -0.118 C  
BRANCH  23  24
HETATM   24  C   UNL     1      -8.861  12.458  67.527  1.00  0.00    -0.181 C  
HETATM   25  O   UNL     1      -8.560  11.876  68.795  1.00  0.00    -0.333 OA 
HETATM   26  H   UNL     1      -8.888  12.430  69.494  1.00  0.00     0.000 HD 
BRANCH  24  27
HETATM   27  C   UNL     1      -8.203  13.846  67.497  1.00  0.00    -0.196 C  
BRANCH  27  28
HETATM   28  C   UNL     1      -8.766  14.748  66.399  1.00  0.00    -0.062 C  
BRANCH  28  29
HETATM   29  C   UNL     1      -9.012  16.151  66.884  1.00  0.00    -0.248 A  
HETATM   30  C   UNL     1     -10.245  16.771  66.641  1.00  0.00    -0.310 A  
HETATM   31  C   UNL     1     -10.483  18.068  67.092  1.00  0.00    -0.377 A  
HETATM   32  C   UNL     1      -9.489  18.757  67.783  1.00  0.00    -0.333 A  
HETATM   33  C   UNL     1      -8.255  18.151  68.021  1.00  0.00    -0.266 A  
HETATM   34  C   UNL     1      -8.016  16.852  67.571  1.00  0.00    -0.186 A  
ENDBRANCH  28  29
ENDBRANCH  27  28
ENDBRANCH  24  27
ENDBRANCH  23  24
ENDBRANCH  22  23
ENDBRANCH  19  22
ENDBRANCH  12  13
ENDBRANCH  11  12
ENDBRANCH   9  10
ENDBRANCH   8   9
ENDBRANCH   7   8
ENDBRANCH   5   7
ENDBRANCH   4   5
ENDBRANCH   2   4
TORSDOF 14
ENDMDL
MODEL      203
REMARK 921   NORMALIZED FREE ENERGY PREDICTED BY IDOCK:   -4.07 KCAL/MOL
REMARK 922        TOTAL FREE ENERGY PREDICTED BY IDOCK:  -10.69 KCAL/MOL
REMARK 923 INTER-LIGAND FREE ENERGY PREDICTED BY IDOCK:   -8.99 KCAL/MOL
REMARK 924 INTRA-LIGAND FREE ENERGY PREDICTED BY IDOCK:   -1.70 KCAL/MOL
REMARK 927      BINDING AFFINITY PREDICTED BY RF-SCORE:    0.00 PKD
ROOT
HETATM    1  C   UNL     1     -11.788   5.047  73.077  1.00  0.00    -0.141 C  
HETATM    2  C   UNL     1     -10.500   4.625  73.777  1.00  0.00    -0.238 C  
HETATM    3  C   UNL     1     -10.384   3.108  73.826  1.00  0.00    -0.228 C  
ENDROOT
BRANCH   2   4
HETATM    4  O   UNL     1      -9.369   5.123  73.039  1.00  0.00    -0.132 OA 
BRANCH   4   5
HETATM    5  C   UNL     1      -8.925   6.356  73.420  1.00  0.00    -0.124 C  
HETATM    6  O   UNL     1      -8.491   6.641  74.529  1.00  0.00    -0.136 OA 
BRANCH   5   7
HETATM    7  C   UNL     1      -9.071   7.325  72.274  1.00  0.00    -0.152 C  
BRANCH   7   8
HETATM    8  C   UNL     1     -10.328   8.180  72.441  1.00  0.00    -0.382 C  
BRANCH   8   9
HETATM    9  C   UNL     1     -10.961   8.583  71.112  1.00  0.00    -0.306 C  
BRANCH   9  10
HETATM   10  C   UNL     1     -12.279   9.281  71.294  1.00  0.00    -0.410 C  
HETATM   11  C   UNL     1     -12.552  10.567  71.015  1.00  0.00    -0.499 C  
BRANCH  11  12
HETATM   12  C   UNL     1     -11.606  11.580  70.437  1.00  0.00    -0.216 C  
BRANCH  12  13
HETATM   13  C   UNL     1     -12.251  12.838  69.830  1.00  0.00    -0.245 C  
HETATM   14  C   UNL     1     -12.634  13.845  70.931  1.00  0.00    -0.361 C  
HETATM   15  C   UNL     1     -12.905  15.120  70.155  1.00  0.00    -0.200 C  
HETATM   16  O   UNL     1     -11.543  14.095  71.819  1.00  0.00    -0.183 OA 
HETATM   17  C   UNL     1     -11.783  15.146  69.123  1.00  0.00    -0.325 C  
HETATM   18  H   UNL     1     -11.780  14.716  72.498  1.00  0.00     0.000 HD 
HETATM   19  C   UNL     1     -11.347  13.675  68.890  1.00  0.00    -0.332 C  
HETATM   20  O   UNL     1     -10.671  15.884  69.626  1.00  0.00    -0.252 OA 
HETATM   21  H   UNL     1      -9.972  15.901  68.982  1.00  0.00     0.000 HD 
BRANCH  19  22
HETATM   22  C   UNL     1     -11.485  13.280  67.408  1.00  0.00    -0.371 C  
BRANCH  22  23
HETATM   23  C   UNL     1     -12.285  14.334  66.637  1.00  0.00    -0.411 C  
BRANCH  23  24
HETATM   24  C   UNL     1     -11.585  14.871  65.383  1.00  0.00    -0.280 C  
HETATM   25  O   UNL     1     -12.516  14.963  64.304  1.00  0.00    -0.670 OA 
HETATM   26  H   UNL     1     -12.083  15.295  63.528  1.00  0.00     0.000 HD 
BRANCH  24  27
HETATM   27  C   UNL     1     -11.021  16.281  65.616  1.00  0.00    -0.109 C  
BRANCH  27  28
HETATM   28  C   UNL     1      -9.528  16.278  65.943  1.00  0.00    -0.318 C  
BRANCH  28  29
HETATM   29  C   UNL     1      -9.133  17.439  66.815  1.00  0.00    -0.276 A  
HETATM   30  C   UNL     1      -9.686  18.706  66.589  1.00  0.00    -0.360 A  
HETATM   31  C   UNL     1      -9.329  19.785  67.397  1.00  0.00    -0.444 A  
HETATM   32  C   UNL     1      -8.413  19.607  68.431  1.00  0.00    -0.352 A  
HETATM   33  C   UNL     1      -7.850  18.351  68.657  1.00  0.00    -0.320 A  
HETATM   34  C   UNL     1      -8.207  17.270  67.850  1.00  0.00    -0.219 A  
ENDBRANCH  28  29
ENDBRANCH  27  28
ENDBRANCH  24  27
ENDBRANCH  23  24
ENDBRANCH  22  23
ENDBRANCH  19  22
ENDBRANCH  12  13
ENDBRANCH  11  12
ENDBRANCH   9  10
ENDBRANCH   8   9
ENDBRANCH   7   8
ENDBRANCH   5   7
ENDBRANCH   4   5
ENDBRANCH   2   4
TORSDOF 14
ENDMDL
MODEL      204
REMARK 921   NORMALIZED FREE ENERGY PREDICTED BY IDOCK:   -4.07 KCAL/MOL
REMARK 922        TOTAL FREE ENERGY PREDICTED BY IDOCK:  -10.69 KCAL/MOL
REMARK 923 INTER-LIGAND FREE ENERGY PREDICTED BY IDOCK:   -8.21 KCAL/MOL
REMARK 924 INTRA-LIGAND FREE ENERGY PREDICTED BY IDOCK:   -2.47 KCAL/MOL
REMARK 927      BINDING AFFINITY PREDICTED BY RF-SCORE:    0.00 PKD
ROOT
HETATM    1  C   UNL     1      -9.525   2.919  70.236  1.00  0.00    -0.200 C  
HETATM    2  C   UNL     1      -9.043   4.102  69.404  1.00  0.00    -0.126 C  
HETATM    3  C   UNL     1      -9.489   3.961  67.954  1.00  0.00    -0.227 C  
ENDROOT
BRANCH   2   4
HETATM    4  O   UNL     1      -9.621   5.316  69.918  1.00  0.00    -0.153 OA 
BRANCH   4   5
HETATM    5  C   UNL     1      -8.874   5.960  70.861  1.00  0.00    -0.138 C  
HETATM    6  O   UNL     1      -7.650   5.999  70.889  1.00  0.00    -0.092 OA 
BRANCH   5   7
HETATM    7  C   UNL     1      -9.783   6.598  71.881  1.00  0.00    -0.158 C  
BRANCH   7   8
HETATM    8  C   UNL     1     -11.183   5.983  71.822  1.00  0.00    -0.333 C  
BRANCH   8   9
HETATM    9  C   UNL     1     -12.281   7.013  71.568  1.00  0.00    -0.407 C  
BRANCH   9  10
HETATM   10  C   UNL     1     -12.049   8.293  72.320  1.00  0.00    -0.439 C  
HETATM   11  C   UNL     1     -12.071   9.537  71.812  1.00  0.00    -0.459 C  
BRANCH  11  12
HETATM   12  C   UNL     1     -12.355   9.921  70.388  1.00  0.00    -0.148 C  
BRANCH  12  13
HETATM   13  C   UNL     1     -11.168  10.492  69.592  1.00  0.00    -0.342 C  
HETATM   14  C   UNL     1     -10.102   9.409  69.343  1.00  0.00    -0.198 C  
HETATM   15  C   UNL     1      -9.220  10.030  68.277  1.00  0.00    -0.129 C  
HETATM   16  O   UNL     1     -10.675   8.219  68.800  1.00  0.00    -0.375 OA 
HETATM   17  C   UNL     1     -10.223  10.682  67.330  1.00  0.00    -0.204 C  
HETATM   18  H   UNL     1     -10.017   7.551  68.647  1.00  0.00     0.000 HD 
HETATM   19  C   UNL     1     -11.493  10.998  68.164  1.00  0.00    -0.374 C  
HETATM   20  O   UNL     1     -10.569   9.777  66.284  1.00  0.00    -0.133 OA 
HETATM   21  H   UNL     1     -11.194  10.184  65.694  1.00  0.00     0.000 HD 
BRANCH  19  22
HETATM   22  C   UNL     1     -11.834  12.499  68.116  1.00  0.00    -0.371 C  
BRANCH  22  23
HETATM   23  C   UNL     1     -11.492  13.176  69.447  1.00  0.00    -0.321 C  
BRANCH  23  24
HETATM   24  C   UNL     1     -12.516  14.218  69.911  1.00  0.00    -0.264 C  
HETATM   25  O   UNL     1     -12.753  14.080  71.313  1.00  0.00    -0.327 OA 
HETATM   26  H   UNL     1     -13.387  14.725  71.601  1.00  0.00     0.000 HD 
BRANCH  24  27
HETATM   27  C   UNL     1     -12.007  15.648  69.676  1.00  0.00    -0.367 C  
BRANCH  27  28
HETATM   28  C   UNL     1     -10.491  15.772  69.830  1.00  0.00    -0.318 C  
BRANCH  28  29
HETATM   29  C   UNL     1      -9.834  16.305  68.586  1.00  0.00    -0.230 A  
HETATM   30  C   UNL     1     -10.223  15.829  67.327  1.00  0.00    -0.268 A  
HETATM   31  C   UNL     1      -9.622  16.322  66.170  1.00  0.00    -0.362 A  
HETATM   32  C   UNL     1      -8.625  17.291  66.262  1.00  0.00    -0.264 A  
HETATM   33  C   UNL     1      -8.225  17.764  67.512  1.00  0.00    -0.228 A  
HETATM   34  C   UNL     1      -8.826  17.271  68.671  1.00  0.00    -0.261 A  
ENDBRANCH  28  29
ENDBRANCH  27  28
ENDBRANCH  24  27
ENDBRANCH  23  24
ENDBRANCH  22  23
ENDBRANCH  19  22
ENDBRANCH  12  13
ENDBRANCH  11  12
ENDBRANCH   9  10
ENDBRANCH   8   9
ENDBRANCH   7   8
ENDBRANCH   5   7
ENDBRANCH   4   5
ENDBRANCH   2   4
TORSDOF 14
ENDMDL
MODEL      205
REMARK 921   NORMALIZED FREE ENERGY PREDICTED BY IDOCK:   -4.05 KCAL/MOL
REMARK 922        TOTAL FREE ENERGY PREDICTED BY IDOCK:  -10.66 KCAL/MOL
REMARK 923 INTER-LIGAND FREE ENERGY PREDICTED BY IDOCK:   -7.44 KCAL/MOL
REMARK 924 INTRA-LIGAND FREE ENERGY PREDICTED BY IDOCK:   -3.22 KCAL/MOL
REMARK 927      BINDING AFFINITY PREDICTED BY RF-SCORE:    0.00 PKD
ROOT
HETATM    1  C   UNL     1      -7.018   9.877  70.084  1.00  0.00    -0.138 C  
HETATM    2  C   UNL     1      -6.892   8.420  70.517  1.00  0.00    -0.037 C  
HETATM    3  C   UNL     1      -6.271   7.579  69.410  1.00  0.00    -0.031 C  
ENDROOT
BRANCH   2   4
HETATM    4  O   UNL     1      -6.025   8.335  71.664  1.00  0.00    -0.035 OA 
BRANCH   4   5
HETATM    5  C   UNL     1      -6.657   8.376  72.873  1.00  0.00    -0.092 C  
HETATM    6  O   UNL     1      -6.387   9.144  73.787  1.00  0.00    -0.325 OA 
BRANCH   5   7
HETATM    7  C   UNL     1      -7.727   7.315  72.923  1.00  0.00    -0.102 C  
BRANCH   7   8
HETATM    8  C   UNL     1      -8.778   7.652  73.982  1.00  0.00    -0.303 C  
BRANCH   8   9
HETATM    9  C   UNL     1      -9.650   6.458  74.364  1.00  0.00    -0.279 C  
BRANCH   9  10
HETATM   10  C   UNL     1      -9.576   5.349  73.352  1.00  0.00    -0.151 C  
HETATM   11  C   UNL     1     -10.545   4.974  72.500  1.00  0.00    -0.277 C  
BRANCH  11  12
HETATM   12  C   UNL     1     -11.904   5.598  72.355  1.00  0.00    -0.181 C  
BRANCH  12  13
HETATM   13  C   UNL     1     -12.034   6.692  71.282  1.00  0.00    -0.409 C  
HETATM   14  C   UNL     1     -12.732   7.941  71.852  1.00  0.00    -0.316 C  
HETATM   15  C   UNL     1     -12.453   9.002  70.804  1.00  0.00    -0.011 C  
HETATM   16  O   UNL     1     -12.135   8.366  73.077  1.00  0.00    -0.526 OA 
HETATM   17  C   UNL     1     -10.995   8.754  70.435  1.00  0.00    -0.235 C  
HETATM   18  H   UNL     1     -12.566   9.136  73.429  1.00  0.00     0.000 HD 
HETATM   19  C   UNL     1     -10.701   7.259  70.729  1.00  0.00    -0.248 C  
HETATM   20  O   UNL     1     -10.140   9.561  71.243  1.00  0.00    -0.273 OA 
HETATM   21  H   UNL     1      -9.232   9.406  71.012  1.00  0.00     0.000 HD 
BRANCH  19  22
HETATM   22  C   UNL     1     -10.210   6.527  69.466  1.00  0.00    -0.219 C  
BRANCH  22  23
HETATM   23  C   UNL     1     -10.497   7.357  68.212  1.00  0.00    -0.231 C  
BRANCH  23  24
HETATM   24  C   UNL     1      -9.294   7.532  67.277  1.00  0.00    -0.140 C  
HETATM   25  O   UNL     1      -9.574   6.945  66.006  1.00  0.00    -0.394 OA 
HETATM   26  H   UNL     1      -8.829   7.053  65.426  1.00  0.00     0.000 HD 
BRANCH  24  27
HETATM   27  C   UNL     1      -8.986   9.017  67.032  1.00  0.00    -0.144 C  
BRANCH  27  28
HETATM   28  C   UNL     1      -9.982   9.682  66.081  1.00  0.00    -0.346 C  
BRANCH  28  29
HETATM   29  C   UNL     1     -10.532  10.966  66.640  1.00  0.00    -0.307 A  
HETATM   30  C   UNL     1     -10.317  12.175  65.964  1.00  0.00    -0.268 A  
HETATM   31  C   UNL     1     -10.829  13.368  66.473  1.00  0.00    -0.286 A  
HETATM   32  C   UNL     1     -11.554  13.362  67.662  1.00  0.00    -0.377 A  
HETATM   33  C   UNL     1     -11.765  12.165  68.346  1.00  0.00    -0.388 A  
HETATM   34  C   UNL     1     -11.254  10.970  67.838  1.00  0.00    -0.375 A  
ENDBRANCH  28  29
ENDBRANCH  27  28
ENDBRANCH  24  27
ENDBRANCH  23  24
ENDBRANCH  22  23
ENDBRANCH  19  22
ENDBRANCH  12  13
ENDBRANCH  11  12
ENDBRANCH   9  10
ENDBRANCH   8   9
ENDBRANCH   7   8
ENDBRANCH   5   7
ENDBRANCH   4   5
ENDBRANCH   2   4
TORSDOF 14
ENDMDL
MODEL      206
REMARK 921   NORMALIZED FREE ENERGY PREDICTED BY IDOCK:   -4.04 KCAL/MOL
REMARK 922        TOTAL FREE ENERGY PREDICTED BY IDOCK:  -10.65 KCAL/MOL
REMARK 923 INTER-LIGAND FREE ENERGY PREDICTED BY IDOCK:   -8.86 KCAL/MOL
REMARK 924 INTRA-LIGAND FREE ENERGY PREDICTED BY IDOCK:   -1.78 KCAL/MOL
REMARK 927      BINDING AFFINITY PREDICTED BY RF-SCORE:    0.00 PKD
ROOT
HETATM    1  C   UNL     1      -7.488  10.244  65.307  1.00  0.00    -0.141 C  
HETATM    2  C   UNL     1      -6.681   9.253  66.138  1.00  0.00    -0.074 C  
HETATM    3  C   UNL     1      -5.436   8.803  65.385  1.00  0.00    -0.038 C  
ENDROOT
BRANCH   2   4
HETATM    4  O   UNL     1      -6.246   9.889  67.354  1.00  0.00    -0.058 OA 
BRANCH   4   5
HETATM    5  C   UNL     1      -6.201  11.252  67.311  1.00  0.00    -0.081 C  
HETATM    6  O   UNL     1      -5.516  11.914  66.542  1.00  0.00    -0.303 OA 
BRANCH   5   7
HETATM    7  C   UNL     1      -7.108  11.823  68.372  1.00  0.00    -0.085 C  
BRANCH   7   8
HETATM    8  C   UNL     1      -7.223  13.342  68.228  1.00  0.00    -0.108 C  
BRANCH   8   9
HETATM    9  C   UNL     1      -8.663  13.822  68.064  1.00  0.00    -0.181 C  
BRANCH   9  10
HETATM   10  C   UNL     1      -8.840  14.694  66.853  1.00  0.00    -0.267 C  
HETATM   11  C   UNL     1     -10.005  15.068  66.298  1.00  0.00    -0.300 C  
BRANCH  11  12
HETATM   12  C   UNL     1     -11.384  14.718  66.781  1.00  0.00    -0.347 C  
BRANCH  12  13
HETATM   13  C   UNL     1     -12.056  13.517  66.094  1.00  0.00    -0.482 C  
HETATM   14  C   UNL     1     -12.479  13.872  64.656  1.00  0.00    -0.325 C  
HETATM   15  C   UNL     1     -12.775  12.519  64.038  1.00  0.00    -0.416 C  
HETATM   16  O   UNL     1     -11.407  14.465  63.922  1.00  0.00    -0.539 OA 
HETATM   17  C   UNL     1     -11.642  11.642  64.558  1.00  0.00    -0.154 C  
HETATM   18  H   UNL     1     -11.668  14.684  63.036  1.00  0.00     0.000 HD 
HETATM   19  C   UNL     1     -11.163  12.265  65.896  1.00  0.00    -0.381 C  
HETATM   20  O   UNL     1     -10.556  11.643  63.633  1.00  0.00    -0.353 OA 
HETATM   21  H   UNL     1      -9.850  11.096  63.957  1.00  0.00     0.000 HD 
BRANCH  19  22
HETATM   22  C   UNL     1     -11.272  11.255  67.054  1.00  0.00    -0.324 C  
BRANCH  22  23
HETATM   23  C   UNL     1     -10.119  10.249  67.007  1.00  0.00    -0.268 C  
BRANCH  23  24
HETATM   24  C   UNL     1     -10.481   8.844  67.503  1.00  0.00    -0.269 C  
HETATM   25  O   UNL     1     -10.361   7.902  66.436  1.00  0.00    -0.482 OA 
HETATM   26  H   UNL     1     -10.585   7.032  66.744  1.00  0.00     0.000 HD 
BRANCH  24  27
HETATM   27  C   UNL     1      -9.535   8.384  68.623  1.00  0.00    -0.147 C  
BRANCH  27  28
HETATM   28  C   UNL     1      -9.471   9.369  69.790  1.00  0.00    -0.216 C  
BRANCH  28  29
HETATM   29  C   UNL     1     -10.697   9.302  70.659  1.00  0.00    -0.331 A  
HETATM   30  C   UNL     1     -11.622  10.355  70.652  1.00  0.00    -0.440 A  
HETATM   31  C   UNL     1     -12.763  10.297  71.451  1.00  0.00    -0.547 A  
HETATM   32  C   UNL     1     -12.984   9.190  72.268  1.00  0.00    -0.492 A  
HETATM   33  C   UNL     1     -12.065   8.143  72.289  1.00  0.00    -0.419 A  
HETATM   34  C   UNL     1     -10.923   8.199  71.489  1.00  0.00    -0.294 A  
ENDBRANCH  28  29
ENDBRANCH  27  28
ENDBRANCH  24  27
ENDBRANCH  23  24
ENDBRANCH  22  23
ENDBRANCH  19  22
ENDBRANCH  12  13
ENDBRANCH  11  12
ENDBRANCH   9  10
ENDBRANCH   8   9
ENDBRANCH   7   8
ENDBRANCH   5   7
ENDBRANCH   4   5
ENDBRANCH   2   4
TORSDOF 14
ENDMDL
MODEL      207
REMARK 921   NORMALIZED FREE ENERGY PREDICTED BY IDOCK:   -4.02 KCAL/MOL
REMARK 922        TOTAL FREE ENERGY PREDICTED BY IDOCK:  -10.61 KCAL/MOL
REMARK 923 INTER-LIGAND FREE ENERGY PREDICTED BY IDOCK:   -8.88 KCAL/MOL
REMARK 924 INTRA-LIGAND FREE ENERGY PREDICTED BY IDOCK:   -1.73 KCAL/MOL
REMARK 927      BINDING AFFINITY PREDICTED BY RF-SCORE:    0.00 PKD
ROOT
HETATM    1  C   UNL     1     -11.297   2.680  73.588  1.00  0.00    -0.288 C  
HETATM    2  C   UNL     1     -10.279   3.728  73.152  1.00  0.00    -0.157 C  
HETATM    3  C   UNL     1      -9.281   4.008  74.268  1.00  0.00    -0.113 C  
ENDROOT
BRANCH   2   4
HETATM    4  O   UNL     1      -9.537   3.234  72.021  1.00  0.00    -0.124 OA 
BRANCH   4   5
HETATM    5  C   UNL     1      -9.116   4.189  71.142  1.00  0.00    -0.124 C  
HETATM    6  O   UNL     1      -7.972   4.309  70.722  1.00  0.00    -0.058 OA 
BRANCH   5   7
HETATM    7  C   UNL     1     -10.269   5.091  70.782  1.00  0.00    -0.299 C  
BRANCH   7   8
HETATM    8  C   UNL     1     -10.308   5.349  69.275  1.00  0.00    -0.322 C  
BRANCH   8   9
HETATM    9  C   UNL     1     -10.884   6.716  68.914  1.00  0.00    -0.326 C  
BRANCH   9  10
HETATM   10  C   UNL     1     -11.112   6.870  67.437  1.00  0.00    -0.322 C  
HETATM   11  C   UNL     1     -10.427   7.666  66.598  1.00  0.00    -0.198 C  
BRANCH  11  12
HETATM   12  C   UNL     1      -9.270   8.556  66.949  1.00  0.00    -0.197 C  
BRANCH  12  13
HETATM   13  C   UNL     1      -8.714   9.422  65.806  1.00  0.00    -0.183 C  
HETATM   14  C   UNL     1      -7.600   8.679  65.045  1.00  0.00    -0.098 C  
HETATM   15  C   UNL     1      -7.434   9.502  63.782  1.00  0.00    -0.116 C  
HETATM   16  O   UNL     1      -8.009   7.366  64.663  1.00  0.00    -0.131 OA 
HETATM   17  C   UNL     1      -8.870   9.826  63.385  1.00  0.00    -0.241 C  
HETATM   18  H   UNL     1      -7.321   6.907  64.194  1.00  0.00     0.000 HD 
HETATM   19  C   UNL     1      -9.719   9.788  64.684  1.00  0.00    -0.166 C  
HETATM   20  O   UNL     1      -9.363   8.840  62.481  1.00  0.00    -0.471 OA 
HETATM   21  H   UNL     1     -10.258   9.043  62.233  1.00  0.00     0.000 HD 
BRANCH  19  22
HETATM   22  C   UNL     1     -10.432  11.132  64.924  1.00  0.00    -0.372 C  
BRANCH  22  23
HETATM   23  C   UNL     1     -10.422  11.987  63.654  1.00  0.00    -0.494 C  
BRANCH  23  24
HETATM   24  C   UNL     1     -11.804  12.481  63.210  1.00  0.00    -0.413 C  
HETATM   25  O   UNL     1     -12.610  11.376  62.801  1.00  0.00    -0.952 OA 
HETATM   26  H   UNL     1     -13.466  11.682  62.526  1.00  0.00     0.000 HD 
BRANCH  24  27
HETATM   27  C   UNL     1     -12.544  13.182  64.359  1.00  0.00    -0.315 C  
BRANCH  27  28
HETATM   28  C   UNL     1     -11.915  14.522  64.743  1.00  0.00    -0.449 C  
BRANCH  28  29
HETATM   29  C   UNL     1     -11.609  14.607  66.214  1.00  0.00    -0.344 A  
HETATM   30  C   UNL     1     -12.128  13.650  67.095  1.00  0.00    -0.404 A  
HETATM   31  C   UNL     1     -11.845  13.719  68.459  1.00  0.00    -0.406 A  
HETATM   32  C   UNL     1     -11.045  14.749  68.951  1.00  0.00    -0.264 A  
HETATM   33  C   UNL     1     -10.532  15.711  68.082  1.00  0.00    -0.259 A  
HETATM   34  C   UNL     1     -10.814  15.642  66.717  1.00  0.00    -0.277 A  
ENDBRANCH  28  29
ENDBRANCH  27  28
ENDBRANCH  24  27
ENDBRANCH  23  24
ENDBRANCH  22  23
ENDBRANCH  19  22
ENDBRANCH  12  13
ENDBRANCH  11  12
ENDBRANCH   9  10
ENDBRANCH   8   9
ENDBRANCH   7   8
ENDBRANCH   5   7
ENDBRANCH   4   5
ENDBRANCH   2   4
TORSDOF 14
ENDMDL
MODEL      208
REMARK 921   NORMALIZED FREE ENERGY PREDICTED BY IDOCK:   -4.02 KCAL/MOL
REMARK 922        TOTAL FREE ENERGY PREDICTED BY IDOCK:  -10.60 KCAL/MOL
REMARK 923 INTER-LIGAND FREE ENERGY PREDICTED BY IDOCK:   -8.20 KCAL/MOL
REMARK 924 INTRA-LIGAND FREE ENERGY PREDICTED BY IDOCK:   -2.40 KCAL/MOL
REMARK 927      BINDING AFFINITY PREDICTED BY RF-SCORE:    0.00 PKD
ROOT
HETATM    1  C   UNL     1      -9.945  17.852  67.184  1.00  0.00    -0.327 C  
HETATM    2  C   UNL     1      -9.740  16.356  67.394  1.00  0.00    -0.238 C  
HETATM    3  C   UNL     1      -9.361  16.059  68.840  1.00  0.00    -0.231 C  
ENDROOT
BRANCH   2   4
HETATM    4  O   UNL     1     -10.969  15.659  67.117  1.00  0.00    -0.319 OA 
BRANCH   4   5
HETATM    5  C   UNL     1     -10.910  14.768  66.085  1.00  0.00    -0.321 C  
HETATM    6  O   UNL     1     -10.513  15.019  64.954  1.00  0.00    -0.405 OA 
BRANCH   5   7
HETATM    7  C   UNL     1     -11.430  13.429  66.541  1.00  0.00    -0.372 C  
BRANCH   7   8
HETATM    8  C   UNL     1     -11.960  13.509  67.974  1.00  0.00    -0.372 C  
BRANCH   8   9
HETATM    9  C   UNL     1     -11.561  12.310  68.830  1.00  0.00    -0.380 C  
BRANCH   9  10
HETATM   10  C   UNL     1     -11.924  12.494  70.276  1.00  0.00    -0.364 C  
HETATM   11  C   UNL     1     -12.495  11.582  71.082  1.00  0.00    -0.442 C  
BRANCH  11  12
HETATM   12  C   UNL     1     -12.870  10.174  70.721  1.00  0.00    -0.388 C  
BRANCH  12  13
HETATM   13  C   UNL     1     -11.975   9.066  71.304  1.00  0.00    -0.374 C  
HETATM   14  C   UNL     1     -12.821   7.869  71.776  1.00  0.00    -0.328 C  
HETATM   15  C   UNL     1     -11.791   6.772  71.971  1.00  0.00    -0.351 C  
HETATM   16  O   UNL     1     -13.735   7.438  70.767  1.00  0.00    -0.592 OA 
HETATM   17  C   UNL     1     -10.875   6.934  70.763  1.00  0.00    -0.245 C  
HETATM   18  H   UNL     1     -14.257   6.699  71.059  1.00  0.00     0.000 HD 
HETATM   19  C   UNL     1     -10.972   8.417  70.316  1.00  0.00    -0.236 C  
HETATM   20  O   UNL     1     -11.320   6.099  69.695  1.00  0.00    -0.414 OA 
HETATM   21  H   UNL     1     -10.749   6.200  68.942  1.00  0.00     0.000 HD 
BRANCH  19  22
HETATM   22  C   UNL     1      -9.589   9.095  70.325  1.00  0.00    -0.249 C  
BRANCH  22  23
HETATM   23  C   UNL     1      -9.195   9.545  68.916  1.00  0.00    -0.145 C  
BRANCH  23  24
HETATM   24  C   UNL     1      -7.694   9.453  68.615  1.00  0.00    -0.084 C  
HETATM   25  O   UNL     1      -7.434   9.897  67.284  1.00  0.00    -0.087 OA 
HETATM   26  H   UNL     1      -6.504   9.841  67.098  1.00  0.00     0.000 HD 
BRANCH  24  27
HETATM   27  C   UNL     1      -6.878  10.348  69.560  1.00  0.00    -0.093 C  
BRANCH  27  28
HETATM   28  C   UNL     1      -5.822  11.177  68.829  1.00  0.00    -0.043 C  
BRANCH  28  29
HETATM   29  C   UNL     1      -5.721  12.577  69.371  1.00  0.00    -0.086 A  
HETATM   30  C   UNL     1      -5.713  13.670  68.493  1.00  0.00    -0.090 A  
HETATM   31  C   UNL     1      -5.625  14.971  68.988  1.00  0.00    -0.097 A  
HETATM   32  C   UNL     1      -5.540  15.188  70.361  1.00  0.00    -0.138 A  
HETATM   33  C   UNL     1      -5.538  14.106  71.241  1.00  0.00    -0.217 A  
HETATM   34  C   UNL     1      -5.626  12.804  70.747  1.00  0.00    -0.173 A  
ENDBRANCH  28  29
ENDBRANCH  27  28
ENDBRANCH  24  27
ENDBRANCH  23  24
ENDBRANCH  22  23
ENDBRANCH  19  22
ENDBRANCH  12  13
ENDBRANCH  11  12
ENDBRANCH   9  10
ENDBRANCH   8   9
ENDBRANCH   7   8
ENDBRANCH   5   7
ENDBRANCH   4   5
ENDBRANCH   2   4
TORSDOF 14
ENDMDL
MODEL      209
REMARK 921   NORMALIZED FREE ENERGY PREDICTED BY IDOCK:   -4.01 KCAL/MOL
REMARK 922        TOTAL FREE ENERGY PREDICTED BY IDOCK:  -10.58 KCAL/MOL
REMARK 923 INTER-LIGAND FREE ENERGY PREDICTED BY IDOCK:   -8.81 KCAL/MOL
REMARK 924 INTRA-LIGAND FREE ENERGY PREDICTED BY IDOCK:   -1.78 KCAL/MOL
REMARK 927      BINDING AFFINITY PREDICTED BY RF-SCORE:    0.00 PKD
ROOT
HETATM    1  C   UNL     1      -6.822   6.669  72.789  1.00  0.00    -0.068 C  
HETATM    2  C   UNL     1      -8.246   7.167  73.013  1.00  0.00    -0.105 C  
HETATM    3  C   UNL     1      -8.364   7.881  74.353  1.00  0.00    -0.271 C  
ENDROOT
BRANCH   2   4
HETATM    4  O   UNL     1      -8.589   8.115  71.985  1.00  0.00    -0.132 OA 
BRANCH   4   5
HETATM    5  C   UNL     1      -9.910   8.148  71.645  1.00  0.00    -0.182 C  
HETATM    6  O   UNL     1     -10.534   9.152  71.327  1.00  0.00    -0.274 OA 
BRANCH   5   7
HETATM    7  C   UNL     1     -10.494   6.762  71.742  1.00  0.00    -0.228 C  
BRANCH   7   8
HETATM    8  C   UNL     1     -11.323   6.433  70.499  1.00  0.00    -0.438 C  
BRANCH   8   9
HETATM    9  C   UNL     1     -10.469   6.127  69.271  1.00  0.00    -0.314 C  
BRANCH   9  10
HETATM   10  C   UNL     1     -11.157   6.500  67.988  1.00  0.00    -0.332 C  
HETATM   11  C   UNL     1     -10.587   7.052  66.903  1.00  0.00    -0.372 C  
BRANCH  11  12
HETATM   12  C   UNL     1      -9.135   7.391  66.726  1.00  0.00    -0.178 C  
BRANCH  12  13
HETATM   13  C   UNL     1      -8.820   8.860  66.393  1.00  0.00    -0.178 C  
HETATM   14  C   UNL     1      -8.050   8.969  65.064  1.00  0.00    -0.137 C  
HETATM   15  C   UNL     1      -8.147  10.445  64.729  1.00  0.00    -0.124 C  
HETATM   16  O   UNL     1      -8.695   8.239  64.020  1.00  0.00    -0.397 OA 
HETATM   17  C   UNL     1      -9.590  10.790  65.079  1.00  0.00    -0.254 C  
HETATM   18  H   UNL     1      -8.220   8.307  63.200  1.00  0.00     0.000 HD 
HETATM   19  C   UNL     1     -10.047   9.778  66.164  1.00  0.00    -0.315 C  
HETATM   20  O   UNL     1     -10.422  10.644  63.930  1.00  0.00    -0.472 OA 
HETATM   21  H   UNL     1     -11.322  10.858  64.149  1.00  0.00     0.000 HD 
BRANCH  19  22
HETATM   22  C   UNL     1     -10.509  10.502  67.443  1.00  0.00    -0.291 C  
BRANCH  22  23
HETATM   23  C   UNL     1     -10.495  12.020  67.243  1.00  0.00    -0.241 C  
BRANCH  23  24
HETATM   24  C   UNL     1     -11.853  12.701  67.451  1.00  0.00    -0.328 C  
HETATM   25  O   UNL     1     -12.147  12.791  68.845  1.00  0.00    -0.269 OA 
HETATM   26  H   UNL     1     -12.988  13.213  68.974  1.00  0.00     0.000 HD 
BRANCH  24  27
HETATM   27  C   UNL     1     -11.853  14.132  66.893  1.00  0.00    -0.458 C  
BRANCH  27  28
HETATM   28  C   UNL     1     -10.446  14.702  66.716  1.00  0.00    -0.277 C  
BRANCH  28  29
HETATM   29  C   UNL     1     -10.369  16.157  67.090  1.00  0.00    -0.291 A  
HETATM   30  C   UNL     1     -10.327  16.535  68.439  1.00  0.00    -0.294 A  
HETATM   31  C   UNL     1     -10.251  17.881  68.792  1.00  0.00    -0.362 A  
HETATM   32  C   UNL     1     -10.221  18.860  67.801  1.00  0.00    -0.458 A  
HETATM   33  C   UNL     1     -10.272  18.494  66.456  1.00  0.00    -0.440 A  
HETATM   34  C   UNL     1     -10.348  17.146  66.101  1.00  0.00    -0.327 A  
ENDBRANCH  28  29
ENDBRANCH  27  28
ENDBRANCH  24  27
ENDBRANCH  23  24
ENDBRANCH  22  23
ENDBRANCH  19  22
ENDBRANCH  12  13
ENDBRANCH  11  12
ENDBRANCH   9  10
ENDBRANCH   8   9
ENDBRANCH   7   8
ENDBRANCH   5   7
ENDBRANCH   4   5
ENDBRANCH   2   4
TORSDOF 14
ENDMDL
MODEL      210
REMARK 921   NORMALIZED FREE ENERGY PREDICTED BY IDOCK:   -4.00 KCAL/MOL
REMARK 922        TOTAL FREE ENERGY PREDICTED BY IDOCK:  -10.56 KCAL/MOL
REMARK 923 INTER-LIGAND FREE ENERGY PREDICTED BY IDOCK:   -9.46 KCAL/MOL
REMARK 924 INTRA-LIGAND FREE ENERGY PREDICTED BY IDOCK:   -1.10 KCAL/MOL
REMARK 927      BINDING AFFINITY PREDICTED BY RF-SCORE:    0.00 PKD
ROOT
HETATM    1  C   UNL     1      -9.042   9.769  62.978  1.00  0.00    -0.271 C  
HETATM    2  C   UNL     1      -8.261   8.762  63.814  1.00  0.00    -0.163 C  
HETATM    3  C   UNL     1      -6.761   8.982  63.664  1.00  0.00    -0.089 C  
ENDROOT
BRANCH   2   4
HETATM    4  O   UNL     1      -8.587   8.938  65.205  1.00  0.00    -0.164 OA 
BRANCH   4   5
HETATM    5  C   UNL     1      -8.952   7.800  65.864  1.00  0.00    -0.113 C  
HETATM    6  O   UNL     1      -8.333   6.744  65.849  1.00  0.00    -0.125 OA 
BRANCH   5   7
HETATM    7  C   UNL     1     -10.248   8.033  66.599  1.00  0.00    -0.315 C  
BRANCH   7   8
HETATM    8  C   UNL     1     -10.032   8.941  67.810  1.00  0.00    -0.241 C  
BRANCH   8   9
HETATM    9  C   UNL     1      -8.668   8.749  68.469  1.00  0.00    -0.135 C  
BRANCH   9  10
HETATM   10  C   UNL     1      -8.188   9.993  69.163  1.00  0.00    -0.137 C  
HETATM   11  C   UNL     1      -8.308  11.256  68.720  1.00  0.00    -0.120 C  
BRANCH  11  12
HETATM   12  C   UNL     1      -8.970  11.702  67.448  1.00  0.00    -0.166 C  
BRANCH  12  13
HETATM   13  C   UNL     1      -9.912  12.913  67.566  1.00  0.00    -0.215 C  
HETATM   14  C   UNL     1      -9.754  13.852  66.356  1.00  0.00    -0.297 C  
HETATM   15  C   UNL     1     -10.968  14.755  66.457  1.00  0.00    -0.325 C  
HETATM   16  O   UNL     1      -9.838  13.141  65.121  1.00  0.00    -0.494 OA 
HETATM   17  C   UNL     1     -12.089  13.793  66.835  1.00  0.00    -0.413 C  
HETATM   18  H   UNL     1      -9.740  13.721  64.375  1.00  0.00     0.000 HD 
HETATM   19  C   UNL     1     -11.429  12.591  67.563  1.00  0.00    -0.397 C  
HETATM   20  O   UNL     1     -12.745  13.318  65.661  1.00  0.00    -0.444 OA 
HETATM   21  H   UNL     1     -13.443  12.719  65.896  1.00  0.00     0.000 HD 
BRANCH  19  22
HETATM   22  C   UNL     1     -12.011  12.406  68.976  1.00  0.00    -0.291 C  
BRANCH  22  23
HETATM   23  C   UNL     1     -11.857  10.956  69.442  1.00  0.00    -0.400 C  
BRANCH  23  24
HETATM   24  C   UNL     1     -12.878  10.514  70.497  1.00  0.00    -0.264 C  
HETATM   25  O   UNL     1     -12.645   9.154  70.864  1.00  0.00    -0.480 OA 
HETATM   26  H   UNL     1     -13.278   8.881  71.518  1.00  0.00     0.000 HD 
BRANCH  24  27
HETATM   27  C   UNL     1     -12.760  11.356  71.777  1.00  0.00    -0.359 C  
BRANCH  27  28
HETATM   28  C   UNL     1     -13.780  12.493  71.837  1.00  0.00    -0.107 C  
BRANCH  28  29
HETATM   29  C   UNL     1     -13.127  13.835  72.027  1.00  0.00    -0.485 A  
HETATM   30  C   UNL     1     -12.759  14.600  70.912  1.00  0.00    -0.413 A  
HETATM   31  C   UNL     1     -12.158  15.847  71.081  1.00  0.00    -0.464 A  
HETATM   32  C   UNL     1     -11.916  16.335  72.363  1.00  0.00    -0.630 A  
HETATM   33  C   UNL     1     -12.270  15.576  73.478  1.00  0.00    -0.651 A  
HETATM   34  C   UNL     1     -12.872  14.328  73.311  1.00  0.00    -0.291 A  
ENDBRANCH  28  29
ENDBRANCH  27  28
ENDBRANCH  24  27
ENDBRANCH  23  24
ENDBRANCH  22  23
ENDBRANCH  19  22
ENDBRANCH  12  13
ENDBRANCH  11  12
ENDBRANCH   9  10
ENDBRANCH   8   9
ENDBRANCH   7   8
ENDBRANCH   5   7
ENDBRANCH   4   5
ENDBRANCH   2   4
TORSDOF 14
ENDMDL
MODEL      211
REMARK 921   NORMALIZED FREE ENERGY PREDICTED BY IDOCK:   -3.99 KCAL/MOL
REMARK 922        TOTAL FREE ENERGY PREDICTED BY IDOCK:  -10.54 KCAL/MOL
REMARK 923 INTER-LIGAND FREE ENERGY PREDICTED BY IDOCK:   -8.59 KCAL/MOL
REMARK 924 INTRA-LIGAND FREE ENERGY PREDICTED BY IDOCK:   -1.95 KCAL/MOL
REMARK 927      BINDING AFFINITY PREDICTED BY RF-SCORE:    0.00 PKD
ROOT
HETATM    1  C   UNL     1     -10.027  10.710  63.585  1.00  0.00    -0.364 C  
HETATM    2  C   UNL     1      -9.108   9.646  64.175  1.00  0.00    -0.209 C  
HETATM    3  C   UNL     1      -7.650  10.071  64.067  1.00  0.00    -0.139 C  
ENDROOT
BRANCH   2   4
HETATM    4  O   UNL     1      -9.407   9.476  65.573  1.00  0.00    -0.218 OA 
BRANCH   4   5
HETATM    5  C   UNL     1      -9.360   8.189  66.023  1.00  0.00    -0.117 C  
HETATM    6  O   UNL     1      -8.515   7.360  65.710  1.00  0.00    -0.136 OA 
BRANCH   5   7
HETATM    7  C   UNL     1     -10.521   7.932  66.950  1.00  0.00    -0.388 C  
BRANCH   7   8
HETATM    8  C   UNL     1     -10.527   8.934  68.105  1.00  0.00    -0.254 C  
BRANCH   8   9
HETATM    9  C   UNL     1      -9.146   9.157  68.715  1.00  0.00    -0.136 C  
BRANCH   9  10
HETATM   10  C   UNL     1      -9.013  10.511  69.353  1.00  0.00    -0.111 C  
HETATM   11  C   UNL     1      -9.069  11.700  68.731  1.00  0.00    -0.029 C  
BRANCH  11  12
HETATM   12  C   UNL     1      -9.301  11.937  67.266  1.00  0.00    -0.177 C  
BRANCH  12  13
HETATM   13  C   UNL     1     -10.104  13.198  66.905  1.00  0.00    -0.245 C  
HETATM   14  C   UNL     1     -11.565  12.843  66.569  1.00  0.00    -0.371 C  
HETATM   15  C   UNL     1     -12.264  14.189  66.597  1.00  0.00    -0.450 C  
HETATM   16  O   UNL     1     -12.153  12.022  67.579  1.00  0.00    -0.555 OA 
HETATM   17  C   UNL     1     -11.657  14.873  67.817  1.00  0.00    -0.339 C  
HETATM   18  H   UNL     1     -13.054  11.803  67.371  1.00  0.00     0.000 HD 
HETATM   19  C   UNL     1     -10.251  14.252  68.032  1.00  0.00    -0.226 C  
HETATM   20  O   UNL     1     -12.457  14.619  68.970  1.00  0.00    -0.573 OA 
HETATM   21  H   UNL     1     -12.079  15.045  69.730  1.00  0.00     0.000 HD 
BRANCH  19  22
HETATM   22  C   UNL     1      -9.153  15.331  67.999  1.00  0.00    -0.176 C  
BRANCH  22  23
HETATM   23  C   UNL     1      -8.137  15.107  69.123  1.00  0.00    -0.214 C  
BRANCH  23  24
HETATM   24  C   UNL     1      -6.857  15.943  68.999  1.00  0.00    -0.153 C  
HETATM   25  O   UNL     1      -5.710  15.098  69.095  1.00  0.00    -0.097 OA 
HETATM   26  H   UNL     1      -4.918  15.615  69.017  1.00  0.00     0.000 HD 
BRANCH  24  27
HETATM   27  C   UNL     1      -6.784  16.656  67.640  1.00  0.00    -0.161 C  
BRANCH  27  28
HETATM   28  C   UNL     1      -6.799  18.179  67.767  1.00  0.00    -0.202 C  
BRANCH  28  29
HETATM   29  C   UNL     1      -8.176  18.753  67.575  1.00  0.00    -0.278 A  
HETATM   30  C   UNL     1      -8.645  19.038  66.285  1.00  0.00    -0.281 A  
HETATM   31  C   UNL     1      -9.922  19.565  66.099  1.00  0.00    -0.526 A  
HETATM   32  C   UNL     1     -10.737  19.817  67.201  1.00  0.00    -0.547 A  
HETATM   33  C   UNL     1     -10.276  19.546  68.488  1.00  0.00    -0.517 A  
HETATM   34  C   UNL     1      -8.998  19.017  68.676  1.00  0.00    -0.402 A  
ENDBRANCH  28  29
ENDBRANCH  27  28
ENDBRANCH  24  27
ENDBRANCH  23  24
ENDBRANCH  22  23
ENDBRANCH  19  22
ENDBRANCH  12  13
ENDBRANCH  11  12
ENDBRANCH   9  10
ENDBRANCH   8   9
ENDBRANCH   7   8
ENDBRANCH   5   7
ENDBRANCH   4   5
ENDBRANCH   2   4
TORSDOF 14
ENDMDL
MODEL      212
REMARK 921   NORMALIZED FREE ENERGY PREDICTED BY IDOCK:   -3.98 KCAL/MOL
REMARK 922        TOTAL FREE ENERGY PREDICTED BY IDOCK:  -10.54 KCAL/MOL
REMARK 923 INTER-LIGAND FREE ENERGY PREDICTED BY IDOCK:   -9.58 KCAL/MOL
REMARK 924 INTRA-LIGAND FREE ENERGY PREDICTED BY IDOCK:   -0.96 KCAL/MOL
REMARK 927      BINDING AFFINITY PREDICTED BY RF-SCORE:    0.00 PKD
ROOT
HETATM    1  C   UNL     1     -10.820   5.887  67.211  1.00  0.00    -0.351 C  
HETATM    2  C   UNL     1     -10.007   4.663  66.803  1.00  0.00    -0.225 C  
HETATM    3  C   UNL     1      -9.634   4.729  65.328  1.00  0.00    -0.126 C  
ENDROOT
BRANCH   2   4
HETATM    4  O   UNL     1      -8.783   4.627  67.559  1.00  0.00    -0.104 OA 
BRANCH   4   5
HETATM    5  C   UNL     1      -8.390   5.824  68.084  1.00  0.00    -0.107 C  
HETATM    6  O   UNL     1      -7.951   6.769  67.441  1.00  0.00    -0.111 OA 
BRANCH   5   7
HETATM    7  C   UNL     1      -8.557   5.801  69.582  1.00  0.00    -0.116 C  
BRANCH   7   8
HETATM    8  C   UNL     1      -7.252   6.186  70.281  1.00  0.00    -0.083 C  
BRANCH   8   9
HETATM    9  C   UNL     1      -7.392   7.409  71.184  1.00  0.00    -0.072 C  
BRANCH   9  10
HETATM   10  C   UNL     1      -7.864   8.623  70.435  1.00  0.00    -0.091 C  
HETATM   11  C   UNL     1      -8.995   9.313  70.657  1.00  0.00    -0.296 C  
BRANCH  11  12
HETATM   12  C   UNL     1     -10.021   9.039  71.718  1.00  0.00    -0.359 C  
BRANCH  12  13
HETATM   13  C   UNL     1     -11.414   8.619  71.218  1.00  0.00    -0.341 C  
HETATM   14  C   UNL     1     -11.851   7.290  71.862  1.00  0.00    -0.297 C  
HETATM   15  C   UNL     1     -13.334   7.225  71.549  1.00  0.00    -0.435 C  
HETATM   16  O   UNL     1     -11.704   7.318  73.282  1.00  0.00    -0.515 OA 
HETATM   17  C   UNL     1     -13.806   8.655  71.790  1.00  0.00    -0.425 C  
HETATM   18  H   UNL     1     -11.973   6.498  73.679  1.00  0.00     0.000 HD 
HETATM   19  C   UNL     1     -12.578   9.579  71.573  1.00  0.00    -0.462 C  
HETATM   20  O   UNL     1     -14.264   8.801  73.132  1.00  0.00    -1.112 OA 
HETATM   21  H   UNL     1     -14.557   9.692  73.282  1.00  0.00     0.000 HD 
BRANCH  19  22
HETATM   22  C   UNL     1     -12.853  10.627  70.479  1.00  0.00    -0.356 C  
BRANCH  22  23
HETATM   23  C   UNL     1     -11.656  11.568  70.313  1.00  0.00    -0.305 C  
BRANCH  23  24
HETATM   24  C   UNL     1     -12.021  13.056  70.255  1.00  0.00    -0.285 C  
HETATM   25  O   UNL     1     -11.576  13.715  71.441  1.00  0.00    -0.074 OA 
HETATM   26  H   UNL     1     -11.802  14.637  71.404  1.00  0.00     0.000 HD 
BRANCH  24  27
HETATM   27  C   UNL     1     -11.341  13.753  69.066  1.00  0.00    -0.333 C  
BRANCH  27  28
HETATM   28  C   UNL     1     -11.642  13.076  67.729  1.00  0.00    -0.385 C  
BRANCH  28  29
HETATM   29  C   UNL     1     -11.541  14.032  66.571  1.00  0.00    -0.389 A  
HETATM   30  C   UNL     1     -10.503  14.972  66.526  1.00  0.00    -0.285 A  
HETATM   31  C   UNL     1     -10.400  15.857  65.454  1.00  0.00    -0.399 A  
HETATM   32  C   UNL     1     -11.336  15.813  64.423  1.00  0.00    -0.274 A  
HETATM   33  C   UNL     1     -12.378  14.887  64.465  1.00  0.00    -0.330 A  
HETATM   34  C   UNL     1     -12.482  14.000  65.537  1.00  0.00    -0.533 A  
ENDBRANCH  28  29
ENDBRANCH  27  28
ENDBRANCH  24  27
ENDBRANCH  23  24
ENDBRANCH  22  23
ENDBRANCH  19  22
ENDBRANCH  12  13
ENDBRANCH  11  12
ENDBRANCH   9  10
ENDBRANCH   8   9
ENDBRANCH   7   8
ENDBRANCH   5   7
ENDBRANCH   4   5
ENDBRANCH   2   4
TORSDOF 14
ENDMDL
MODEL      213
REMARK 921   NORMALIZED FREE ENERGY PREDICTED BY IDOCK:   -3.98 KCAL/MOL
REMARK 922        TOTAL FREE ENERGY PREDICTED BY IDOCK:  -10.53 KCAL/MOL
REMARK 923 INTER-LIGAND FREE ENERGY PREDICTED BY IDOCK:   -9.25 KCAL/MOL
REMARK 924 INTRA-LIGAND FREE ENERGY PREDICTED BY IDOCK:   -1.28 KCAL/MOL
REMARK 927      BINDING AFFINITY PREDICTED BY RF-SCORE:    0.00 PKD
ROOT
HETATM    1  C   UNL     1     -13.469   8.955  72.552  1.00  0.00    -0.462 C  
HETATM    2  C   UNL     1     -13.256   9.659  71.217  1.00  0.00    -0.355 C  
HETATM    3  C   UNL     1     -12.951  11.136  71.427  1.00  0.00    -0.506 C  
ENDROOT
BRANCH   2   4
HETATM    4  O   UNL     1     -12.126   9.076  70.542  1.00  0.00    -0.117 OA 
BRANCH   4   5
HETATM    5  C   UNL     1     -11.181   8.528  71.361  1.00  0.00    -0.266 C  
HETATM    6  O   UNL     1     -10.395   9.160  72.056  1.00  0.00    -0.307 OA 
BRANCH   5   7
HETATM    7  C   UNL     1     -11.234   7.025  71.264  1.00  0.00    -0.296 C  
BRANCH   7   8
HETATM    8  C   UNL     1     -11.578   6.583  69.840  1.00  0.00    -0.433 C  
BRANCH   8   9
HETATM    9  C   UNL     1     -10.398   6.688  68.877  1.00  0.00    -0.216 C  
BRANCH   9  10
HETATM   10  C   UNL     1     -10.836   6.749  67.441  1.00  0.00    -0.417 C  
HETATM   11  C   UNL     1     -10.103   7.173  66.397  1.00  0.00    -0.051 C  
BRANCH  11  12
HETATM   12  C   UNL     1      -8.681   7.653  66.434  1.00  0.00    -0.166 C  
BRANCH  12  13
HETATM   13  C   UNL     1      -8.388   8.957  65.671  1.00  0.00    -0.144 C  
HETATM   14  C   UNL     1      -7.646   8.668  64.353  1.00  0.00    -0.115 C  
HETATM   15  C   UNL     1      -7.764   9.976  63.595  1.00  0.00    -0.143 C  
HETATM   16  O   UNL     1      -8.303   7.657  63.589  1.00  0.00    -0.362 OA 
HETATM   17  C   UNL     1      -9.204  10.404  63.858  1.00  0.00    -0.266 C  
HETATM   18  H   UNL     1      -7.845   7.479  62.776  1.00  0.00     0.000 HD 
HETATM   19  C   UNL     1      -9.629   9.760  65.205  1.00  0.00    -0.356 C  
HETATM   20  O   UNL     1     -10.057   9.917  62.823  1.00  0.00    -0.381 OA 
HETATM   21  H   UNL     1     -10.954  10.184  62.988  1.00  0.00     0.000 HD 
BRANCH  19  22
HETATM   22  C   UNL     1     -10.074  10.830  66.219  1.00  0.00    -0.285 C  
BRANCH  22  23
HETATM   23  C   UNL     1     -10.092  12.217  65.573  1.00  0.00    -0.279 C  
BRANCH  23  24
HETATM   24  C   UNL     1     -11.471  12.887  65.544  1.00  0.00    -0.326 C  
HETATM   25  O   UNL     1     -12.280  12.386  66.608  1.00  0.00    -0.562 OA 
HETATM   26  H   UNL     1     -13.134  12.801  66.591  1.00  0.00     0.000 HD 
BRANCH  24  27
HETATM   27  C   UNL     1     -11.359  14.408  65.737  1.00  0.00    -0.330 C  
BRANCH  27  28
HETATM   28  C   UNL     1     -11.447  14.829  67.204  1.00  0.00    -0.375 C  
BRANCH  28  29
HETATM   29  C   UNL     1     -10.413  15.862  67.562  1.00  0.00    -0.298 A  
HETATM   30  C   UNL     1      -9.074  15.672  67.195  1.00  0.00    -0.227 A  
HETATM   31  C   UNL     1      -8.112  16.627  67.519  1.00  0.00    -0.184 A  
HETATM   32  C   UNL     1      -8.479  17.774  68.218  1.00  0.00    -0.277 A  
HETATM   33  C   UNL     1      -9.807  17.967  68.597  1.00  0.00    -0.375 A  
HETATM   34  C   UNL     1     -10.772  17.012  68.272  1.00  0.00    -0.372 A  
ENDBRANCH  28  29
ENDBRANCH  27  28
ENDBRANCH  24  27
ENDBRANCH  23  24
ENDBRANCH  22  23
ENDBRANCH  19  22
ENDBRANCH  12  13
ENDBRANCH  11  12
ENDBRANCH   9  10
ENDBRANCH   8   9
ENDBRANCH   7   8
ENDBRANCH   5   7
ENDBRANCH   4   5
ENDBRANCH   2   4
TORSDOF 14
ENDMDL
MODEL      214
REMARK 921   NORMALIZED FREE ENERGY PREDICTED BY IDOCK:   -3.98 KCAL/MOL
REMARK 922        TOTAL FREE ENERGY PREDICTED BY IDOCK:  -10.52 KCAL/MOL
REMARK 923 INTER-LIGAND FREE ENERGY PREDICTED BY IDOCK:   -8.63 KCAL/MOL
REMARK 924 INTRA-LIGAND FREE ENERGY PREDICTED BY IDOCK:   -1.90 KCAL/MOL
REMARK 927      BINDING AFFINITY PREDICTED BY RF-SCORE:    0.00 PKD
ROOT
HETATM    1  C   UNL     1     -12.492  12.024  63.137  1.00  0.00    -0.387 C  
HETATM    2  C   UNL     1     -11.534  12.191  64.311  1.00  0.00    -0.367 C  
HETATM    3  C   UNL     1     -10.426  11.147  64.257  1.00  0.00    -0.427 C  
ENDROOT
BRANCH   2   4
HETATM    4  O   UNL     1     -10.912  13.487  64.241  1.00  0.00    -0.383 OA 
BRANCH   4   5
HETATM    5  C   UNL     1     -11.744  14.543  64.474  1.00  0.00    -0.410 C  
HETATM    6  O   UNL     1     -12.620  14.936  63.714  1.00  0.00    -0.791 OA 
BRANCH   5   7
HETATM    7  C   UNL     1     -11.408  15.171  65.803  1.00  0.00    -0.238 C  
BRANCH   7   8
HETATM    8  C   UNL     1     -10.694  16.510  65.608  1.00  0.00    -0.257 C  
BRANCH   8   9
HETATM    9  C   UNL     1      -9.184  16.421  65.813  1.00  0.00    -0.110 C  
BRANCH   9  10
HETATM   10  C   UNL     1      -8.616  17.669  66.427  1.00  0.00    -0.269 C  
HETATM   11  C   UNL     1      -8.146  17.806  67.679  1.00  0.00    -0.223 C  
BRANCH  11  12
HETATM   12  C   UNL     1      -8.062  16.735  68.728  1.00  0.00    -0.252 C  
BRANCH  12  13
HETATM   13  C   UNL     1      -7.317  15.451  68.325  1.00  0.00    -0.113 C  
HETATM   14  C   UNL     1      -5.856  15.488  68.811  1.00  0.00    -0.096 C  
HETATM   15  C   UNL     1      -5.402  14.049  68.653  1.00  0.00    -0.089 C  
HETATM   16  O   UNL     1      -5.769  15.826  70.195  1.00  0.00    -0.151 OA 
HETATM   17  C   UNL     1      -6.601  13.248  69.150  1.00  0.00    -0.105 C  
HETATM   18  H   UNL     1      -4.868  15.849  70.495  1.00  0.00     0.000 HD 
HETATM   19  C   UNL     1      -7.857  14.135  68.940  1.00  0.00    -0.076 C  
HETATM   20  O   UNL     1      -6.460  12.967  70.541  1.00  0.00    -0.446 OA 
HETATM   21  H   UNL     1      -7.206  12.467  70.851  1.00  0.00     0.000 HD 
BRANCH  19  22
HETATM   22  C   UNL     1      -8.895  13.430  68.047  1.00  0.00    -0.183 C  
BRANCH  22  23
HETATM   23  C   UNL     1     -10.245  13.325  68.762  1.00  0.00    -0.119 C  
BRANCH  23  24
HETATM   24  C   UNL     1     -10.831  11.909  68.811  1.00  0.00    -0.231 C  
HETATM   25  O   UNL     1     -11.843  11.765  67.814  1.00  0.00    -0.541 OA 
HETATM   26  H   UNL     1     -12.206  10.887  67.844  1.00  0.00     0.000 HD 
BRANCH  24  27
HETATM   27  C   UNL     1      -9.757  10.849  68.523  1.00  0.00    -0.183 C  
BRANCH  27  28
HETATM   28  C   UNL     1     -10.194   9.830  67.471  1.00  0.00    -0.271 C  
BRANCH  28  29
HETATM   29  C   UNL     1     -10.530   8.494  68.076  1.00  0.00    -0.249 A  
HETATM   30  C   UNL     1     -10.604   7.354  67.264  1.00  0.00    -0.393 A  
HETATM   31  C   UNL     1     -10.910   6.112  67.819  1.00  0.00    -0.413 A  
HETATM   32  C   UNL     1     -11.151   6.002  69.187  1.00  0.00    -0.405 A  
HETATM   33  C   UNL     1     -11.089   7.133  70.000  1.00  0.00    -0.288 A  
HETATM   34  C   UNL     1     -10.782   8.376  69.447  1.00  0.00    -0.162 A  
ENDBRANCH  28  29
ENDBRANCH  27  28
ENDBRANCH  24  27
ENDBRANCH  23  24
ENDBRANCH  22  23
ENDBRANCH  19  22
ENDBRANCH  12  13
ENDBRANCH  11  12
ENDBRANCH   9  10
ENDBRANCH   8   9
ENDBRANCH   7   8
ENDBRANCH   5   7
ENDBRANCH   4   5
ENDBRANCH   2   4
TORSDOF 14
ENDMDL
MODEL      215
REMARK 921   NORMALIZED FREE ENERGY PREDICTED BY IDOCK:   -3.97 KCAL/MOL
REMARK 922        TOTAL FREE ENERGY PREDICTED BY IDOCK:  -10.51 KCAL/MOL
REMARK 923 INTER-LIGAND FREE ENERGY PREDICTED BY IDOCK:   -8.39 KCAL/MOL
REMARK 924 INTRA-LIGAND FREE ENERGY PREDICTED BY IDOCK:   -2.12 KCAL/MOL
REMARK 927      BINDING AFFINITY PREDICTED BY RF-SCORE:    0.00 PKD
ROOT
HETATM    1  C   UNL     1      -5.576  15.011  69.411  1.00  0.00    -0.092 C  
HETATM    2  C   UNL     1      -6.268  15.380  68.103  1.00  0.00    -0.127 C  
HETATM    3  C   UNL     1      -5.342  16.200  67.214  1.00  0.00    -0.053 C  
ENDROOT
BRANCH   2   4
HETATM    4  O   UNL     1      -6.606  14.179  67.385  1.00  0.00    -0.282 OA 
BRANCH   4   5
HETATM    5  C   UNL     1      -7.777  13.588  67.762  1.00  0.00    -0.163 C  
HETATM    6  O   UNL     1      -8.637  14.106  68.463  1.00  0.00    -0.171 OA 
BRANCH   5   7
HETATM    7  C   UNL     1      -7.842  12.189  67.204  1.00  0.00    -0.160 C  
BRANCH   7   8
HETATM    8  C   UNL     1      -6.640  11.363  67.663  1.00  0.00    -0.074 C  
BRANCH   8   9
HETATM    9  C   UNL     1      -6.492  11.310  69.182  1.00  0.00    -0.081 C  
BRANCH   9  10
HETATM   10  C   UNL     1      -7.621  10.569  69.841  1.00  0.00    -0.053 C  
HETATM   11  C   UNL     1      -8.071   9.344  69.522  1.00  0.00    -0.114 C  
BRANCH  11  12
HETATM   12  C   UNL     1      -7.528   8.438  68.454  1.00  0.00    -0.095 C  
BRANCH  12  13
HETATM   13  C   UNL     1      -8.521   8.017  67.356  1.00  0.00    -0.126 C  
HETATM   14  C   UNL     1      -8.504   6.491  67.156  1.00  0.00    -0.112 C  
HETATM   15  C   UNL     1      -9.754   6.236  66.334  1.00  0.00    -0.146 C  
HETATM   16  O   UNL     1      -8.645   5.795  68.394  1.00  0.00    -0.112 OA 
HETATM   17  C   UNL     1     -10.790   7.147  66.981  1.00  0.00    -0.312 C  
HETATM   18  H   UNL     1      -8.634   4.853  68.270  1.00  0.00     0.000 HD 
HETATM   19  C   UNL     1     -10.015   8.316  67.646  1.00  0.00    -0.245 C  
HETATM   20  O   UNL     1     -11.508   6.436  67.988  1.00  0.00    -0.597 OA 
HETATM   21  H   UNL     1     -12.153   7.004  68.392  1.00  0.00     0.000 HD 
BRANCH  19  22
HETATM   22  C   UNL     1     -10.477   9.677  67.095  1.00  0.00    -0.317 C  
BRANCH  22  23
HETATM   23  C   UNL     1     -11.402  10.381  68.093  1.00  0.00    -0.284 C  
BRANCH  23  24
HETATM   24  C   UNL     1     -11.334  11.913  68.051  1.00  0.00    -0.288 C  
HETATM   25  O   UNL     1     -12.225  12.414  67.055  1.00  0.00    -0.508 OA 
HETATM   26  H   UNL     1     -12.184  13.362  67.029  1.00  0.00     0.000 HD 
BRANCH  24  27
HETATM   27  C   UNL     1     -11.760  12.529  69.392  1.00  0.00    -0.383 C  
BRANCH  27  28
HETATM   28  C   UNL     1     -11.997  14.037  69.305  1.00  0.00    -0.396 C  
BRANCH  28  29
HETATM   29  C   UNL     1     -12.361  14.634  70.637  1.00  0.00    -0.398 A  
HETATM   30  C   UNL     1     -11.563  15.640  71.198  1.00  0.00    -0.462 A  
HETATM   31  C   UNL     1     -11.897  16.201  72.429  1.00  0.00    -0.637 A  
HETATM   32  C   UNL     1     -13.029  15.758  73.111  1.00  0.00    -0.651 A  
HETATM   33  C   UNL     1     -13.824  14.751  72.565  1.00  0.00    -0.561 A  
HETATM   34  C   UNL     1     -13.490  14.188  71.333  1.00  0.00    -0.388 A  
ENDBRANCH  28  29
ENDBRANCH  27  28
ENDBRANCH  24  27
ENDBRANCH  23  24
ENDBRANCH  22  23
ENDBRANCH  19  22
ENDBRANCH  12  13
ENDBRANCH  11  12
ENDBRANCH   9  10
ENDBRANCH   8   9
ENDBRANCH   7   8
ENDBRANCH   5   7
ENDBRANCH   4   5
ENDBRANCH   2   4
TORSDOF 14
ENDMDL
MODEL      216
REMARK 921   NORMALIZED FREE ENERGY PREDICTED BY IDOCK:   -3.97 KCAL/MOL
REMARK 922        TOTAL FREE ENERGY PREDICTED BY IDOCK:  -10.51 KCAL/MOL
REMARK 923 INTER-LIGAND FREE ENERGY PREDICTED BY IDOCK:   -7.89 KCAL/MOL
REMARK 924 INTRA-LIGAND FREE ENERGY PREDICTED BY IDOCK:   -2.62 KCAL/MOL
REMARK 927      BINDING AFFINITY PREDICTED BY RF-SCORE:    0.00 PKD
ROOT
HETATM    1  C   UNL     1     -12.048  10.909  69.582  1.00  0.00    -0.400 C  
HETATM    2  C   UNL     1     -12.640  10.718  70.974  1.00  0.00    -0.420 C  
HETATM    3  C   UNL     1     -13.038  12.057  71.581  1.00  0.00    -0.422 C  
ENDROOT
BRANCH   2   4
HETATM    4  O   UNL     1     -13.830   9.913  70.882  1.00  0.00    -0.154 OA 
BRANCH   4   5
HETATM    5  C   UNL     1     -13.915   8.897  71.789  1.00  0.00    -0.393 C  
HETATM    6  O   UNL     1     -14.391   8.990  72.914  1.00  0.00    -0.550 OA 
BRANCH   5   7
HETATM    7  C   UNL     1     -13.312   7.644  71.207  1.00  0.00    -0.276 C  
BRANCH   7   8
HETATM    8  C   UNL     1     -11.953   7.347  71.843  1.00  0.00    -0.337 C  
BRANCH   8   9
HETATM    9  C   UNL     1     -10.808   7.328  70.833  1.00  0.00    -0.262 C  
BRANCH   9  10
HETATM   10  C   UNL     1     -10.871   6.136  69.920  1.00  0.00    -0.420 C  
HETATM   11  C   UNL     1     -10.987   6.155  68.582  1.00  0.00    -0.415 C  
BRANCH  11  12
HETATM   12  C   UNL     1     -11.055   7.372  67.704  1.00  0.00    -0.008 C  
BRANCH  12  13
HETATM   13  C   UNL     1      -9.708   7.914  67.195  1.00  0.00    -0.249 C  
HETATM   14  C   UNL     1      -8.872   6.791  66.553  1.00  0.00    -0.143 C  
HETATM   15  C   UNL     1      -7.786   7.548  65.811  1.00  0.00    -0.107 C  
HETATM   16  O   UNL     1      -9.628   6.055  65.591  1.00  0.00    -0.374 OA 
HETATM   17  C   UNL     1      -8.541   8.716  65.185  1.00  0.00    -0.173 C  
HETATM   18  H   UNL     1      -9.112   5.362  65.195  1.00  0.00     0.000 HD 
HETATM   19  C   UNL     1      -9.788   8.977  66.070  1.00  0.00    -0.312 C  
HETATM   20  O   UNL     1      -8.970   8.373  63.869  1.00  0.00    -0.300 OA 
HETATM   21  H   UNL     1      -9.440   9.101  63.479  1.00  0.00     0.000 HD 
BRANCH  19  22
HETATM   22  C   UNL     1      -9.803  10.422  66.603  1.00  0.00    -0.251 C  
BRANCH  22  23
HETATM   23  C   UNL     1      -8.579  11.196  66.106  1.00  0.00    -0.172 C  
BRANCH  23  24
HETATM   24  C   UNL     1      -7.562  11.547  67.199  1.00  0.00    -0.149 C  
HETATM   25  O   UNL     1      -6.334  10.859  66.962  1.00  0.00    -0.067 OA 
HETATM   26  H   UNL     1      -5.704  11.076  67.638  1.00  0.00     0.000 HD 
BRANCH  24  27
HETATM   27  C   UNL     1      -7.245  13.050  67.207  1.00  0.00    -0.060 C  
BRANCH  27  28
HETATM   28  C   UNL     1      -7.786  13.765  68.446  1.00  0.00    -0.143 C  
BRANCH  28  29
HETATM   29  C   UNL     1      -9.102  14.445  68.183  1.00  0.00    -0.194 A  
HETATM   30  C   UNL     1     -10.297  13.850  68.610  1.00  0.00    -0.237 A  
HETATM   31  C   UNL     1     -11.520  14.477  68.374  1.00  0.00    -0.328 A  
HETATM   32  C   UNL     1     -11.558  15.699  67.705  1.00  0.00    -0.089 A  
HETATM   33  C   UNL     1     -10.374  16.292  67.268  1.00  0.00    -0.285 A  
HETATM   34  C   UNL     1      -9.149  15.666  67.504  1.00  0.00    -0.198 A  
ENDBRANCH  28  29
ENDBRANCH  27  28
ENDBRANCH  24  27
ENDBRANCH  23  24
ENDBRANCH  22  23
ENDBRANCH  19  22
ENDBRANCH  12  13
ENDBRANCH  11  12
ENDBRANCH   9  10
ENDBRANCH   8   9
ENDBRANCH   7   8
ENDBRANCH   5   7
ENDBRANCH   4   5
ENDBRANCH   2   4
TORSDOF 14
ENDMDL
MODEL      217
REMARK 921   NORMALIZED FREE ENERGY PREDICTED BY IDOCK:   -3.97 KCAL/MOL
REMARK 922        TOTAL FREE ENERGY PREDICTED BY IDOCK:  -10.51 KCAL/MOL
REMARK 923 INTER-LIGAND FREE ENERGY PREDICTED BY IDOCK:   -8.23 KCAL/MOL
REMARK 924 INTRA-LIGAND FREE ENERGY PREDICTED BY IDOCK:   -2.28 KCAL/MOL
REMARK 927      BINDING AFFINITY PREDICTED BY RF-SCORE:    0.00 PKD
ROOT
HETATM    1  C   UNL     1     -11.730  14.326  66.017  1.00  0.00    -0.384 C  
HETATM    2  C   UNL     1     -12.452  13.016  65.721  1.00  0.00    -0.329 C  
HETATM    3  C   UNL     1     -11.927  12.386  64.438  1.00  0.00    -0.482 C  
ENDROOT
BRANCH   2   4
HETATM    4  O   UNL     1     -12.210  12.084  66.792  1.00  0.00    -0.545 OA 
BRANCH   4   5
HETATM    5  C   UNL     1     -11.067  12.302  67.504  1.00  0.00    -0.275 C  
HETATM    6  O   UNL     1      -9.978  12.588  67.024  1.00  0.00    -0.210 OA 
BRANCH   5   7
HETATM    7  C   UNL     1     -11.342  12.117  68.975  1.00  0.00    -0.329 C  
BRANCH   7   8
HETATM    8  C   UNL     1     -11.773  10.679  69.270  1.00  0.00    -0.336 C  
BRANCH   8   9
HETATM    9  C   UNL     1     -12.638  10.556  70.523  1.00  0.00    -0.423 C  
BRANCH   9  10
HETATM   10  C   UNL     1     -12.760   9.136  70.997  1.00  0.00    -0.185 C  
HETATM   11  C   UNL     1     -11.851   8.445  71.705  1.00  0.00    -0.357 C  
BRANCH  11  12
HETATM   12  C   UNL     1     -10.525   8.949  72.198  1.00  0.00    -0.320 C  
BRANCH  12  13
HETATM   13  C   UNL     1      -9.295   8.117  71.798  1.00  0.00    -0.241 C  
HETATM   14  C   UNL     1      -8.661   8.661  70.504  1.00  0.00    -0.162 C  
HETATM   15  C   UNL     1      -7.308   7.976  70.466  1.00  0.00    -0.060 C  
HETATM   16  O   UNL     1      -8.439  10.069  70.577  1.00  0.00    -0.373 OA 
HETATM   17  C   UNL     1      -6.840   8.049  71.916  1.00  0.00    -0.070 C  
HETATM   18  H   UNL     1      -8.048  10.404  69.778  1.00  0.00     0.000 HD 
HETATM   19  C   UNL     1      -8.112   8.133  72.800  1.00  0.00    -0.221 C  
HETATM   20  O   UNL     1      -6.056   9.223  72.119  1.00  0.00    -0.223 OA 
HETATM   21  H   UNL     1      -5.764   9.268  73.022  1.00  0.00     0.000 HD 
BRANCH  19  22
HETATM   22  C   UNL     1      -8.164   6.977  73.816  1.00  0.00    -0.149 C  
BRANCH  22  23
HETATM   23  C   UNL     1      -9.085   5.859  73.320  1.00  0.00    -0.133 C  
BRANCH  23  24
HETATM   24  C   UNL     1      -8.353   4.606  72.823  1.00  0.00    -0.111 C  
HETATM   25  O   UNL     1      -8.498   3.548  73.771  1.00  0.00    -0.081 OA 
HETATM   26  H   UNL     1      -8.045   2.772  73.463  1.00  0.00     0.000 HD 
BRANCH  24  27
HETATM   27  C   UNL     1      -8.937   4.107  71.493  1.00  0.00    -0.163 C  
BRANCH  27  28
HETATM   28  C   UNL     1     -10.110   4.956  71.002  1.00  0.00    -0.288 C  
BRANCH  28  29
HETATM   29  C   UNL     1     -10.082   5.159  69.512  1.00  0.00    -0.316 A  
HETATM   30  C   UNL     1     -10.828   6.193  68.930  1.00  0.00    -0.406 A  
HETATM   31  C   UNL     1     -10.802   6.391  67.550  1.00  0.00    -0.438 A  
HETATM   32  C   UNL     1     -10.036   5.554  66.742  1.00  0.00    -0.242 A  
HETATM   33  C   UNL     1      -9.299   4.516  67.311  1.00  0.00    -0.165 A  
HETATM   34  C   UNL     1      -9.322   4.318  68.692  1.00  0.00    -0.213 A  
ENDBRANCH  28  29
ENDBRANCH  27  28
ENDBRANCH  24  27
ENDBRANCH  23  24
ENDBRANCH  22  23
ENDBRANCH  19  22
ENDBRANCH  12  13
ENDBRANCH  11  12
ENDBRANCH   9  10
ENDBRANCH   8   9
ENDBRANCH   7   8
ENDBRANCH   5   7
ENDBRANCH   4   5
ENDBRANCH   2   4
TORSDOF 14
ENDMDL
MODEL      218
REMARK 921   NORMALIZED FREE ENERGY PREDICTED BY IDOCK:   -3.96 KCAL/MOL
REMARK 922        TOTAL FREE ENERGY PREDICTED BY IDOCK:  -10.50 KCAL/MOL
REMARK 923 INTER-LIGAND FREE ENERGY PREDICTED BY IDOCK:   -7.08 KCAL/MOL
REMARK 924 INTRA-LIGAND FREE ENERGY PREDICTED BY IDOCK:   -3.42 KCAL/MOL
REMARK 927      BINDING AFFINITY PREDICTED BY RF-SCORE:    0.00 PKD
ROOT
HETATM    1  C   UNL     1     -12.022  10.832  69.620  1.00  0.00    -0.385 C  
HETATM    2  C   UNL     1     -12.627  10.602  71.000  1.00  0.00    -0.416 C  
HETATM    3  C   UNL     1     -13.051  11.922  71.632  1.00  0.00    -0.433 C  
ENDROOT
BRANCH   2   4
HETATM    4  O   UNL     1     -13.804   9.783  70.877  1.00  0.00    -0.178 OA 
BRANCH   4   5
HETATM    5  C   UNL     1     -13.861   8.717  71.727  1.00  0.00    -0.423 C  
HETATM    6  O   UNL     1     -14.311   8.743  72.865  1.00  0.00    -0.520 OA 
BRANCH   5   7
HETATM    7  C   UNL     1     -13.263   7.504  71.061  1.00  0.00    -0.133 C  
BRANCH   7   8
HETATM    8  C   UNL     1     -11.902   7.164  71.670  1.00  0.00    -0.340 C  
BRANCH   8   9
HETATM    9  C   UNL     1     -10.767   7.176  70.650  1.00  0.00    -0.255 C  
BRANCH   9  10
HETATM   10  C   UNL     1     -10.837   6.013  69.701  1.00  0.00    -0.439 C  
HETATM   11  C   UNL     1     -10.959   6.074  68.365  1.00  0.00    -0.340 C  
BRANCH  11  12
HETATM   12  C   UNL     1     -11.027   7.318  67.525  1.00  0.00    -0.221 C  
BRANCH  12  13
HETATM   13  C   UNL     1      -9.676   7.921  67.101  1.00  0.00    -0.249 C  
HETATM   14  C   UNL     1      -8.794   6.862  66.413  1.00  0.00    -0.145 C  
HETATM   15  C   UNL     1      -7.702   7.690  65.763  1.00  0.00    -0.100 C  
HETATM   16  O   UNL     1      -9.501   6.178  65.378  1.00  0.00    -0.360 OA 
HETATM   17  C   UNL     1      -8.462   8.883  65.191  1.00  0.00    -0.173 C  
HETATM   18  H   UNL     1      -8.957   5.525  64.954  1.00  0.00     0.000 HD 
HETATM   19  C   UNL     1      -9.744   9.056  66.048  1.00  0.00    -0.339 C  
HETATM   20  O   UNL     1      -8.840   8.621  63.841  1.00  0.00    -0.421 OA 
HETATM   21  H   UNL     1      -9.313   9.364  63.485  1.00  0.00     0.000 HD 
BRANCH  19  22
HETATM   22  C   UNL     1      -9.809  10.461  66.677  1.00  0.00    -0.251 C  
BRANCH  22  23
HETATM   23  C   UNL     1      -8.537  11.254  66.367  1.00  0.00    -0.174 C  
BRANCH  23  24
HETATM   24  C   UNL     1      -7.612  11.469  67.571  1.00  0.00    -0.121 C  
HETATM   25  O   UNL     1      -7.886  12.733  68.177  1.00  0.00    -0.127 OA 
HETATM   26  H   UNL     1      -7.313  12.866  68.924  1.00  0.00     0.000 HD 
BRANCH  24  27
HETATM   27  C   UNL     1      -7.833  10.394  68.646  1.00  0.00    -0.108 C  
BRANCH  27  28
HETATM   28  C   UNL     1      -6.549  10.020  69.387  1.00  0.00    -0.053 C  
BRANCH  28  29
HETATM   29  C   UNL     1      -6.741   8.842  70.302  1.00  0.00    -0.041 A  
HETATM   30  C   UNL     1      -6.555   8.988  71.683  1.00  0.00    -0.042 A  
HETATM   31  C   UNL     1      -6.736   7.901  72.538  1.00  0.00    -0.074 A  
HETATM   32  C   UNL     1      -7.099   6.661  72.018  1.00  0.00    -0.080 A  
HETATM   33  C   UNL     1      -7.277   6.504  70.644  1.00  0.00    -0.074 A  
HETATM   34  C   UNL     1      -7.096   7.591  69.787  1.00  0.00    -0.068 A  
ENDBRANCH  28  29
ENDBRANCH  27  28
ENDBRANCH  24  27
ENDBRANCH  23  24
ENDBRANCH  22  23
ENDBRANCH  19  22
ENDBRANCH  12  13
ENDBRANCH  11  12
ENDBRANCH   9  10
ENDBRANCH   8   9
ENDBRANCH   7   8
ENDBRANCH   5   7
ENDBRANCH   4   5
ENDBRANCH   2   4
TORSDOF 14
ENDMDL
MODEL      219
REMARK 921   NORMALIZED FREE ENERGY PREDICTED BY IDOCK:   -3.95 KCAL/MOL
REMARK 922        TOTAL FREE ENERGY PREDICTED BY IDOCK:  -10.47 KCAL/MOL
REMARK 923 INTER-LIGAND FREE ENERGY PREDICTED BY IDOCK:   -8.14 KCAL/MOL
REMARK 924 INTRA-LIGAND FREE ENERGY PREDICTED BY IDOCK:   -2.34 KCAL/MOL
REMARK 927      BINDING AFFINITY PREDICTED BY RF-SCORE:    0.00 PKD
ROOT
HETATM    1  C   UNL     1      -8.889  17.592  68.083  1.00  0.00    -0.263 C  
HETATM    2  C   UNL     1      -9.979  17.662  67.020  1.00  0.00    -0.320 C  
HETATM    3  C   UNL     1     -10.107  19.076  66.469  1.00  0.00    -0.463 C  
ENDROOT
BRANCH   2   4
HETATM    4  O   UNL     1      -9.634  16.798  65.921  1.00  0.00    -0.458 OA 
BRANCH   4   5
HETATM    5  C   UNL     1      -9.722  15.462  66.184  1.00  0.00    -0.318 C  
HETATM    6  O   UNL     1      -8.779  14.730  66.456  1.00  0.00    -0.232 OA 
BRANCH   5   7
HETATM    7  C   UNL     1     -11.157  15.016  66.065  1.00  0.00    -0.329 C  
BRANCH   7   8
HETATM    8  C   UNL     1     -11.242  13.499  65.885  1.00  0.00    -0.310 C  
BRANCH   8   9
HETATM    9  C   UNL     1     -11.164  13.063  64.424  1.00  0.00    -0.393 C  
BRANCH   9  10
HETATM   10  C   UNL     1     -11.338  11.579  64.260  1.00  0.00    -0.320 C  
HETATM   11  C   UNL     1     -10.385  10.640  64.391  1.00  0.00    -0.347 C  
BRANCH  11  12
HETATM   12  C   UNL     1      -8.945  10.867  64.754  1.00  0.00    -0.155 C  
BRANCH  12  13
HETATM   13  C   UNL     1      -8.427  10.090  65.977  1.00  0.00    -0.137 C  
HETATM   14  C   UNL     1      -6.894   9.954  65.931  1.00  0.00    -0.101 C  
HETATM   15  C   UNL     1      -6.544   9.504  67.337  1.00  0.00    -0.070 C  
HETATM   16  O   UNL     1      -6.259  11.212  65.703  1.00  0.00    -0.361 OA 
HETATM   17  C   UNL     1      -7.445  10.367  68.214  1.00  0.00    -0.090 C  
HETATM   18  H   UNL     1      -5.313  11.127  65.674  1.00  0.00     0.000 HD 
HETATM   19  C   UNL     1      -8.678  10.754  67.355  1.00  0.00    -0.126 C  
HETATM   20  O   UNL     1      -6.759  11.556  68.601  1.00  0.00    -0.062 OA 
HETATM   21  H   UNL     1      -7.321  12.094  69.148  1.00  0.00     0.000 HD 
BRANCH  19  22
HETATM   22  C   UNL     1      -9.989  10.292  68.019  1.00  0.00    -0.177 C  
BRANCH  22  23
HETATM   23  C   UNL     1     -10.427  11.282  69.102  1.00  0.00    -0.191 C  
BRANCH  23  24
HETATM   24  C   UNL     1     -11.451  10.723  70.097  1.00  0.00    -0.331 C  
HETATM   25  O   UNL     1     -12.769  10.845  69.562  1.00  0.00    -0.495 OA 
HETATM   26  H   UNL     1     -13.404  10.499  70.178  1.00  0.00     0.000 HD 
BRANCH  24  27
HETATM   27  C   UNL     1     -11.209   9.231  70.372  1.00  0.00    -0.290 C  
BRANCH  27  28
HETATM   28  C   UNL     1     -11.128   8.906  71.863  1.00  0.00    -0.442 C  
BRANCH  28  29
HETATM   29  C   UNL     1      -9.749   8.471  72.277  1.00  0.00    -0.380 A  
HETATM   30  C   UNL     1      -8.653   8.720  71.440  1.00  0.00    -0.254 A  
HETATM   31  C   UNL     1      -7.371   8.324  71.820  1.00  0.00    -0.105 A  
HETATM   32  C   UNL     1      -7.176   7.671  73.035  1.00  0.00    -0.092 A  
HETATM   33  C   UNL     1      -8.262   7.410  73.870  1.00  0.00    -0.193 A  
HETATM   34  C   UNL     1      -9.546   7.807  73.491  1.00  0.00    -0.332 A  
ENDBRANCH  28  29
ENDBRANCH  27  28
ENDBRANCH  24  27
ENDBRANCH  23  24
ENDBRANCH  22  23
ENDBRANCH  19  22
ENDBRANCH  12  13
ENDBRANCH  11  12
ENDBRANCH   9  10
ENDBRANCH   8   9
ENDBRANCH   7   8
ENDBRANCH   5   7
ENDBRANCH   4   5
ENDBRANCH   2   4
TORSDOF 14
ENDMDL
MODEL      220
REMARK 921   NORMALIZED FREE ENERGY PREDICTED BY IDOCK:   -3.95 KCAL/MOL
REMARK 922        TOTAL FREE ENERGY PREDICTED BY IDOCK:  -10.47 KCAL/MOL
REMARK 923 INTER-LIGAND FREE ENERGY PREDICTED BY IDOCK:   -8.55 KCAL/MOL
REMARK 924 INTRA-LIGAND FREE ENERGY PREDICTED BY IDOCK:   -1.92 KCAL/MOL
REMARK 927      BINDING AFFINITY PREDICTED BY RF-SCORE:    0.00 PKD
ROOT
HETATM    1  C   UNL     1      -8.175   4.558  64.439  1.00  0.00    -0.108 C  
HETATM    2  C   UNL     1      -9.571   4.526  65.050  1.00  0.00    -0.142 C  
HETATM    3  C   UNL     1      -9.748   3.296  65.931  1.00  0.00     0.062 C  
ENDROOT
BRANCH   2   4
HETATM    4  O   UNL     1      -9.757   5.686  65.883  1.00  0.00    -0.106 OA 
BRANCH   4   5
HETATM    5  C   UNL     1      -8.606   6.284  66.309  1.00  0.00    -0.138 C  
HETATM    6  O   UNL     1      -7.830   5.819  67.134  1.00  0.00    -0.100 OA 
BRANCH   5   7
HETATM    7  C   UNL     1      -8.444   7.617  65.625  1.00  0.00    -0.152 C  
BRANCH   7   8
HETATM    8  C   UNL     1      -7.653   8.587  66.505  1.00  0.00    -0.088 C  
BRANCH   8   9
HETATM    9  C   UNL     1      -8.440   9.078  67.717  1.00  0.00    -0.117 C  
BRANCH   9  10
HETATM   10  C   UNL     1      -7.679  10.093  68.521  1.00  0.00    -0.090 C  
HETATM   11  C   UNL     1      -7.641  11.420  68.310  1.00  0.00    -0.113 C  
BRANCH  11  12
HETATM   12  C   UNL     1      -8.372  12.179  67.240  1.00  0.00    -0.179 C  
BRANCH  12  13
HETATM   13  C   UNL     1      -9.785  12.668  67.604  1.00  0.00    -0.197 C  
HETATM   14  C   UNL     1     -10.044  14.075  67.035  1.00  0.00    -0.255 C  
HETATM   15  C   UNL     1     -11.546  14.233  67.171  1.00  0.00    -0.402 C  
HETATM   16  O   UNL     1      -9.719  14.150  65.647  1.00  0.00    -0.476 OA 
HETATM   17  C   UNL     1     -12.081  12.869  66.747  1.00  0.00    -0.265 C  
HETATM   18  H   UNL     1      -9.879  15.018  65.295  1.00  0.00     0.000 HD 
HETATM   19  C   UNL     1     -10.958  11.835  67.026  1.00  0.00    -0.333 C  
HETATM   20  O   UNL     1     -12.374  12.869  65.351  1.00  0.00    -0.457 OA 
HETATM   21  H   UNL     1     -12.707  12.020  65.087  1.00  0.00     0.000 HD 
BRANCH  19  22
HETATM   22  C   UNL     1     -11.442  10.728  67.980  1.00  0.00    -0.333 C  
BRANCH  22  23
HETATM   23  C   UNL     1     -11.108  11.078  69.433  1.00  0.00    -0.320 C  
BRANCH  23  24
HETATM   24  C   UNL     1     -12.095  10.518  70.464  1.00  0.00    -0.345 C  
HETATM   25  O   UNL     1     -11.428   9.598  71.330  1.00  0.00    -0.339 OA 
HETATM   26  H   UNL     1     -12.039   9.252  71.969  1.00  0.00     0.000 HD 
BRANCH  24  27
HETATM   27  C   UNL     1     -12.675  11.633  71.348  1.00  0.00    -0.445 C  
BRANCH  27  28
HETATM   28  C   UNL     1     -12.766  12.977  70.625  1.00  0.00    -0.175 C  
BRANCH  28  29
HETATM   29  C   UNL     1     -12.507  14.138  71.547  1.00  0.00    -0.423 A  
HETATM   30  C   UNL     1     -12.989  14.112  72.862  1.00  0.00    -0.498 A  
HETATM   31  C   UNL     1     -12.748  15.182  73.723  1.00  0.00    -0.667 A  
HETATM   32  C   UNL     1     -12.030  16.287  73.274  1.00  0.00    -0.525 A  
HETATM   33  C   UNL     1     -11.555  16.327  71.964  1.00  0.00    -0.427 A  
HETATM   34  C   UNL     1     -11.794  15.256  71.101  1.00  0.00    -0.399 A  
ENDBRANCH  28  29
ENDBRANCH  27  28
ENDBRANCH  24  27
ENDBRANCH  23  24
ENDBRANCH  22  23
ENDBRANCH  19  22
ENDBRANCH  12  13
ENDBRANCH  11  12
ENDBRANCH   9  10
ENDBRANCH   8   9
ENDBRANCH   7   8
ENDBRANCH   5   7
ENDBRANCH   4   5
ENDBRANCH   2   4
TORSDOF 14
ENDMDL
MODEL      221
REMARK 921   NORMALIZED FREE ENERGY PREDICTED BY IDOCK:   -3.93 KCAL/MOL
REMARK 922        TOTAL FREE ENERGY PREDICTED BY IDOCK:  -10.45 KCAL/MOL
REMARK 923 INTER-LIGAND FREE ENERGY PREDICTED BY IDOCK:   -7.56 KCAL/MOL
REMARK 924 INTRA-LIGAND FREE ENERGY PREDICTED BY IDOCK:   -2.89 KCAL/MOL
REMARK 927      BINDING AFFINITY PREDICTED BY RF-SCORE:    0.00 PKD
ROOT
HETATM    1  C   UNL     1      -9.263   3.974  64.904  1.00  0.00    -0.152 C  
HETATM    2  C   UNL     1      -9.875   4.291  66.264  1.00  0.00    -0.220 C  
HETATM    3  C   UNL     1      -9.370   3.320  67.324  1.00  0.00    -0.229 C  
ENDROOT
BRANCH   2   4
HETATM    4  O   UNL     1      -9.482   5.616  66.669  1.00  0.00    -0.137 OA 
BRANCH   4   5
HETATM    5  C   UNL     1      -8.306   6.059  66.139  1.00  0.00    -0.126 C  
HETATM    6  O   UNL     1      -7.196   5.619  66.411  1.00  0.00    -0.074 OA 
BRANCH   5   7
HETATM    7  C   UNL     1      -8.576   7.192  65.182  1.00  0.00     0.053 C  
BRANCH   7   8
HETATM    8  C   UNL     1      -8.138   8.529  65.783  1.00  0.00    -0.116 C  
BRANCH   8   9
HETATM    9  C   UNL     1      -8.976   8.948  66.988  1.00  0.00    -0.145 C  
BRANCH   9  10
HETATM   10  C   UNL     1      -8.154   9.623  68.050  1.00  0.00    -0.105 C  
HETATM   11  C   UNL     1      -7.923  10.942  68.168  1.00  0.00    -0.117 C  
BRANCH  11  12
HETATM   12  C   UNL     1      -8.456  12.030  67.281  1.00  0.00    -0.175 C  
BRANCH  12  13
HETATM   13  C   UNL     1      -9.668  12.808  67.821  1.00  0.00    -0.207 C  
HETATM   14  C   UNL     1      -9.597  14.290  67.409  1.00  0.00    -0.214 C  
HETATM   15  C   UNL     1     -10.996  14.799  67.702  1.00  0.00    -0.292 C  
HETATM   16  O   UNL     1      -9.360  14.438  66.009  1.00  0.00    -0.475 OA 
HETATM   17  C   UNL     1     -11.889  13.666  67.207  1.00  0.00    -0.391 C  
HETATM   18  H   UNL     1      -9.315  15.353  65.756  1.00  0.00     0.000 HD 
HETATM   19  C   UNL     1     -11.051  12.362  67.282  1.00  0.00    -0.329 C  
HETATM   20  O   UNL     1     -12.267  13.896  65.851  1.00  0.00    -0.412 OA 
HETATM   21  H   UNL     1     -12.824  13.190  65.543  1.00  0.00     0.000 HD 
BRANCH  19  22
HETATM   22  C   UNL     1     -11.737  11.309  68.172  1.00  0.00    -0.323 C  
BRANCH  22  23
HETATM   23  C   UNL     1     -11.420  11.558  69.650  1.00  0.00    -0.373 C  
BRANCH  23  24
HETATM   24  C   UNL     1     -12.407  10.910  70.629  1.00  0.00    -0.376 C  
HETATM   25  O   UNL     1     -13.460  10.268  69.909  1.00  0.00    -0.418 OA 
HETATM   26  H   UNL     1     -14.071   9.867  70.515  1.00  0.00     0.000 HD 
BRANCH  24  27
HETATM   27  C   UNL     1     -11.722   9.835  71.486  1.00  0.00    -0.450 C  
BRANCH  27  28
HETATM   28  C   UNL     1     -10.279   9.566  71.060  1.00  0.00    -0.332 C  
BRANCH  28  29
HETATM   29  C   UNL     1     -10.031   8.109  70.776  1.00  0.00    -0.209 A  
HETATM   30  C   UNL     1      -8.775   7.546  71.039  1.00  0.00    -0.134 A  
HETATM   31  C   UNL     1      -8.540   6.196  70.782  1.00  0.00    -0.135 A  
HETATM   32  C   UNL     1      -9.556   5.401  70.257  1.00  0.00    -0.236 A  
HETATM   33  C   UNL     1     -10.806   5.955  69.983  1.00  0.00    -0.421 A  
HETATM   34  C   UNL     1     -11.043   7.306  70.240  1.00  0.00    -0.289 A  
ENDBRANCH  28  29
ENDBRANCH  27  28
ENDBRANCH  24  27
ENDBRANCH  23  24
ENDBRANCH  22  23
ENDBRANCH  19  22
ENDBRANCH  12  13
ENDBRANCH  11  12
ENDBRANCH   9  10
ENDBRANCH   8   9
ENDBRANCH   7   8
ENDBRANCH   5   7
ENDBRANCH   4   5
ENDBRANCH   2   4
TORSDOF 14
ENDMDL
MODEL      222
REMARK 921   NORMALIZED FREE ENERGY PREDICTED BY IDOCK:   -3.93 KCAL/MOL
REMARK 922        TOTAL FREE ENERGY PREDICTED BY IDOCK:  -10.43 KCAL/MOL
REMARK 923 INTER-LIGAND FREE ENERGY PREDICTED BY IDOCK:   -7.73 KCAL/MOL
REMARK 924 INTRA-LIGAND FREE ENERGY PREDICTED BY IDOCK:   -2.70 KCAL/MOL
REMARK 927      BINDING AFFINITY PREDICTED BY RF-SCORE:    0.00 PKD
ROOT
HETATM    1  C   UNL     1      -6.176   6.371  70.187  1.00  0.00    -0.035 C  
HETATM    2  C   UNL     1      -7.130   7.405  69.599  1.00  0.00    -0.072 C  
HETATM    3  C   UNL     1      -8.314   7.639  70.528  1.00  0.00    -0.126 C  
ENDROOT
BRANCH   2   4
HETATM    4  O   UNL     1      -6.442   8.661  69.449  1.00  0.00    -0.043 OA 
BRANCH   4   5
HETATM    5  C   UNL     1      -7.049   9.560  68.622  1.00  0.00    -0.069 C  
HETATM    6  O   UNL     1      -7.370   9.348  67.460  1.00  0.00    -0.083 OA 
BRANCH   5   7
HETATM    7  C   UNL     1      -7.246  10.866  69.349  1.00  0.00    -0.126 C  
BRANCH   7   8
HETATM    8  C   UNL     1      -6.191  11.889  68.925  1.00  0.00    -0.064 C  
BRANCH   8   9
HETATM    9  C   UNL     1      -6.792  13.198  68.420  1.00  0.00    -0.098 C  
BRANCH   9  10
HETATM   10  C   UNL     1      -7.216  14.103  69.543  1.00  0.00     0.042 C  
HETATM   11  C   UNL     1      -7.620  15.380  69.435  1.00  0.00    -0.224 C  
BRANCH  11  12
HETATM   12  C   UNL     1      -7.760  16.173  68.167  1.00  0.00    -0.143 C  
BRANCH  12  13
HETATM   13  C   UNL     1      -9.135  16.820  67.924  1.00  0.00    -0.224 C  
HETATM   14  C   UNL     1      -9.186  18.242  68.512  1.00  0.00    -0.318 C  
HETATM   15  C   UNL     1     -10.432  18.833  67.882  1.00  0.00    -0.448 C  
HETATM   16  O   UNL     1      -8.068  19.026  68.093  1.00  0.00    -0.290 OA 
HETATM   17  C   UNL     1     -10.356  18.352  66.437  1.00  0.00    -0.405 C  
HETATM   18  H   UNL     1      -8.100  19.903  68.457  1.00  0.00     0.000 HD 
HETATM   19  C   UNL     1      -9.524  17.041  66.440  1.00  0.00    -0.294 C  
HETATM   20  O   UNL     1      -9.688  19.321  65.632  1.00  0.00    -0.352 OA 
HETATM   21  H   UNL     1      -9.641  19.021  64.732  1.00  0.00     0.000 HD 
BRANCH  19  22
HETATM   22  C   UNL     1     -10.327  15.870  65.843  1.00  0.00    -0.383 C  
BRANCH  22  23
HETATM   23  C   UNL     1     -11.269  15.268  66.889  1.00  0.00    -0.256 C  
BRANCH  23  24
HETATM   24  C   UNL     1     -11.361  13.738  66.857  1.00  0.00    -0.328 C  
HETATM   25  O   UNL     1     -10.086  13.179  66.539  1.00  0.00    -0.266 OA 
HETATM   26  H   UNL     1     -10.143  12.231  66.520  1.00  0.00     0.000 HD 
BRANCH  24  27
HETATM   27  C   UNL     1     -11.776  13.173  68.224  1.00  0.00    -0.384 C  
BRANCH  27  28
HETATM   28  C   UNL     1     -10.894  13.675  69.368  1.00  0.00    -0.054 C  
BRANCH  28  29
HETATM   29  C   UNL     1     -11.697  14.315  70.468  1.00  0.00    -0.309 A  
HETATM   30  C   UNL     1     -11.219  15.466  71.107  1.00  0.00    -0.410 A  
HETATM   31  C   UNL     1     -11.960  16.067  72.124  1.00  0.00    -0.629 A  
HETATM   32  C   UNL     1     -13.181  15.519  72.512  1.00  0.00    -0.565 A  
HETATM   33  C   UNL     1     -13.659  14.368  71.888  1.00  0.00    -0.491 A  
HETATM   34  C   UNL     1     -12.919  13.765  70.870  1.00  0.00    -0.287 A  
ENDBRANCH  28  29
ENDBRANCH  27  28
ENDBRANCH  24  27
ENDBRANCH  23  24
ENDBRANCH  22  23
ENDBRANCH  19  22
ENDBRANCH  12  13
ENDBRANCH  11  12
ENDBRANCH   9  10
ENDBRANCH   8   9
ENDBRANCH   7   8
ENDBRANCH   5   7
ENDBRANCH   4   5
ENDBRANCH   2   4
TORSDOF 14
ENDMDL
MODEL      223
REMARK 921   NORMALIZED FREE ENERGY PREDICTED BY IDOCK:   -3.92 KCAL/MOL
REMARK 922        TOTAL FREE ENERGY PREDICTED BY IDOCK:  -10.42 KCAL/MOL
REMARK 923 INTER-LIGAND FREE ENERGY PREDICTED BY IDOCK:   -7.66 KCAL/MOL
REMARK 924 INTRA-LIGAND FREE ENERGY PREDICTED BY IDOCK:   -2.76 KCAL/MOL
REMARK 927      BINDING AFFINITY PREDICTED BY RF-SCORE:    0.00 PKD
ROOT
HETATM    1  C   UNL     1     -10.711  16.949  67.546  1.00  0.00    -0.270 C  
HETATM    2  C   UNL     1     -10.312  15.539  67.965  1.00  0.00    -0.247 C  
HETATM    3  C   UNL     1     -10.294  15.410  69.483  1.00  0.00    -0.269 C  
ENDROOT
BRANCH   2   4
HETATM    4  O   UNL     1     -11.280  14.598  67.462  1.00  0.00    -0.307 OA 
BRANCH   4   5
HETATM    5  C   UNL     1     -10.798  13.701  66.554  1.00  0.00    -0.283 C  
HETATM    6  O   UNL     1     -10.111  13.979  65.580  1.00  0.00    -0.322 OA 
BRANCH   5   7
HETATM    7  C   UNL     1     -11.259  12.313  66.919  1.00  0.00    -0.367 C  
BRANCH   7   8
HETATM    8  C   UNL     1     -11.976  12.314  68.271  1.00  0.00    -0.259 C  
BRANCH   8   9
HETATM    9  C   UNL     1     -11.561  11.155  69.172  1.00  0.00    -0.393 C  
BRANCH   9  10
HETATM   10  C   UNL     1     -12.104  11.291  70.567  1.00  0.00    -0.481 C  
HETATM   11  C   UNL     1     -12.116  10.343  71.519  1.00  0.00    -0.364 C  
BRANCH  11  12
HETATM   12  C   UNL     1     -11.567   8.950  71.406  1.00  0.00    -0.382 C  
BRANCH  12  13
HETATM   13  C   UNL     1     -10.478   8.569  72.424  1.00  0.00    -0.367 C  
HETATM   14  C   UNL     1     -10.986   7.484  73.392  1.00  0.00    -0.206 C  
HETATM   15  C   UNL     1      -9.716   6.992  74.059  1.00  0.00    -0.332 C  
HETATM   16  O   UNL     1     -11.569   6.384  72.693  1.00  0.00    -0.411 OA 
HETATM   17  C   UNL     1      -8.722   6.915  72.904  1.00  0.00    -0.122 C  
HETATM   18  H   UNL     1     -11.883   5.715  73.290  1.00  0.00     0.000 HD 
HETATM   19  C   UNL     1      -9.193   7.936  71.833  1.00  0.00    -0.202 C  
HETATM   20  O   UNL     1      -8.734   5.608  72.333  1.00  0.00    -0.128 OA 
HETATM   21  H   UNL     1      -8.115   5.560  71.614  1.00  0.00     0.000 HD 
BRANCH  19  22
HETATM   22  C   UNL     1      -8.093   8.970  71.528  1.00  0.00    -0.047 C  
BRANCH  22  23
HETATM   23  C   UNL     1      -8.324   9.621  70.161  1.00  0.00    -0.221 C  
BRANCH  23  24
HETATM   24  C   UNL     1      -7.043   9.914  69.372  1.00  0.00    -0.067 C  
HETATM   25  O   UNL     1      -5.969   9.114  69.869  1.00  0.00    -0.034 OA 
HETATM   26  H   UNL     1      -5.176   9.295  69.380  1.00  0.00     0.000 HD 
BRANCH  24  27
HETATM   27  C   UNL     1      -7.211   9.574  67.883  1.00  0.00    -0.082 C  
BRANCH  27  28
HETATM   28  C   UNL     1      -8.668   9.628  67.422  1.00  0.00    -0.130 C  
BRANCH  28  29
HETATM   29  C   UNL     1      -9.190   8.274  67.026  1.00  0.00    -0.187 A  
HETATM   30  C   UNL     1     -10.404   7.809  67.550  1.00  0.00    -0.333 A  
HETATM   31  C   UNL     1     -10.897   6.557  67.183  1.00  0.00    -0.472 A  
HETATM   32  C   UNL     1     -10.178   5.760  66.296  1.00  0.00    -0.129 A  
HETATM   33  C   UNL     1      -8.965   6.210  65.777  1.00  0.00    -0.099 A  
HETATM   34  C   UNL     1      -8.471   7.463  66.142  1.00  0.00    -0.147 A  
ENDBRANCH  28  29
ENDBRANCH  27  28
ENDBRANCH  24  27
ENDBRANCH  23  24
ENDBRANCH  22  23
ENDBRANCH  19  22
ENDBRANCH  12  13
ENDBRANCH  11  12
ENDBRANCH   9  10
ENDBRANCH   8   9
ENDBRANCH   7   8
ENDBRANCH   5   7
ENDBRANCH   4   5
ENDBRANCH   2   4
TORSDOF 14
ENDMDL
MODEL      224
REMARK 921   NORMALIZED FREE ENERGY PREDICTED BY IDOCK:   -3.92 KCAL/MOL
REMARK 922        TOTAL FREE ENERGY PREDICTED BY IDOCK:  -10.42 KCAL/MOL
REMARK 923 INTER-LIGAND FREE ENERGY PREDICTED BY IDOCK:   -8.54 KCAL/MOL
REMARK 924 INTRA-LIGAND FREE ENERGY PREDICTED BY IDOCK:   -1.88 KCAL/MOL
REMARK 927      BINDING AFFINITY PREDICTED BY RF-SCORE:    0.00 PKD
ROOT
HETATM    1  C   UNL     1     -10.491  18.411  66.730  1.00  0.00    -0.415 C  
HETATM    2  C   UNL     1      -9.789  17.104  67.081  1.00  0.00    -0.271 C  
HETATM    3  C   UNL     1      -9.078  17.215  68.423  1.00  0.00    -0.263 C  
ENDROOT
BRANCH   2   4
HETATM    4  O   UNL     1     -10.764  16.052  67.193  1.00  0.00    -0.314 OA 
BRANCH   4   5
HETATM    5  C   UNL     1     -10.713  15.106  66.210  1.00  0.00    -0.320 C  
HETATM    6  O   UNL     1     -10.295  15.288  65.074  1.00  0.00    -0.388 OA 
BRANCH   5   7
HETATM    7  C   UNL     1     -11.271  13.805  66.728  1.00  0.00    -0.327 C  
BRANCH   7   8
HETATM    8  C   UNL     1     -11.878  13.988  68.120  1.00  0.00    -0.402 C  
BRANCH   8   9
HETATM    9  C   UNL     1     -11.775  12.738  68.990  1.00  0.00    -0.371 C  
BRANCH   9  10
HETATM   10  C   UNL     1     -12.013  13.032  70.444  1.00  0.00    -0.337 C  
HETATM   11  C   UNL     1     -12.662  12.251  71.324  1.00  0.00    -0.351 C  
BRANCH  11  12
HETATM   12  C   UNL     1     -13.270  10.905  71.053  1.00  0.00    -0.157 C  
BRANCH  12  13
HETATM   13  C   UNL     1     -12.490   9.692  71.590  1.00  0.00    -0.494 C  
HETATM   14  C   UNL     1     -13.448   8.542  71.956  1.00  0.00    -0.381 C  
HETATM   15  C   UNL     1     -12.518   7.354  72.111  1.00  0.00    -0.211 C  
HETATM   16  O   UNL     1     -14.355   8.253  70.892  1.00  0.00    -0.653 OA 
HETATM   17  C   UNL     1     -11.548   7.514  70.946  1.00  0.00    -0.286 C  
HETATM   18  H   UNL     1     -14.946   7.544  71.118  1.00  0.00     0.000 HD 
HETATM   19  C   UNL     1     -11.507   9.025  70.594  1.00  0.00    -0.291 C  
HETATM   20  O   UNL     1     -12.019   6.788  69.812  1.00  0.00    -0.654 OA 
HETATM   21  H   UNL     1     -11.414   6.888  69.087  1.00  0.00     0.000 HD 
BRANCH  19  22
HETATM   22  C   UNL     1     -10.075   9.583  70.692  1.00  0.00    -0.353 C  
BRANCH  22  23
HETATM   23  C   UNL     1      -9.086   8.670  69.963  1.00  0.00    -0.157 C  
BRANCH  23  24
HETATM   24  C   UNL     1      -7.749   8.473  70.688  1.00  0.00    -0.081 C  
HETATM   25  O   UNL     1      -7.761   9.172  71.933  1.00  0.00    -0.339 OA 
HETATM   26  H   UNL     1      -6.934   9.050  72.383  1.00  0.00     0.000 HD 
BRANCH  24  27
HETATM   27  C   UNL     1      -7.495   6.991  71.002  1.00  0.00    -0.081 C  
BRANCH  27  28
HETATM   28  C   UNL     1      -7.636   6.666  72.489  1.00  0.00    -0.097 C  
BRANCH  28  29
HETATM   29  C   UNL     1      -8.042   5.236  72.724  1.00  0.00    -0.109 A  
HETATM   30  C   UNL     1      -9.050   4.936  73.650  1.00  0.00    -0.119 A  
HETATM   31  C   UNL     1      -9.435   3.614  73.869  1.00  0.00    -0.117 A  
HETATM   32  C   UNL     1      -8.813   2.583  73.168  1.00  0.00    -0.074 A  
HETATM   33  C   UNL     1      -7.803   2.872  72.251  1.00  0.00    -0.055 A  
HETATM   34  C   UNL     1      -7.417   4.195  72.030  1.00  0.00    -0.069 A  
ENDBRANCH  28  29
ENDBRANCH  27  28
ENDBRANCH  24  27
ENDBRANCH  23  24
ENDBRANCH  22  23
ENDBRANCH  19  22
ENDBRANCH  12  13
ENDBRANCH  11  12
ENDBRANCH   9  10
ENDBRANCH   8   9
ENDBRANCH   7   8
ENDBRANCH   5   7
ENDBRANCH   4   5
ENDBRANCH   2   4
TORSDOF 14
ENDMDL
MODEL      225
REMARK 921   NORMALIZED FREE ENERGY PREDICTED BY IDOCK:   -3.90 KCAL/MOL
REMARK 922        TOTAL FREE ENERGY PREDICTED BY IDOCK:  -10.39 KCAL/MOL
REMARK 923 INTER-LIGAND FREE ENERGY PREDICTED BY IDOCK:   -8.60 KCAL/MOL
REMARK 924 INTRA-LIGAND FREE ENERGY PREDICTED BY IDOCK:   -1.79 KCAL/MOL
REMARK 927      BINDING AFFINITY PREDICTED BY RF-SCORE:    0.00 PKD
ROOT
HETATM    1  C   UNL     1      -6.115   8.010  71.138  1.00  0.00    -0.034 C  
HETATM    2  C   UNL     1      -6.731   7.876  72.526  1.00  0.00    -0.073 C  
HETATM    3  C   UNL     1      -5.696   8.159  73.607  1.00  0.00    -0.069 C  
ENDROOT
BRANCH   2   4
HETATM    4  O   UNL     1      -7.790   8.840  72.676  1.00  0.00    -0.369 OA 
BRANCH   4   5
HETATM    5  C   UNL     1      -9.041   8.312  72.805  1.00  0.00    -0.262 C  
HETATM    6  O   UNL     1      -9.361   7.432  73.594  1.00  0.00    -0.212 OA 
BRANCH   5   7
HETATM    7  C   UNL     1      -9.971   8.962  71.812  1.00  0.00    -0.397 C  
BRANCH   7   8
HETATM    8  C   UNL     1     -11.350   8.300  71.844  1.00  0.00    -0.372 C  
BRANCH   8   9
HETATM    9  C   UNL     1     -12.469   9.223  71.367  1.00  0.00    -0.418 C  
BRANCH   9  10
HETATM   10  C   UNL     1     -11.946  10.504  70.783  1.00  0.00    -0.472 C  
HETATM   11  C   UNL     1     -11.402  10.667  69.565  1.00  0.00    -0.342 C  
BRANCH  11  12
HETATM   12  C   UNL     1     -11.224   9.610  68.513  1.00  0.00    -0.005 C  
BRANCH  12  13
HETATM   13  C   UNL     1      -9.857   9.584  67.807  1.00  0.00    -0.196 C  
HETATM   14  C   UNL     1      -9.027   8.369  68.260  1.00  0.00    -0.139 C  
HETATM   15  C   UNL     1      -7.913   8.307  67.232  1.00  0.00    -0.105 C  
HETATM   16  O   UNL     1      -9.776   7.156  68.169  1.00  0.00    -0.137 OA 
HETATM   17  C   UNL     1      -8.634   8.592  65.918  1.00  0.00    -0.163 C  
HETATM   18  H   UNL     1      -9.264   6.406  68.449  1.00  0.00     0.000 HD 
HETATM   19  C   UNL     1      -9.895   9.427  66.265  1.00  0.00    -0.351 C  
HETATM   20  O   UNL     1      -9.042   7.369  65.307  1.00  0.00    -0.363 OA 
HETATM   21  H   UNL     1      -9.490   7.547  64.489  1.00  0.00     0.000 HD 
BRANCH  19  22
HETATM   22  C   UNL     1      -9.896  10.774  65.519  1.00  0.00    -0.309 C  
BRANCH  22  23
HETATM   23  C   UNL     1     -10.422  10.604  64.091  1.00  0.00    -0.188 C  
BRANCH  23  24
HETATM   24  C   UNL     1     -11.077  11.859  63.501  1.00  0.00    -0.428 C  
HETATM   25  O   UNL     1     -12.230  11.497  62.741  1.00  0.00    -0.820 OA 
HETATM   26  H   UNL     1     -12.635  12.275  62.376  1.00  0.00     0.000 HD 
BRANCH  24  27
HETATM   27  C   UNL     1     -11.544  12.819  64.606  1.00  0.00    -0.384 C  
BRANCH  27  28
HETATM   28  C   UNL     1     -10.635  14.039  64.756  1.00  0.00    -0.441 C  
BRANCH  28  29
HETATM   29  C   UNL     1     -10.363  14.372  66.198  1.00  0.00    -0.305 A  
HETATM   30  C   UNL     1      -9.353  13.696  66.896  1.00  0.00    -0.261 A  
HETATM   31  C   UNL     1      -9.092  14.003  68.231  1.00  0.00    -0.191 A  
HETATM   32  C   UNL     1      -9.841  14.983  68.878  1.00  0.00    -0.233 A  
HETATM   33  C   UNL     1     -10.854  15.654  68.194  1.00  0.00    -0.301 A  
HETATM   34  C   UNL     1     -11.116  15.348  66.858  1.00  0.00    -0.256 A  
ENDBRANCH  28  29
ENDBRANCH  27  28
ENDBRANCH  24  27
ENDBRANCH  23  24
ENDBRANCH  22  23
ENDBRANCH  19  22
ENDBRANCH  12  13
ENDBRANCH  11  12
ENDBRANCH   9  10
ENDBRANCH   8   9
ENDBRANCH   7   8
ENDBRANCH   5   7
ENDBRANCH   4   5
ENDBRANCH   2   4
TORSDOF 14
ENDMDL
MODEL      226
REMARK 921   NORMALIZED FREE ENERGY PREDICTED BY IDOCK:   -3.89 KCAL/MOL
REMARK 922        TOTAL FREE ENERGY PREDICTED BY IDOCK:  -10.37 KCAL/MOL
REMARK 923 INTER-LIGAND FREE ENERGY PREDICTED BY IDOCK:   -8.78 KCAL/MOL
REMARK 924 INTRA-LIGAND FREE ENERGY PREDICTED BY IDOCK:   -1.59 KCAL/MOL
REMARK 927      BINDING AFFINITY PREDICTED BY RF-SCORE:    0.00 PKD
ROOT
HETATM    1  C   UNL     1      -8.940   6.497  70.524  1.00  0.00    -0.152 C  
HETATM    2  C   UNL     1      -9.980   5.586  71.166  1.00  0.00    -0.195 C  
HETATM    3  C   UNL     1      -9.366   4.782  72.304  1.00  0.00    -0.158 C  
ENDROOT
BRANCH   2   4
HETATM    4  O   UNL     1     -11.040   6.386  71.723  1.00  0.00    -0.243 OA 
BRANCH   4   5
HETATM    5  C   UNL     1     -10.637   7.357  72.593  1.00  0.00    -0.275 C  
HETATM    6  O   UNL     1     -10.353   7.179  73.771  1.00  0.00    -0.351 OA 
BRANCH   5   7
HETATM    7  C   UNL     1     -10.615   8.690  71.890  1.00  0.00    -0.411 C  
BRANCH   7   8
HETATM    8  C   UNL     1     -12.023   9.282  71.801  1.00  0.00    -0.455 C  
BRANCH   8   9
HETATM    9  C   UNL     1     -12.200  10.235  70.622  1.00  0.00    -0.422 C  
BRANCH   9  10
HETATM   10  C   UNL     1     -11.204   9.982  69.527  1.00  0.00    -0.254 C  
HETATM   11  C   UNL     1     -10.642  10.902  68.724  1.00  0.00    -0.231 C  
BRANCH  11  12
HETATM   12  C   UNL     1     -10.868  12.386  68.764  1.00  0.00    -0.263 C  
BRANCH  12  13
HETATM   13  C   UNL     1     -10.037  13.223  67.777  1.00  0.00    -0.229 C  
HETATM   14  C   UNL     1     -10.715  13.277  66.395  1.00  0.00    -0.285 C  
HETATM   15  C   UNL     1      -9.976  14.398  65.690  1.00  0.00    -0.365 C  
HETATM   16  O   UNL     1     -12.089  13.653  66.497  1.00  0.00    -0.404 OA 
HETATM   17  C   UNL     1      -9.833  15.460  66.775  1.00  0.00    -0.245 C  
HETATM   18  H   UNL     1     -12.507  13.686  65.644  1.00  0.00     0.000 HD 
HETATM   19  C   UNL     1      -9.862  14.720  68.139  1.00  0.00    -0.221 C  
HETATM   20  O   UNL     1     -10.929  16.370  66.719  1.00  0.00    -0.163 OA 
HETATM   21  H   UNL     1     -10.840  17.031  67.395  1.00  0.00     0.000 HD 
BRANCH  19  22
HETATM   22  C   UNL     1      -8.586  15.001  68.954  1.00  0.00    -0.189 C  
BRANCH  22  23
HETATM   23  C   UNL     1      -7.337  14.821  68.087  1.00  0.00    -0.122 C  
BRANCH  23  24
HETATM   24  C   UNL     1      -6.194  15.792  68.408  1.00  0.00    -0.101 C  
HETATM   25  O   UNL     1      -5.336  15.927  67.276  1.00  0.00    -0.312 OA 
HETATM   26  H   UNL     1      -4.628  16.529  67.474  1.00  0.00     0.000 HD 
BRANCH  24  27
HETATM   27  C   UNL     1      -6.728  17.193  68.744  1.00  0.00    -0.200 C  
BRANCH  27  28
HETATM   28  C   UNL     1      -6.890  18.079  67.509  1.00  0.00    -0.199 C  
BRANCH  28  29
HETATM   29  C   UNL     1      -8.268  18.675  67.411  1.00  0.00    -0.267 A  
HETATM   30  C   UNL     1      -8.736  19.165  66.185  1.00  0.00    -0.230 A  
HETATM   31  C   UNL     1     -10.014  19.714  66.086  1.00  0.00    -0.554 A  
HETATM   32  C   UNL     1     -10.830  19.781  67.213  1.00  0.00    -0.469 A  
HETATM   33  C   UNL     1     -10.369  19.304  68.439  1.00  0.00    -0.435 A  
HETATM   34  C   UNL     1      -9.091  18.754  68.539  1.00  0.00    -0.377 A  
ENDBRANCH  28  29
ENDBRANCH  27  28
ENDBRANCH  24  27
ENDBRANCH  23  24
ENDBRANCH  22  23
ENDBRANCH  19  22
ENDBRANCH  12  13
ENDBRANCH  11  12
ENDBRANCH   9  10
ENDBRANCH   8   9
ENDBRANCH   7   8
ENDBRANCH   5   7
ENDBRANCH   4   5
ENDBRANCH   2   4
TORSDOF 14
ENDMDL
MODEL      227
REMARK 921   NORMALIZED FREE ENERGY PREDICTED BY IDOCK:   -3.88 KCAL/MOL
REMARK 922        TOTAL FREE ENERGY PREDICTED BY IDOCK:  -10.35 KCAL/MOL
REMARK 923 INTER-LIGAND FREE ENERGY PREDICTED BY IDOCK:   -8.50 KCAL/MOL
REMARK 924 INTRA-LIGAND FREE ENERGY PREDICTED BY IDOCK:   -1.85 KCAL/MOL
REMARK 927      BINDING AFFINITY PREDICTED BY RF-SCORE:    0.00 PKD
ROOT
HETATM    1  C   UNL     1      -8.464   5.738  67.106  1.00  0.00    -0.107 C  
HETATM    2  C   UNL     1      -9.986   5.781  67.177  1.00  0.00    -0.159 C  
HETATM    3  C   UNL     1     -10.603   4.962  66.050  1.00  0.00    -0.312 C  
ENDROOT
BRANCH   2   4
HETATM    4  O   UNL     1     -10.425   5.204  68.421  1.00  0.00    -0.118 OA 
BRANCH   4   5
HETATM    5  C   UNL     1      -9.658   4.174  68.885  1.00  0.00    -0.152 C  
HETATM    6  O   UNL     1      -9.196   3.271  68.199  1.00  0.00    -0.156 OA 
BRANCH   5   7
HETATM    7  C   UNL     1      -9.483   4.303  70.376  1.00  0.00    -0.245 C  
BRANCH   7   8
HETATM    8  C   UNL     1      -9.385   5.773  70.788  1.00  0.00    -0.189 C  
BRANCH   8   9
HETATM    9  C   UNL     1     -10.349   6.149  71.910  1.00  0.00    -0.244 C  
BRANCH   9  10
HETATM   10  C   UNL     1      -9.966   7.435  72.587  1.00  0.00    -0.241 C  
HETATM   11  C   UNL     1     -10.199   8.679  72.136  1.00  0.00    -0.394 C  
BRANCH  11  12
HETATM   12  C   UNL     1     -10.915   9.056  70.871  1.00  0.00    -0.332 C  
BRANCH  12  13
HETATM   13  C   UNL     1     -10.265  10.171  70.034  1.00  0.00    -0.271 C  
HETATM   14  C   UNL     1      -8.841   9.775  69.602  1.00  0.00    -0.211 C  
HETATM   15  C   UNL     1      -8.510  10.792  68.526  1.00  0.00    -0.143 C  
HETATM   16  O   UNL     1      -8.812   8.479  69.005  1.00  0.00    -0.143 OA 
HETATM   17  C   UNL     1      -9.806  10.889  67.727  1.00  0.00    -0.175 C  
HETATM   18  H   UNL     1      -7.933   8.234  68.739  1.00  0.00     0.000 HD 
HETATM   19  C   UNL     1     -10.960  10.498  68.688  1.00  0.00    -0.294 C  
HETATM   20  O   UNL     1      -9.780   9.971  66.637  1.00  0.00    -0.177 OA 
HETATM   21  H   UNL     1     -10.587  10.032  66.139  1.00  0.00     0.000 HD 
BRANCH  19  22
HETATM   22  C   UNL     1     -11.999  11.630  68.802  1.00  0.00    -0.326 C  
BRANCH  22  23
HETATM   23  C   UNL     1     -11.567  12.660  69.850  1.00  0.00    -0.248 C  
BRANCH  23  24
HETATM   24  C   UNL     1     -11.186  14.030  69.275  1.00  0.00    -0.261 C  
HETATM   25  O   UNL     1      -9.807  14.038  68.907  1.00  0.00    -0.365 OA 
HETATM   26  H   UNL     1      -9.571  14.886  68.551  1.00  0.00     0.000 HD 
BRANCH  24  27
HETATM   27  C   UNL     1     -11.996  14.351  68.010  1.00  0.00    -0.326 C  
BRANCH  27  28
HETATM   28  C   UNL     1     -11.112  14.679  66.806  1.00  0.00    -0.335 C  
BRANCH  28  29
HETATM   29  C   UNL     1     -11.303  13.703  65.677  1.00  0.00    -0.309 A  
HETATM   30  C   UNL     1     -10.195  13.238  64.956  1.00  0.00    -0.313 A  
HETATM   31  C   UNL     1     -10.364  12.330  63.912  1.00  0.00    -0.455 A  
HETATM   32  C   UNL     1     -11.641  11.885  63.577  1.00  0.00    -0.537 A  
HETATM   33  C   UNL     1     -12.750  12.350  64.282  1.00  0.00    -0.437 A  
HETATM   34  C   UNL     1     -12.583  13.259  65.328  1.00  0.00    -0.528 A  
ENDBRANCH  28  29
ENDBRANCH  27  28
ENDBRANCH  24  27
ENDBRANCH  23  24
ENDBRANCH  22  23
ENDBRANCH  19  22
ENDBRANCH  12  13
ENDBRANCH  11  12
ENDBRANCH   9  10
ENDBRANCH   8   9
ENDBRANCH   7   8
ENDBRANCH   5   7
ENDBRANCH   4   5
ENDBRANCH   2   4
TORSDOF 14
ENDMDL
MODEL      228
REMARK 921   NORMALIZED FREE ENERGY PREDICTED BY IDOCK:   -3.87 KCAL/MOL
REMARK 922        TOTAL FREE ENERGY PREDICTED BY IDOCK:  -10.33 KCAL/MOL
REMARK 923 INTER-LIGAND FREE ENERGY PREDICTED BY IDOCK:   -8.24 KCAL/MOL
REMARK 924 INTRA-LIGAND FREE ENERGY PREDICTED BY IDOCK:   -2.10 KCAL/MOL
REMARK 927      BINDING AFFINITY PREDICTED BY RF-SCORE:    0.00 PKD
ROOT
HETATM    1  C   UNL     1      -5.522  14.961  71.061  1.00  0.00    -0.115 C  
HETATM    2  C   UNL     1      -5.722  14.286  69.709  1.00  0.00    -0.105 C  
HETATM    3  C   UNL     1      -5.932  12.787  69.879  1.00  0.00    -0.138 C  
ENDROOT
BRANCH   2   4
HETATM    4  O   UNL     1      -6.900  14.819  69.076  1.00  0.00    -0.099 OA 
BRANCH   4   5
HETATM    5  C   UNL     1      -6.784  15.052  67.737  1.00  0.00    -0.168 C  
HETATM    6  O   UNL     1      -5.728  15.190  67.131  1.00  0.00    -0.265 OA 
BRANCH   5   7
HETATM    7  C   UNL     1      -8.155  15.138  67.116  1.00  0.00    -0.245 C  
BRANCH   7   8
HETATM    8  C   UNL     1      -9.239  14.798  68.140  1.00  0.00    -0.195 C  
BRANCH   8   9
HETATM    9  C   UNL     1     -10.519  15.607  67.950  1.00  0.00    -0.267 C  
BRANCH   9  10
HETATM   10  C   UNL     1     -10.873  15.786  66.501  1.00  0.00    -0.230 C  
HETATM   11  C   UNL     1     -11.610  14.954  65.746  1.00  0.00    -0.234 C  
BRANCH  11  12
HETATM   12  C   UNL     1     -12.261  13.676  66.192  1.00  0.00    -0.490 C  
BRANCH  12  13
HETATM   13  C   UNL     1     -11.800  12.397  65.472  1.00  0.00    -0.469 C  
HETATM   14  C   UNL     1     -12.261  12.397  64.003  1.00  0.00    -0.490 C  
HETATM   15  C   UNL     1     -11.438  11.284  63.382  1.00  0.00     0.069 C  
HETATM   16  O   UNL     1     -11.918  13.616  63.343  1.00  0.00    -0.751 OA 
HETATM   17  C   UNL     1     -10.057  11.486  63.996  1.00  0.00    -0.321 C  
HETATM   18  H   UNL     1     -12.203  13.616  62.437  1.00  0.00     0.000 HD 
HETATM   19  C   UNL     1     -10.267  12.200  65.358  1.00  0.00    -0.299 C  
HETATM   20  O   UNL     1      -9.262  12.319  63.155  1.00  0.00    -0.576 OA 
HETATM   21  H   UNL     1      -8.402  12.444  63.538  1.00  0.00     0.000 HD 
BRANCH  19  22
HETATM   22  C   UNL     1      -9.675  11.376  66.517  1.00  0.00    -0.226 C  
BRANCH  22  23
HETATM   23  C   UNL     1      -9.271   9.978  66.040  1.00  0.00    -0.204 C  
BRANCH  23  24
HETATM   24  C   UNL     1      -8.182   9.308  66.886  1.00  0.00    -0.119 C  
HETATM   25  O   UNL     1      -7.706  10.217  67.879  1.00  0.00    -0.089 OA 
HETATM   26  H   UNL     1      -7.031   9.802  68.403  1.00  0.00     0.000 HD 
BRANCH  24  27
HETATM   27  C   UNL     1      -8.724   8.074  67.622  1.00  0.00    -0.126 C  
BRANCH  27  28
HETATM   28  C   UNL     1     -10.246   8.089  67.767  1.00  0.00    -0.282 C  
BRANCH  28  29
HETATM   29  C   UNL     1     -10.684   7.944  69.199  1.00  0.00    -0.130 A  
HETATM   30  C   UNL     1     -10.430   8.971  70.118  1.00  0.00    -0.240 A  
HETATM   31  C   UNL     1     -10.837   8.845  71.445  1.00  0.00    -0.378 A  
HETATM   32  C   UNL     1     -11.497   7.692  71.865  1.00  0.00    -0.313 A  
HETATM   33  C   UNL     1     -11.746   6.661  70.959  1.00  0.00    -0.415 A  
HETATM   34  C   UNL     1     -11.339   6.786  69.630  1.00  0.00    -0.326 A  
ENDBRANCH  28  29
ENDBRANCH  27  28
ENDBRANCH  24  27
ENDBRANCH  23  24
ENDBRANCH  22  23
ENDBRANCH  19  22
ENDBRANCH  12  13
ENDBRANCH  11  12
ENDBRANCH   9  10
ENDBRANCH   8   9
ENDBRANCH   7   8
ENDBRANCH   5   7
ENDBRANCH   4   5
ENDBRANCH   2   4
TORSDOF 14
ENDMDL
MODEL      229
REMARK 921   NORMALIZED FREE ENERGY PREDICTED BY IDOCK:   -3.85 KCAL/MOL
REMARK 922        TOTAL FREE ENERGY PREDICTED BY IDOCK:  -10.30 KCAL/MOL
REMARK 923 INTER-LIGAND FREE ENERGY PREDICTED BY IDOCK:   -7.98 KCAL/MOL
REMARK 924 INTRA-LIGAND FREE ENERGY PREDICTED BY IDOCK:   -2.32 KCAL/MOL
REMARK 927      BINDING AFFINITY PREDICTED BY RF-SCORE:    0.00 PKD
ROOT
HETATM    1  C   UNL     1      -8.701   5.947  71.810  1.00  0.00    -0.139 C  
HETATM    2  C   UNL     1      -9.845   5.351  70.998  1.00  0.00    -0.187 C  
HETATM    3  C   UNL     1      -9.826   3.830  71.074  1.00  0.00    -0.204 C  
ENDROOT
BRANCH   2   4
HETATM    4  O   UNL     1     -11.101   5.797  71.540  1.00  0.00    -0.265 OA 
BRANCH   4   5
HETATM    5  C   UNL     1     -11.048   6.259  72.823  1.00  0.00    -0.251 C  
HETATM    6  O   UNL     1     -10.830   5.573  73.814  1.00  0.00    -0.282 OA 
BRANCH   5   7
HETATM    7  C   UNL     1     -11.321   7.741  72.841  1.00  0.00    -0.406 C  
BRANCH   7   8
HETATM    8  C   UNL     1     -12.386   8.111  71.806  1.00  0.00    -0.357 C  
BRANCH   8   9
HETATM    9  C   UNL     1     -12.049   9.377  71.024  1.00  0.00    -0.373 C  
BRANCH   9  10
HETATM   10  C   UNL     1     -10.571   9.539  70.805  1.00  0.00    -0.387 C  
HETATM   11  C   UNL     1      -9.853   9.045  69.782  1.00  0.00    -0.188 C  
BRANCH  11  12
HETATM   12  C   UNL     1     -10.375   8.246  68.622  1.00  0.00    -0.225 C  
BRANCH  12  13
HETATM   13  C   UNL     1      -9.424   7.178  68.055  1.00  0.00    -0.132 C  
HETATM   14  C   UNL     1     -10.212   5.968  67.520  1.00  0.00    -0.184 C  
HETATM   15  C   UNL     1      -9.179   5.216  66.703  1.00  0.00    -0.129 C  
HETATM   16  O   UNL     1     -11.261   6.371  66.638  1.00  0.00    -0.707 OA 
HETATM   17  C   UNL     1      -8.435   6.327  65.970  1.00  0.00    -0.143 C  
HETATM   18  H   UNL     1     -11.747   5.625  66.308  1.00  0.00     0.000 HD 
HETATM   19  C   UNL     1      -8.573   7.610  66.833  1.00  0.00    -0.123 C  
HETATM   20  O   UNL     1      -9.032   6.560  64.696  1.00  0.00    -0.222 OA 
HETATM   21  H   UNL     1      -8.568   7.252  64.240  1.00  0.00     0.000 HD 
BRANCH  19  22
HETATM   22  C   UNL     1      -7.194   8.171  67.224  1.00  0.00    -0.084 C  
BRANCH  22  23
HETATM   23  C   UNL     1      -7.067   9.639  66.808  1.00  0.00    -0.086 C  
BRANCH  23  24
HETATM   24  C   UNL     1      -7.510  10.644  67.878  1.00  0.00    -0.090 C  
HETATM   25  O   UNL     1      -6.378  11.354  68.380  1.00  0.00    -0.046 OA 
HETATM   26  H   UNL     1      -6.652  11.977  69.043  1.00  0.00     0.000 HD 
BRANCH  24  27
HETATM   27  C   UNL     1      -8.479  11.687  67.300  1.00  0.00    -0.156 C  
BRANCH  27  28
HETATM   28  C   UNL     1      -9.588  11.062  66.453  1.00  0.00    -0.227 C  
BRANCH  28  29
HETATM   29  C   UNL     1     -10.655  12.058  66.086  1.00  0.00    -0.298 A  
HETATM   30  C   UNL     1     -10.896  13.164  66.913  1.00  0.00    -0.278 A  
HETATM   31  C   UNL     1     -11.880  14.093  66.578  1.00  0.00    -0.439 A  
HETATM   32  C   UNL     1     -12.631  13.923  65.417  1.00  0.00    -0.538 A  
HETATM   33  C   UNL     1     -12.404  12.820  64.594  1.00  0.00    -0.524 A  
HETATM   34  C   UNL     1     -11.420  11.889  64.928  1.00  0.00    -0.315 A  
ENDBRANCH  28  29
ENDBRANCH  27  28
ENDBRANCH  24  27
ENDBRANCH  23  24
ENDBRANCH  22  23
ENDBRANCH  19  22
ENDBRANCH  12  13
ENDBRANCH  11  12
ENDBRANCH   9  10
ENDBRANCH   8   9
ENDBRANCH   7   8
ENDBRANCH   5   7
ENDBRANCH   4   5
ENDBRANCH   2   4
TORSDOF 14
ENDMDL
MODEL      230
REMARK 921   NORMALIZED FREE ENERGY PREDICTED BY IDOCK:   -3.84 KCAL/MOL
REMARK 922        TOTAL FREE ENERGY PREDICTED BY IDOCK:  -10.28 KCAL/MOL
REMARK 923 INTER-LIGAND FREE ENERGY PREDICTED BY IDOCK:   -8.21 KCAL/MOL
REMARK 924 INTRA-LIGAND FREE ENERGY PREDICTED BY IDOCK:   -2.07 KCAL/MOL
REMARK 927      BINDING AFFINITY PREDICTED BY RF-SCORE:    0.00 PKD
ROOT
HETATM    1  C   UNL     1      -7.725   3.415  72.960  1.00  0.00    -0.061 C  
HETATM    2  C   UNL     1      -7.060   4.713  72.514  1.00  0.00    -0.079 C  
HETATM    3  C   UNL     1      -6.093   5.218  73.578  1.00  0.00    -0.047 C  
ENDROOT
BRANCH   2   4
HETATM    4  O   UNL     1      -6.299   4.474  71.316  1.00  0.00    -0.018 OA 
BRANCH   4   5
HETATM    5  C   UNL     1      -6.500   5.377  70.312  1.00  0.00    -0.034 C  
HETATM    6  O   UNL     1      -5.863   6.410  70.151  1.00  0.00    -0.017 OA 
BRANCH   5   7
HETATM    7  C   UNL     1      -7.643   4.922  69.441  1.00  0.00    -0.060 C  
BRANCH   7   8
HETATM    8  C   UNL     1      -8.099   6.047  68.509  1.00  0.00    -0.107 C  
BRANCH   8   9
HETATM    9  C   UNL     1      -8.951   5.552  67.343  1.00  0.00    -0.107 C  
BRANCH   9  10
HETATM   10  C   UNL     1     -10.137   6.437  67.085  1.00  0.00    -0.217 C  
HETATM   11  C   UNL     1     -11.135   6.712  67.943  1.00  0.00    -0.310 C  
BRANCH  11  12
HETATM   12  C   UNL     1     -11.268   6.216  69.354  1.00  0.00    -0.466 C  
BRANCH  12  13
HETATM   13  C   UNL     1     -11.565   7.284  70.421  1.00  0.00    -0.253 C  
HETATM   14  C   UNL     1     -11.345   6.721  71.838  1.00  0.00    -0.271 C  
HETATM   15  C   UNL     1     -11.329   7.965  72.705  1.00  0.00    -0.453 C  
HETATM   16  O   UNL     1     -10.074   6.084  71.960  1.00  0.00    -0.183 OA 
HETATM   17  C   UNL     1     -10.508   8.954  71.884  1.00  0.00    -0.345 C  
HETATM   18  H   UNL     1      -9.938   5.737  72.835  1.00  0.00     0.000 HD 
HETATM   19  C   UNL     1     -10.652   8.536  70.396  1.00  0.00    -0.242 C  
HETATM   20  O   UNL     1      -9.133   8.877  72.255  1.00  0.00    -0.381 OA 
HETATM   21  H   UNL     1      -8.622   9.493  71.743  1.00  0.00     0.000 HD 
BRANCH  19  22
HETATM   22  C   UNL     1     -11.224   9.686  69.546  1.00  0.00    -0.144 C  
BRANCH  22  23
HETATM   23  C   UNL     1     -10.137  10.299  68.659  1.00  0.00    -0.187 C  
BRANCH  23  24
HETATM   24  C   UNL     1     -10.571  11.560  67.902  1.00  0.00    -0.191 C  
HETATM   25  O   UNL     1     -11.903  11.402  67.412  1.00  0.00    -0.609 OA 
HETATM   26  H   UNL     1     -12.172  12.183  66.944  1.00  0.00     0.000 HD 
BRANCH  24  27
HETATM   27  C   UNL     1     -10.568  12.793  68.819  1.00  0.00    -0.216 C  
BRANCH  27  28
HETATM   28  C   UNL     1     -11.876  13.581  68.759  1.00  0.00    -0.390 C  
BRANCH  28  29
HETATM   29  C   UNL     1     -12.423  13.881  70.128  1.00  0.00    -0.355 A  
HETATM   30  C   UNL     1     -12.742  12.833  71.002  1.00  0.00    -0.331 A  
HETATM   31  C   UNL     1     -13.245  13.103  72.273  1.00  0.00    -0.555 A  
HETATM   32  C   UNL     1     -13.438  14.422  72.679  1.00  0.00    -0.605 A  
HETATM   33  C   UNL     1     -13.132  15.471  71.813  1.00  0.00    -0.548 A  
HETATM   34  C   UNL     1     -12.628  15.202  70.540  1.00  0.00    -0.429 A  
ENDBRANCH  28  29
ENDBRANCH  27  28
ENDBRANCH  24  27
ENDBRANCH  23  24
ENDBRANCH  22  23
ENDBRANCH  19  22
ENDBRANCH  12  13
ENDBRANCH  11  12
ENDBRANCH   9  10
ENDBRANCH   8   9
ENDBRANCH   7   8
ENDBRANCH   5   7
ENDBRANCH   4   5
ENDBRANCH   2   4
TORSDOF 14
ENDMDL
MODEL      231
REMARK 921   NORMALIZED FREE ENERGY PREDICTED BY IDOCK:   -3.84 KCAL/MOL
REMARK 922        TOTAL FREE ENERGY PREDICTED BY IDOCK:  -10.27 KCAL/MOL
REMARK 923 INTER-LIGAND FREE ENERGY PREDICTED BY IDOCK:   -7.69 KCAL/MOL
REMARK 924 INTRA-LIGAND FREE ENERGY PREDICTED BY IDOCK:   -2.58 KCAL/MOL
REMARK 927      BINDING AFFINITY PREDICTED BY RF-SCORE:    0.00 PKD
ROOT
HETATM    1  C   UNL     1     -10.409   8.965  70.111  1.00  0.00    -0.228 C  
HETATM    2  C   UNL     1      -8.934   8.601  70.237  1.00  0.00    -0.154 C  
HETATM    3  C   UNL     1      -8.718   7.118  69.962  1.00  0.00    -0.141 C  
ENDROOT
BRANCH   2   4
HETATM    4  O   UNL     1      -8.174   9.338  69.262  1.00  0.00    -0.101 OA 
BRANCH   4   5
HETATM    5  C   UNL     1      -7.414  10.353  69.766  1.00  0.00    -0.149 C  
HETATM    6  O   UNL     1      -7.029  10.441  70.925  1.00  0.00    -0.273 OA 
BRANCH   5   7
HETATM    7  C   UNL     1      -7.140  11.367  68.685  1.00  0.00    -0.095 C  
BRANCH   7   8
HETATM    8  C   UNL     1      -6.387  12.574  69.248  1.00  0.00    -0.110 C  
BRANCH   8   9
HETATM    9  C   UNL     1      -7.083  13.902  68.964  1.00  0.00    -0.098 C  
BRANCH   9  10
HETATM   10  C   UNL     1      -6.408  14.679  67.869  1.00  0.00    -0.173 C  
HETATM   11  C   UNL     1      -6.420  16.013  67.707  1.00  0.00    -0.178 C  
BRANCH  11  12
HETATM   12  C   UNL     1      -7.089  17.020  68.598  1.00  0.00    -0.210 C  
BRANCH  12  13
HETATM   13  C   UNL     1      -8.478  17.502  68.147  1.00  0.00    -0.254 C  
HETATM   14  C   UNL     1      -8.812  18.872  68.768  1.00  0.00    -0.296 C  
HETATM   15  C   UNL     1     -10.006  19.338  67.956  1.00  0.00    -0.473 C  
HETATM   16  O   UNL     1      -7.755  19.811  68.572  1.00  0.00    -0.330 OA 
HETATM   17  C   UNL     1      -9.631  18.952  66.529  1.00  0.00    -0.346 C  
HETATM   18  H   UNL     1      -7.961  20.656  68.955  1.00  0.00     0.000 HD 
HETATM   19  C   UNL     1      -8.645  17.757  66.627  1.00  0.00    -0.280 C  
HETATM   20  O   UNL     1      -8.975  20.041  65.883  1.00  0.00    -0.492 OA 
HETATM   21  H   UNL     1      -8.741  19.800  64.994  1.00  0.00     0.000 HD 
BRANCH  19  22
HETATM   22  C   UNL     1      -9.177  16.531  65.863  1.00  0.00    -0.209 C  
BRANCH  22  23
HETATM   23  C   UNL     1     -10.594  16.176  66.322  1.00  0.00    -0.276 C  
BRANCH  23  24
HETATM   24  C   UNL     1     -10.695  14.875  67.127  1.00  0.00    -0.296 C  
HETATM   25  O   UNL     1     -12.035  14.382  67.093  1.00  0.00    -0.405 OA 
HETATM   26  H   UNL     1     -12.097  13.576  67.591  1.00  0.00     0.000 HD 
BRANCH  24  27
HETATM   27  C   UNL     1      -9.793  13.780  66.537  1.00  0.00    -0.294 C  
BRANCH  27  28
HETATM   28  C   UNL     1     -10.491  12.953  65.458  1.00  0.00    -0.305 C  
BRANCH  28  29
HETATM   29  C   UNL     1     -10.136  11.493  65.541  1.00  0.00    -0.286 A  
HETATM   30  C   UNL     1     -10.682  10.695  66.555  1.00  0.00    -0.218 A  
HETATM   31  C   UNL     1     -10.362   9.340  66.635  1.00  0.00    -0.292 A  
HETATM   32  C   UNL     1      -9.491   8.775  65.706  1.00  0.00    -0.239 A  
HETATM   33  C   UNL     1      -8.936   9.564  64.699  1.00  0.00    -0.266 A  
HETATM   34  C   UNL     1      -9.255  10.920  64.618  1.00  0.00    -0.223 A  
ENDBRANCH  28  29
ENDBRANCH  27  28
ENDBRANCH  24  27
ENDBRANCH  23  24
ENDBRANCH  22  23
ENDBRANCH  19  22
ENDBRANCH  12  13
ENDBRANCH  11  12
ENDBRANCH   9  10
ENDBRANCH   8   9
ENDBRANCH   7   8
ENDBRANCH   5   7
ENDBRANCH   4   5
ENDBRANCH   2   4
TORSDOF 14
ENDMDL
MODEL      232
REMARK 921   NORMALIZED FREE ENERGY PREDICTED BY IDOCK:   -3.83 KCAL/MOL
REMARK 922        TOTAL FREE ENERGY PREDICTED BY IDOCK:  -10.27 KCAL/MOL
REMARK 923 INTER-LIGAND FREE ENERGY PREDICTED BY IDOCK:   -8.89 KCAL/MOL
REMARK 924 INTRA-LIGAND FREE ENERGY PREDICTED BY IDOCK:   -1.38 KCAL/MOL
REMARK 927      BINDING AFFINITY PREDICTED BY RF-SCORE:    0.00 PKD
ROOT
HETATM    1  C   UNL     1      -8.478   6.745  68.223  1.00  0.00    -0.125 C  
HETATM    2  C   UNL     1      -8.656   8.021  69.038  1.00  0.00    -0.137 C  
HETATM    3  C   UNL     1      -7.683   9.098  68.575  1.00  0.00    -0.093 C  
ENDROOT
BRANCH   2   4
HETATM    4  O   UNL     1      -9.989   8.530  68.846  1.00  0.00    -0.179 OA 
BRANCH   4   5
HETATM    5  C   UNL     1     -10.393   8.623  67.546  1.00  0.00    -0.269 C  
HETATM    6  O   UNL     1     -10.798   7.691  66.862  1.00  0.00    -0.328 OA 
BRANCH   5   7
HETATM    7  C   UNL     1     -10.244  10.045  67.068  1.00  0.00    -0.295 C  
BRANCH   7   8
HETATM    8  C   UNL     1      -9.968  10.087  65.564  1.00  0.00    -0.367 C  
BRANCH   8   9
HETATM    9  C   UNL     1     -10.360  11.414  64.918  1.00  0.00    -0.347 C  
BRANCH   9  10
HETATM   10  C   UNL     1     -11.309  12.207  65.772  1.00  0.00    -0.402 C  
HETATM   11  C   UNL     1     -11.098  13.434  66.279  1.00  0.00    -0.305 C  
BRANCH  11  12
HETATM   12  C   UNL     1      -9.880  14.290  66.081  1.00  0.00    -0.335 C  
BRANCH  12  13
HETATM   13  C   UNL     1      -9.590  15.317  67.190  1.00  0.00    -0.223 C  
HETATM   14  C   UNL     1     -10.328  14.946  68.489  1.00  0.00    -0.237 C  
HETATM   15  C   UNL     1      -9.660  15.825  69.530  1.00  0.00    -0.262 C  
HETATM   16  O   UNL     1     -10.102  13.585  68.855  1.00  0.00    -0.400 OA 
HETATM   17  C   UNL     1      -8.183  15.741  69.162  1.00  0.00    -0.247 C  
HETATM   18  H   UNL     1     -10.559  13.356  69.656  1.00  0.00     0.000 HD 
HETATM   19  C   UNL     1      -8.112  15.419  67.645  1.00  0.00    -0.166 C  
HETATM   20  O   UNL     1      -7.555  14.687  69.888  1.00  0.00    -0.396 OA 
HETATM   21  H   UNL     1      -6.635  14.635  69.659  1.00  0.00     0.000 HD 
BRANCH  19  22
HETATM   22  C   UNL     1      -7.317  16.496  66.883  1.00  0.00    -0.260 C  
BRANCH  22  23
HETATM   23  C   UNL     1      -5.977  16.772  67.572  1.00  0.00    -0.177 C  
BRANCH  23  24
HETATM   24  C   UNL     1      -5.297  18.076  67.139  1.00  0.00    -0.128 C  
HETATM   25  O   UNL     1      -5.596  18.353  65.771  1.00  0.00    -0.156 OA 
HETATM   26  H   UNL     1      -5.175  19.161  65.502  1.00  0.00     0.000 HD 
BRANCH  24  27
HETATM   27  C   UNL     1      -5.800  19.271  67.964  1.00  0.00    -0.215 C  
BRANCH  27  28
HETATM   28  C   UNL     1      -6.708  20.206  67.164  1.00  0.00    -0.264 C  
BRANCH  28  29
HETATM   29  C   UNL     1      -8.164  19.868  67.335  1.00  0.00    -0.356 A  
HETATM   30  C   UNL     1      -8.707  19.730  68.620  1.00  0.00    -0.237 A  
HETATM   31  C   UNL     1     -10.057  19.423  68.786  1.00  0.00    -0.504 A  
HETATM   32  C   UNL     1     -10.872  19.246  67.670  1.00  0.00    -0.484 A  
HETATM   33  C   UNL     1     -10.338  19.372  66.388  1.00  0.00    -0.575 A  
HETATM   34  C   UNL     1      -8.987  19.680  66.220  1.00  0.00    -0.420 A  
ENDBRANCH  28  29
ENDBRANCH  27  28
ENDBRANCH  24  27
ENDBRANCH  23  24
ENDBRANCH  22  23
ENDBRANCH  19  22
ENDBRANCH  12  13
ENDBRANCH  11  12
ENDBRANCH   9  10
ENDBRANCH   8   9
ENDBRANCH   7   8
ENDBRANCH   5   7
ENDBRANCH   4   5
ENDBRANCH   2   4
TORSDOF 14
ENDMDL
MODEL      233
REMARK 921   NORMALIZED FREE ENERGY PREDICTED BY IDOCK:   -3.83 KCAL/MOL
REMARK 922        TOTAL FREE ENERGY PREDICTED BY IDOCK:  -10.26 KCAL/MOL
REMARK 923 INTER-LIGAND FREE ENERGY PREDICTED BY IDOCK:   -8.53 KCAL/MOL
REMARK 924 INTRA-LIGAND FREE ENERGY PREDICTED BY IDOCK:   -1.73 KCAL/MOL
REMARK 927      BINDING AFFINITY PREDICTED BY RF-SCORE:    0.00 PKD
ROOT
HETATM    1  C   UNL     1     -10.655  18.163  66.291  1.00  0.00    -0.291 C  
HETATM    2  C   UNL     1      -9.634  19.145  66.853  1.00  0.00    -0.325 C  
HETATM    3  C   UNL     1     -10.160  20.573  66.781  1.00  0.00    -0.359 C  
ENDROOT
BRANCH   2   4
HETATM    4  O   UNL     1      -9.390  18.843  68.239  1.00  0.00    -0.312 OA 
BRANCH   4   5
HETATM    5  C   UNL     1      -8.075  18.729  68.585  1.00  0.00    -0.333 C  
HETATM    6  O   UNL     1      -7.413  19.594  69.145  1.00  0.00    -0.357 OA 
BRANCH   5   7
HETATM    7  C   UNL     1      -7.550  17.384  68.153  1.00  0.00    -0.214 C  
BRANCH   7   8
HETATM    8  C   UNL     1      -8.025  16.283  69.104  1.00  0.00    -0.221 C  
BRANCH   8   9
HETATM    9  C   UNL     1      -9.065  15.357  68.479  1.00  0.00    -0.197 C  
BRANCH   9  10
HETATM   10  C   UNL     1      -8.823  15.131  67.013  1.00  0.00    -0.258 C  
HETATM   11  C   UNL     1      -9.711  14.673  66.114  1.00  0.00    -0.344 C  
BRANCH  11  12
HETATM   12  C   UNL     1     -11.145  14.312  66.373  1.00  0.00    -0.325 C  
BRANCH  12  13
HETATM   13  C   UNL     1     -11.642  13.009  65.724  1.00  0.00    -0.396 C  
HETATM   14  C   UNL     1     -12.475  13.305  64.463  1.00  0.00    -0.319 C  
HETATM   15  C   UNL     1     -12.564  11.953  63.781  1.00  0.00    -0.509 C  
HETATM   16  O   UNL     1     -11.795  14.198  63.580  1.00  0.00    -0.678 OA 
HETATM   17  C   UNL     1     -11.156  11.388  63.939  1.00  0.00    -0.329 C  
HETATM   18  H   UNL     1     -12.310  14.381  62.803  1.00  0.00     0.000 HD 
HETATM   19  C   UNL     1     -10.540  12.054  65.198  1.00  0.00    -0.330 C  
HETATM   20  O   UNL     1     -10.363  11.725  62.802  1.00  0.00    -0.604 OA 
HETATM   21  H   UNL     1      -9.486  11.373  62.901  1.00  0.00     0.000 HD 
BRANCH  19  22
HETATM   22  C   UNL     1     -10.110  10.997  66.233  1.00  0.00    -0.282 C  
BRANCH  22  23
HETATM   23  C   UNL     1      -9.545   9.755  65.539  1.00  0.00    -0.348 C  
BRANCH  23  24
HETATM   24  C   UNL     1      -9.294   8.564  66.472  1.00  0.00    -0.203 C  
HETATM   25  O   UNL     1     -10.535   7.965  66.846  1.00  0.00    -0.325 OA 
HETATM   26  H   UNL     1     -10.380   7.228  67.424  1.00  0.00     0.000 HD 
BRANCH  24  27
HETATM   27  C   UNL     1      -8.456   7.478  65.781  1.00  0.00    -0.151 C  
BRANCH  27  28
HETATM   28  C   UNL     1      -8.987   6.066  66.034  1.00  0.00    -0.157 C  
BRANCH  28  29
HETATM   29  C   UNL     1      -7.918   5.139  66.545  1.00  0.00    -0.104 A  
HETATM   30  C   UNL     1      -7.623   3.958  65.850  1.00  0.00    -0.089 A  
HETATM   31  C   UNL     1      -6.630   3.096  66.314  1.00  0.00    -0.036 A  
HETATM   32  C   UNL     1      -5.929   3.405  67.478  1.00  0.00    -0.027 A  
HETATM   33  C   UNL     1      -6.223   4.573  68.181  1.00  0.00    -0.036 A  
HETATM   34  C   UNL     1      -7.216   5.437  67.717  1.00  0.00    -0.072 A  
ENDBRANCH  28  29
ENDBRANCH  27  28
ENDBRANCH  24  27
ENDBRANCH  23  24
ENDBRANCH  22  23
ENDBRANCH  19  22
ENDBRANCH  12  13
ENDBRANCH  11  12
ENDBRANCH   9  10
ENDBRANCH   8   9
ENDBRANCH   7   8
ENDBRANCH   5   7
ENDBRANCH   4   5
ENDBRANCH   2   4
TORSDOF 14
ENDMDL
MODEL      234
REMARK 921   NORMALIZED FREE ENERGY PREDICTED BY IDOCK:   -3.83 KCAL/MOL
REMARK 922        TOTAL FREE ENERGY PREDICTED BY IDOCK:  -10.25 KCAL/MOL
REMARK 923 INTER-LIGAND FREE ENERGY PREDICTED BY IDOCK:   -7.50 KCAL/MOL
REMARK 924 INTRA-LIGAND FREE ENERGY PREDICTED BY IDOCK:   -2.75 KCAL/MOL
REMARK 927      BINDING AFFINITY PREDICTED BY RF-SCORE:    0.00 PKD
ROOT
HETATM    1  C   UNL     1      -9.336   4.067  72.700  1.00  0.00    -0.153 C  
HETATM    2  C   UNL     1      -8.290   4.885  71.952  1.00  0.00    -0.119 C  
HETATM    3  C   UNL     1      -7.536   5.802  72.906  1.00  0.00    -0.096 C  
ENDROOT
BRANCH   2   4
HETATM    4  O   UNL     1      -7.327   3.997  71.353  1.00  0.00    -0.042 OA 
BRANCH   4   5
HETATM    5  C   UNL     1      -7.155   4.150  70.008  1.00  0.00    -0.042 C  
HETATM    6  O   UNL     1      -6.135   4.557  69.466  1.00  0.00    -0.024 OA 
BRANCH   5   7
HETATM    7  C   UNL     1      -8.421   3.763  69.287  1.00  0.00    -0.098 C  
BRANCH   7   8
HETATM    8  C   UNL     1      -8.478   4.408  67.902  1.00  0.00    -0.102 C  
BRANCH   8   9
HETATM    9  C   UNL     1      -9.845   4.282  67.236  1.00  0.00    -0.193 C  
BRANCH   9  10
HETATM   10  C   UNL     1     -10.451   5.619  66.913  1.00  0.00    -0.349 C  
HETATM   11  C   UNL     1     -11.021   6.472  67.781  1.00  0.00    -0.407 C  
BRANCH  11  12
HETATM   12  C   UNL     1     -11.155   6.286  69.265  1.00  0.00    -0.461 C  
BRANCH  12  13
HETATM   13  C   UNL     1     -11.367   7.568  70.089  1.00  0.00    -0.170 C  
HETATM   14  C   UNL     1     -12.387   7.333  71.219  1.00  0.00    -0.366 C  
HETATM   15  C   UNL     1     -12.200   8.544  72.113  1.00  0.00    -0.446 C  
HETATM   16  O   UNL     1     -12.068   6.170  71.984  1.00  0.00    -0.318 OA 
HETATM   17  C   UNL     1     -10.685   8.717  72.154  1.00  0.00    -0.313 C  
HETATM   18  H   UNL     1     -12.697   6.025  72.680  1.00  0.00     0.000 HD 
HETATM   19  C   UNL     1     -10.123   8.098  70.847  1.00  0.00    -0.215 C  
HETATM   20  O   UNL     1     -10.141   8.016  73.270  1.00  0.00    -0.310 OA 
HETATM   21  H   UNL     1      -9.198   8.124  73.295  1.00  0.00     0.000 HD 
BRANCH  19  22
HETATM   22  C   UNL     1      -9.318   9.134  70.039  1.00  0.00    -0.218 C  
BRANCH  22  23
HETATM   23  C   UNL     1      -8.078   8.490  69.412  1.00  0.00    -0.112 C  
BRANCH  23  24
HETATM   24  C   UNL     1      -7.843   8.861  67.943  1.00  0.00    -0.102 C  
HETATM   25  O   UNL     1      -7.595   7.683  67.175  1.00  0.00    -0.099 OA 
HETATM   26  H   UNL     1      -7.449   7.913  66.265  1.00  0.00     0.000 HD 
BRANCH  24  27
HETATM   27  C   UNL     1      -9.075   9.548  67.335  1.00  0.00    -0.144 C  
BRANCH  27  28
HETATM   28  C   UNL     1      -8.713  10.579  66.265  1.00  0.00    -0.159 C  
BRANCH  28  29
HETATM   29  C   UNL     1      -9.922  11.311  65.748  1.00  0.00    -0.281 A  
HETATM   30  C   UNL     1     -10.775  11.975  66.640  1.00  0.00    -0.280 A  
HETATM   31  C   UNL     1     -11.893  12.660  66.167  1.00  0.00    -0.477 A  
HETATM   32  C   UNL     1     -12.170  12.682  64.802  1.00  0.00    -0.528 A  
HETATM   33  C   UNL     1     -11.332  12.016  63.909  1.00  0.00    -0.503 A  
HETATM   34  C   UNL     1     -10.212  11.330  64.380  1.00  0.00    -0.377 A  
ENDBRANCH  28  29
ENDBRANCH  27  28
ENDBRANCH  24  27
ENDBRANCH  23  24
ENDBRANCH  22  23
ENDBRANCH  19  22
ENDBRANCH  12  13
ENDBRANCH  11  12
ENDBRANCH   9  10
ENDBRANCH   8   9
ENDBRANCH   7   8
ENDBRANCH   5   7
ENDBRANCH   4   5
ENDBRANCH   2   4
TORSDOF 14
ENDMDL
MODEL      235
REMARK 921   NORMALIZED FREE ENERGY PREDICTED BY IDOCK:   -3.82 KCAL/MOL
REMARK 922        TOTAL FREE ENERGY PREDICTED BY IDOCK:  -10.24 KCAL/MOL
REMARK 923 INTER-LIGAND FREE ENERGY PREDICTED BY IDOCK:   -8.43 KCAL/MOL
REMARK 924 INTRA-LIGAND FREE ENERGY PREDICTED BY IDOCK:   -1.81 KCAL/MOL
REMARK 927      BINDING AFFINITY PREDICTED BY RF-SCORE:    0.00 PKD
ROOT
HETATM    1  C   UNL     1      -6.910   2.642  66.554  1.00  0.00    -0.044 C  
HETATM    2  C   UNL     1      -6.812   3.621  65.390  1.00  0.00    -0.049 C  
HETATM    3  C   UNL     1      -7.072   2.914  64.066  1.00  0.00    -0.045 C  
ENDROOT
BRANCH   2   4
HETATM    4  O   UNL     1      -7.813   4.645  65.538  1.00  0.00    -0.092 OA 
BRANCH   4   5
HETATM    5  C   UNL     1      -7.332   5.920  65.610  1.00  0.00    -0.076 C  
HETATM    6  O   UNL     1      -6.404   6.365  64.947  1.00  0.00    -0.033 OA 
BRANCH   5   7
HETATM    7  C   UNL     1      -8.102   6.695  66.649  1.00  0.00    -0.110 C  
BRANCH   7   8
HETATM    8  C   UNL     1      -7.900   8.200  66.465  1.00  0.00    -0.093 C  
BRANCH   8   9
HETATM    9  C   UNL     1      -8.737   8.784  65.330  1.00  0.00    -0.216 C  
BRANCH   9  10
HETATM   10  C   UNL     1      -8.910  10.272  65.453  1.00  0.00    -0.192 C  
HETATM   11  C   UNL     1      -9.860  10.913  66.154  1.00  0.00    -0.268 C  
BRANCH  11  12
HETATM   12  C   UNL     1     -10.939  10.285  66.989  1.00  0.00    -0.189 C  
BRANCH  12  13
HETATM   13  C   UNL     1     -11.776  11.249  67.847  1.00  0.00    -0.289 C  
HETATM   14  C   UNL     1     -11.425  11.103  69.339  1.00  0.00    -0.298 C  
HETATM   15  C   UNL     1     -12.053  12.333  69.965  1.00  0.00    -0.346 C  
HETATM   16  O   UNL     1     -10.015  11.171  69.558  1.00  0.00    -0.433 OA 
HETATM   17  C   UNL     1     -11.729  13.438  68.965  1.00  0.00    -0.323 C  
HETATM   18  H   UNL     1      -9.798  11.080  70.478  1.00  0.00     0.000 HD 
HETATM   19  C   UNL     1     -11.552  12.759  67.581  1.00  0.00    -0.412 C  
HETATM   20  O   UNL     1     -10.508  14.082  69.324  1.00  0.00    -0.407 OA 
HETATM   21  H   UNL     1     -10.306  14.770  68.702  1.00  0.00     0.000 HD 
BRANCH  19  22
HETATM   22  C   UNL     1     -12.530  13.343  66.544  1.00  0.00    -0.255 C  
BRANCH  22  23
HETATM   23  C   UNL     1     -11.878  14.490  65.768  1.00  0.00    -0.327 C  
BRANCH  23  24
HETATM   24  C   UNL     1     -10.362  14.350  65.580  1.00  0.00    -0.342 C  
HETATM   25  O   UNL     1     -10.071  13.945  64.242  1.00  0.00    -0.727 OA 
HETATM   26  H   UNL     1      -9.132  13.858  64.126  1.00  0.00     0.000 HD 
BRANCH  24  27
HETATM   27  C   UNL     1      -9.642  15.686  65.817  1.00  0.00    -0.361 C  
BRANCH  27  28
HETATM   28  C   UNL     1     -10.369  16.584  66.819  1.00  0.00    -0.296 C  
BRANCH  28  29
HETATM   29  C   UNL     1      -9.631  17.871  67.070  1.00  0.00    -0.286 A  
HETATM   30  C   UNL     1     -10.344  19.061  67.266  1.00  0.00    -0.505 A  
HETATM   31  C   UNL     1      -9.667  20.257  67.504  1.00  0.00    -0.575 A  
HETATM   32  C   UNL     1      -8.274  20.272  67.543  1.00  0.00    -0.358 A  
HETATM   33  C   UNL     1      -7.557  19.094  67.339  1.00  0.00    -0.256 A  
HETATM   34  C   UNL     1      -8.233  17.896  67.101  1.00  0.00    -0.228 A  
ENDBRANCH  28  29
ENDBRANCH  27  28
ENDBRANCH  24  27
ENDBRANCH  23  24
ENDBRANCH  22  23
ENDBRANCH  19  22
ENDBRANCH  12  13
ENDBRANCH  11  12
ENDBRANCH   9  10
ENDBRANCH   8   9
ENDBRANCH   7   8
ENDBRANCH   5   7
ENDBRANCH   4   5
ENDBRANCH   2   4
TORSDOF 14
ENDMDL
MODEL      236
REMARK 921   NORMALIZED FREE ENERGY PREDICTED BY IDOCK:   -3.81 KCAL/MOL
REMARK 922        TOTAL FREE ENERGY PREDICTED BY IDOCK:  -10.22 KCAL/MOL
REMARK 923 INTER-LIGAND FREE ENERGY PREDICTED BY IDOCK:   -8.00 KCAL/MOL
REMARK 924 INTRA-LIGAND FREE ENERGY PREDICTED BY IDOCK:   -2.22 KCAL/MOL
REMARK 927      BINDING AFFINITY PREDICTED BY RF-SCORE:    0.00 PKD
ROOT
HETATM    1  C   UNL     1     -10.643  17.284  67.768  1.00  0.00    -0.367 C  
HETATM    2  C   UNL     1     -10.660  17.669  66.293  1.00  0.00    -0.215 C  
HETATM    3  C   UNL     1      -9.911  18.976  66.067  1.00  0.00    -0.334 C  
ENDROOT
BRANCH   2   4
HETATM    4  O   UNL     1      -9.994  16.650  65.525  1.00  0.00    -0.552 OA 
BRANCH   4   5
HETATM    5  C   UNL     1     -10.807  15.908  64.718  1.00  0.00    -0.324 C  
HETATM    6  O   UNL     1     -11.705  16.354  64.016  1.00  0.00    -1.044 OA 
BRANCH   5   7
HETATM    7  C   UNL     1     -10.446  14.449  64.837  1.00  0.00    -0.448 C  
BRANCH   7   8
HETATM    8  C   UNL     1     -11.585  13.659  65.484  1.00  0.00    -0.337 C  
BRANCH   8   9
HETATM    9  C   UNL     1     -12.264  14.409  66.627  1.00  0.00    -0.340 C  
BRANCH   9  10
HETATM   10  C   UNL     1     -12.155  13.678  67.936  1.00  0.00    -0.318 C  
HETATM   11  C   UNL     1     -11.023  13.382  68.598  1.00  0.00    -0.288 C  
BRANCH  11  12
HETATM   12  C   UNL     1      -9.623  13.738  68.187  1.00  0.00    -0.216 C  
BRANCH  12  13
HETATM   13  C   UNL     1      -8.676  12.555  67.922  1.00  0.00    -0.180 C  
HETATM   14  C   UNL     1      -7.234  12.903  68.338  1.00  0.00    -0.113 C  
HETATM   15  C   UNL     1      -6.542  11.553  68.348  1.00  0.00    -0.060 C  
HETATM   16  O   UNL     1      -7.180  13.434  69.662  1.00  0.00    -0.318 OA 
HETATM   17  C   UNL     1      -7.574  10.636  68.994  1.00  0.00    -0.122 C  
HETATM   18  H   UNL     1      -6.291  13.649  69.918  1.00  0.00     0.000 HD 
HETATM   19  C   UNL     1      -8.969  11.262  68.725  1.00  0.00    -0.116 C  
HETATM   20  O   UNL     1      -7.360  10.572  70.403  1.00  0.00    -0.451 OA 
HETATM   21  H   UNL     1      -8.004  10.001  70.805  1.00  0.00     0.000 HD 
BRANCH  19  22
HETATM   22  C   UNL     1      -9.886  10.279  67.974  1.00  0.00    -0.171 C  
BRANCH  22  23
HETATM   23  C   UNL     1      -9.650  10.360  66.463  1.00  0.00    -0.224 C  
BRANCH  23  24
HETATM   24  C   UNL     1      -9.902   9.049  65.709  1.00  0.00    -0.111 C  
HETATM   25  O   UNL     1      -9.063   8.980  64.556  1.00  0.00    -0.424 OA 
HETATM   26  H   UNL     1      -9.219   8.168  64.089  1.00  0.00     0.000 HD 
BRANCH  24  27
HETATM   27  C   UNL     1      -9.576   7.829  66.583  1.00  0.00    -0.286 C  
BRANCH  27  28
HETATM   28  C   UNL     1      -8.091   7.465  66.566  1.00  0.00    -0.117 C  
BRANCH  28  29
HETATM   29  C   UNL     1      -7.869   5.978  66.531  1.00  0.00    -0.104 A  
HETATM   30  C   UNL     1      -7.578   5.284  67.714  1.00  0.00    -0.087 A  
HETATM   31  C   UNL     1      -7.376   3.905  67.690  1.00  0.00    -0.067 A  
HETATM   32  C   UNL     1      -7.457   3.210  66.485  1.00  0.00    -0.076 A  
HETATM   33  C   UNL     1      -7.736   3.894  65.302  1.00  0.00    -0.082 A  
HETATM   34  C   UNL     1      -7.940   5.275  65.325  1.00  0.00    -0.106 A  
ENDBRANCH  28  29
ENDBRANCH  27  28
ENDBRANCH  24  27
ENDBRANCH  23  24
ENDBRANCH  22  23
ENDBRANCH  19  22
ENDBRANCH  12  13
ENDBRANCH  11  12
ENDBRANCH   9  10
ENDBRANCH   8   9
ENDBRANCH   7   8
ENDBRANCH   5   7
ENDBRANCH   4   5
ENDBRANCH   2   4
TORSDOF 14
ENDMDL
MODEL      237
REMARK 921   NORMALIZED FREE ENERGY PREDICTED BY IDOCK:   -3.80 KCAL/MOL
REMARK 922        TOTAL FREE ENERGY PREDICTED BY IDOCK:  -10.21 KCAL/MOL
REMARK 923 INTER-LIGAND FREE ENERGY PREDICTED BY IDOCK:   -7.95 KCAL/MOL
REMARK 924 INTRA-LIGAND FREE ENERGY PREDICTED BY IDOCK:   -2.26 KCAL/MOL
REMARK 927      BINDING AFFINITY PREDICTED BY RF-SCORE:    0.00 PKD
ROOT
HETATM    1  C   UNL     1     -10.476   5.292  70.232  1.00  0.00    -0.332 C  
HETATM    2  C   UNL     1      -9.420   6.168  69.570  1.00  0.00    -0.140 C  
HETATM    3  C   UNL     1      -8.712   7.036  70.602  1.00  0.00    -0.149 C  
ENDROOT
BRANCH   2   4
HETATM    4  O   UNL     1      -8.424   5.333  68.950  1.00  0.00    -0.092 OA 
BRANCH   4   5
HETATM    5  C   UNL     1      -8.529   5.213  67.595  1.00  0.00    -0.105 C  
HETATM    6  O   UNL     1      -9.024   4.261  67.005  1.00  0.00    -0.113 OA 
BRANCH   5   7
HETATM    7  C   UNL     1      -7.922   6.422  66.930  1.00  0.00    -0.109 C  
BRANCH   7   8
HETATM    8  C   UNL     1      -8.661   6.758  65.633  1.00  0.00    -0.126 C  
BRANCH   8   9
HETATM    9  C   UNL     1      -9.166   8.197  65.585  1.00  0.00    -0.040 C  
BRANCH   9  10
HETATM   10  C   UNL     1     -10.318   8.431  66.521  1.00  0.00    -0.199 C  
HETATM   11  C   UNL     1     -10.307   9.179  67.637  1.00  0.00    -0.314 C  
BRANCH  11  12
HETATM   12  C   UNL     1      -9.147   9.966  68.178  1.00  0.00    -0.121 C  
BRANCH  12  13
HETATM   13  C   UNL     1      -9.233  11.494  68.014  1.00  0.00    -0.175 C  
HETATM   14  C   UNL     1      -8.061  12.021  67.165  1.00  0.00    -0.177 C  
HETATM   15  C   UNL     1      -8.495  13.433  66.817  1.00  0.00     0.021 C  
HETATM   16  O   UNL     1      -7.923  11.291  65.946  1.00  0.00    -0.347 OA 
HETATM   17  C   UNL     1      -9.975  13.273  66.487  1.00  0.00    -0.280 C  
HETATM   18  H   UNL     1      -7.200  11.617  65.422  1.00  0.00     0.000 HD 
HETATM   19  C   UNL     1     -10.478  12.024  67.260  1.00  0.00    -0.241 C  
HETATM   20  O   UNL     1     -10.146  13.051  65.089  1.00  0.00    -0.382 OA 
HETATM   21  H   UNL     1     -11.068  12.952  64.884  1.00  0.00     0.000 HD 
BRANCH  19  22
HETATM   22  C   UNL     1     -11.647  12.381  68.197  1.00  0.00    -0.395 C  
BRANCH  22  23
HETATM   23  C   UNL     1     -12.138  13.807  67.934  1.00  0.00    -0.322 C  
BRANCH  23  24
HETATM   24  C   UNL     1     -12.094  14.730  69.158  1.00  0.00    -0.243 C  
HETATM   25  O   UNL     1     -11.634  14.006  70.300  1.00  0.00    -0.414 OA 
HETATM   26  H   UNL     1     -11.606  14.578  71.057  1.00  0.00     0.000 HD 
BRANCH  24  27
HETATM   27  C   UNL     1     -11.123  15.901  68.942  1.00  0.00    -0.316 C  
BRANCH  27  28
HETATM   28  C   UNL     1     -10.928  16.247  67.465  1.00  0.00    -0.207 C  
BRANCH  28  29
HETATM   29  C   UNL     1     -10.568  17.694  67.262  1.00  0.00    -0.297 A  
HETATM   30  C   UNL     1     -10.173  18.479  68.353  1.00  0.00    -0.409 A  
HETATM   31  C   UNL     1      -9.834  19.819  68.171  1.00  0.00    -0.536 A  
HETATM   32  C   UNL     1      -9.892  20.385  66.900  1.00  0.00    -0.572 A  
HETATM   33  C   UNL     1     -10.294  19.614  65.810  1.00  0.00    -0.506 A  
HETATM   34  C   UNL     1     -10.634  18.272  65.990  1.00  0.00    -0.318 A  
ENDBRANCH  28  29
ENDBRANCH  27  28
ENDBRANCH  24  27
ENDBRANCH  23  24
ENDBRANCH  22  23
ENDBRANCH  19  22
ENDBRANCH  12  13
ENDBRANCH  11  12
ENDBRANCH   9  10
ENDBRANCH   8   9
ENDBRANCH   7   8
ENDBRANCH   5   7
ENDBRANCH   4   5
ENDBRANCH   2   4
TORSDOF 14
ENDMDL
MODEL      238
REMARK 921   NORMALIZED FREE ENERGY PREDICTED BY IDOCK:   -3.80 KCAL/MOL
REMARK 922        TOTAL FREE ENERGY PREDICTED BY IDOCK:  -10.20 KCAL/MOL
REMARK 923 INTER-LIGAND FREE ENERGY PREDICTED BY IDOCK:   -7.80 KCAL/MOL
REMARK 924 INTRA-LIGAND FREE ENERGY PREDICTED BY IDOCK:   -2.40 KCAL/MOL
REMARK 927      BINDING AFFINITY PREDICTED BY RF-SCORE:    0.00 PKD
ROOT
HETATM    1  C   UNL     1      -8.708   7.148  69.880  1.00  0.00    -0.142 C  
HETATM    2  C   UNL     1      -8.453   7.344  68.390  1.00  0.00    -0.125 C  
HETATM    3  C   UNL     1      -9.750   7.230  67.600  1.00  0.00    -0.173 C  
ENDROOT
BRANCH   2   4
HETATM    4  O   UNL     1      -7.922   8.662  68.163  1.00  0.00    -0.105 OA 
BRANCH   4   5
HETATM    5  C   UNL     1      -8.851   9.661  68.116  1.00  0.00    -0.119 C  
HETATM    6  O   UNL     1      -9.740   9.841  68.939  1.00  0.00    -0.161 OA 
BRANCH   5   7
HETATM    7  C   UNL     1      -8.633  10.499  66.882  1.00  0.00    -0.125 C  
BRANCH   7   8
HETATM    8  C   UNL     1      -9.818  10.376  65.923  1.00  0.00    -0.294 C  
BRANCH   8   9
HETATM    9  C   UNL     1     -10.573  11.689  65.729  1.00  0.00    -0.320 C  
BRANCH   9  10
HETATM   10  C   UNL     1     -11.525  11.973  66.857  1.00  0.00    -0.402 C  
HETATM   11  C   UNL     1     -11.979  13.179  67.239  1.00  0.00    -0.389 C  
BRANCH  11  12
HETATM   12  C   UNL     1     -11.654  14.502  66.606  1.00  0.00    -0.385 C  
BRANCH  12  13
HETATM   13  C   UNL     1     -10.630  15.374  67.353  1.00  0.00    -0.289 C  
HETATM   14  C   UNL     1     -11.339  16.418  68.237  1.00  0.00    -0.241 C  
HETATM   15  C   UNL     1     -10.227  16.920  69.138  1.00  0.00    -0.292 C  
HETATM   16  O   UNL     1     -12.336  15.818  69.064  1.00  0.00    -0.575 OA 
HETATM   17  C   UNL     1      -9.472  15.646  69.505  1.00  0.00    -0.275 C  
HETATM   18  H   UNL     1     -12.773  16.462  69.609  1.00  0.00     0.000 HD 
HETATM   19  C   UNL     1      -9.713  14.631  68.356  1.00  0.00    -0.217 C  
HETATM   20  O   UNL     1      -9.987  15.103  70.719  1.00  0.00    -0.311 OA 
HETATM   21  H   UNL     1      -9.516  14.310  70.947  1.00  0.00     0.000 HD 
BRANCH  19  22
HETATM   22  C   UNL     1      -8.383  14.168  67.732  1.00  0.00    -0.175 C  
BRANCH  22  23
HETATM   23  C   UNL     1      -7.386  13.759  68.820  1.00  0.00    -0.103 C  
BRANCH  23  24
HETATM   24  C   UNL     1      -5.943  14.208  68.561  1.00  0.00    -0.092 C  
HETATM   25  O   UNL     1      -5.542  13.828  67.244  1.00  0.00    -0.322 OA 
HETATM   26  H   UNL     1      -4.648  14.106  67.083  1.00  0.00     0.000 HD 
BRANCH  24  27
HETATM   27  C   UNL     1      -5.806  15.735  68.653  1.00  0.00    -0.101 C  
BRANCH  27  28
HETATM   28  C   UNL     1      -6.005  16.433  67.307  1.00  0.00    -0.193 C  
BRANCH  28  29
HETATM   29  C   UNL     1      -6.916  17.625  67.413  1.00  0.00    -0.187 A  
HETATM   30  C   UNL     1      -6.995  18.344  68.613  1.00  0.00    -0.281 A  
HETATM   31  C   UNL     1      -7.834  19.453  68.716  1.00  0.00    -0.392 A  
HETATM   32  C   UNL     1      -8.602  19.848  67.623  1.00  0.00    -0.385 A  
HETATM   33  C   UNL     1      -8.537  19.133  66.428  1.00  0.00    -0.335 A  
HETATM   34  C   UNL     1      -7.698  18.023  66.323  1.00  0.00    -0.293 A  
ENDBRANCH  28  29
ENDBRANCH  27  28
ENDBRANCH  24  27
ENDBRANCH  23  24
ENDBRANCH  22  23
ENDBRANCH  19  22
ENDBRANCH  12  13
ENDBRANCH  11  12
ENDBRANCH   9  10
ENDBRANCH   8   9
ENDBRANCH   7   8
ENDBRANCH   5   7
ENDBRANCH   4   5
ENDBRANCH   2   4
TORSDOF 14
ENDMDL
MODEL      239
REMARK 921   NORMALIZED FREE ENERGY PREDICTED BY IDOCK:   -3.78 KCAL/MOL
REMARK 922        TOTAL FREE ENERGY PREDICTED BY IDOCK:  -10.17 KCAL/MOL
REMARK 923 INTER-LIGAND FREE ENERGY PREDICTED BY IDOCK:   -8.61 KCAL/MOL
REMARK 924 INTRA-LIGAND FREE ENERGY PREDICTED BY IDOCK:   -1.56 KCAL/MOL
REMARK 927      BINDING AFFINITY PREDICTED BY RF-SCORE:    0.00 PKD
ROOT
HETATM    1  C   UNL     1     -10.405   5.017  66.777  1.00  0.00    -0.290 C  
HETATM    2  C   UNL     1      -9.203   4.226  66.275  1.00  0.00    -0.146 C  
HETATM    3  C   UNL     1      -8.922   4.540  64.811  1.00  0.00    -0.152 C  
ENDROOT
BRANCH   2   4
HETATM    4  O   UNL     1      -8.035   4.598  67.029  1.00  0.00    -0.101 OA 
BRANCH   4   5
HETATM    5  C   UNL     1      -8.078   5.843  67.587  1.00  0.00    -0.102 C  
HETATM    6  O   UNL     1      -8.103   6.897  66.965  1.00  0.00    -0.114 OA 
BRANCH   5   7
HETATM    7  C   UNL     1      -8.065   5.727  69.090  1.00  0.00    -0.101 C  
BRANCH   7   8
HETATM    8  C   UNL     1      -6.632   5.755  69.626  1.00  0.00    -0.050 C  
BRANCH   8   9
HETATM    9  C   UNL     1      -6.513   6.436  70.987  1.00  0.00    -0.049 C  
BRANCH   9  10
HETATM   10  C   UNL     1      -6.655   7.929  70.894  1.00  0.00    -0.037 C  
HETATM   11  C   UNL     1      -7.554   8.691  71.539  1.00  0.00    -0.134 C  
BRANCH  11  12
HETATM   12  C   UNL     1      -8.597   8.221  72.511  1.00  0.00    -0.273 C  
BRANCH  12  13
HETATM   13  C   UNL     1      -9.717   7.342  71.928  1.00  0.00    -0.171 C  
HETATM   14  C   UNL     1     -10.397   6.513  73.034  1.00  0.00    -0.218 C  
HETATM   15  C   UNL     1     -11.659   6.009  72.361  1.00  0.00    -0.349 C  
HETATM   16  O   UNL     1     -10.785   7.329  74.140  1.00  0.00    -0.565 OA 
HETATM   17  C   UNL     1     -12.148   7.223  71.578  1.00  0.00    -0.331 C  
HETATM   18  H   UNL     1     -11.205   6.817  74.822  1.00  0.00     0.000 HD 
HETATM   19  C   UNL     1     -10.903   8.099  71.279  1.00  0.00    -0.278 C  
HETATM   20  O   UNL     1     -13.067   7.977  72.366  1.00  0.00    -0.525 OA 
HETATM   21  H   UNL     1     -13.371   8.733  71.878  1.00  0.00     0.000 HD 
BRANCH  19  22
HETATM   22  C   UNL     1     -10.725   8.318  69.765  1.00  0.00    -0.221 C  
BRANCH  22  23
HETATM   23  C   UNL     1     -10.274   9.752  69.473  1.00  0.00    -0.238 C  
BRANCH  23  24
HETATM   24  C   UNL     1     -11.186  10.521  68.509  1.00  0.00    -0.274 C  
HETATM   25  O   UNL     1     -12.513  10.581  69.035  1.00  0.00    -0.770 OA 
HETATM   26  H   UNL     1     -13.078  11.057  68.438  1.00  0.00     0.000 HD 
BRANCH  24  27
HETATM   27  C   UNL     1     -10.708  11.969  68.320  1.00  0.00    -0.252 C  
BRANCH  27  28
HETATM   28  C   UNL     1     -11.639  12.792  67.429  1.00  0.00    -0.415 C  
BRANCH  28  29
HETATM   29  C   UNL     1     -11.470  12.462  65.971  1.00  0.00    -0.431 A  
HETATM   30  C   UNL     1     -10.215  12.082  65.478  1.00  0.00    -0.290 A  
HETATM   31  C   UNL     1     -10.052  11.770  64.129  1.00  0.00    -0.344 A  
HETATM   32  C   UNL     1     -11.140  11.842  63.262  1.00  0.00    -0.390 A  
HETATM   33  C   UNL     1     -12.391  12.229  63.742  1.00  0.00    -0.637 A  
HETATM   34  C   UNL     1     -12.556  12.541  65.093  1.00  0.00    -0.358 A  
ENDBRANCH  28  29
ENDBRANCH  27  28
ENDBRANCH  24  27
ENDBRANCH  23  24
ENDBRANCH  22  23
ENDBRANCH  19  22
ENDBRANCH  12  13
ENDBRANCH  11  12
ENDBRANCH   9  10
ENDBRANCH   8   9
ENDBRANCH   7   8
ENDBRANCH   5   7
ENDBRANCH   4   5
ENDBRANCH   2   4
TORSDOF 14
ENDMDL
MODEL      240
REMARK 921   NORMALIZED FREE ENERGY PREDICTED BY IDOCK:   -3.78 KCAL/MOL
REMARK 922        TOTAL FREE ENERGY PREDICTED BY IDOCK:  -10.16 KCAL/MOL
REMARK 923 INTER-LIGAND FREE ENERGY PREDICTED BY IDOCK:   -9.08 KCAL/MOL
REMARK 924 INTRA-LIGAND FREE ENERGY PREDICTED BY IDOCK:   -1.08 KCAL/MOL
REMARK 927      BINDING AFFINITY PREDICTED BY RF-SCORE:    0.00 PKD
ROOT
HETATM    1  C   UNL     1      -9.973  19.882  67.916  1.00  0.00    -0.552 C  
HETATM    2  C   UNL     1      -9.948  18.995  66.676  1.00  0.00    -0.374 C  
HETATM    3  C   UNL     1     -10.894  19.530  65.609  1.00  0.00    -0.354 C  
ENDROOT
BRANCH   2   4
HETATM    4  O   UNL     1      -8.622  18.991  66.117  1.00  0.00    -0.408 OA 
BRANCH   4   5
HETATM    5  C   UNL     1      -7.625  18.666  66.990  1.00  0.00    -0.226 C  
HETATM    6  O   UNL     1      -6.794  19.446  67.438  1.00  0.00    -0.205 OA 
BRANCH   5   7
HETATM    7  C   UNL     1      -7.685  17.193  67.303  1.00  0.00    -0.198 C  
BRANCH   7   8
HETATM    8  C   UNL     1      -8.146  16.961  68.744  1.00  0.00    -0.251 C  
BRANCH   8   9
HETATM    9  C   UNL     1      -7.946  15.523  69.214  1.00  0.00    -0.238 C  
BRANCH   9  10
HETATM   10  C   UNL     1      -7.009  14.755  68.325  1.00  0.00    -0.119 C  
HETATM   11  C   UNL     1      -7.201  13.519  67.835  1.00  0.00    -0.139 C  
BRANCH  11  12
HETATM   12  C   UNL     1      -8.405  12.646  68.047  1.00  0.00    -0.175 C  
BRANCH  12  13
HETATM   13  C   UNL     1      -9.773  13.338  67.919  1.00  0.00    -0.224 C  
HETATM   14  C   UNL     1      -9.918  14.018  66.545  1.00  0.00    -0.284 C  
HETATM   15  C   UNL     1     -11.403  14.319  66.463  1.00  0.00    -0.351 C  
HETATM   16  O   UNL     1      -9.592  13.127  65.478  1.00  0.00    -0.478 OA 
HETATM   17  C   UNL     1     -12.047  13.057  67.027  1.00  0.00    -0.267 C  
HETATM   18  H   UNL     1      -9.682  13.547  64.631  1.00  0.00     0.000 HD 
HETATM   19  C   UNL     1     -11.010  12.407  67.981  1.00  0.00    -0.262 C  
HETATM   20  O   UNL     1     -12.342  12.144  65.972  1.00  0.00    -0.550 OA 
HETATM   21  H   UNL     1     -12.743  11.358  66.324  1.00  0.00     0.000 HD 
BRANCH  19  22
HETATM   22  C   UNL     1     -11.580  12.252  69.403  1.00  0.00    -0.378 C  
BRANCH  22  23
HETATM   23  C   UNL     1     -12.438  10.988  69.510  1.00  0.00    -0.148 C  
BRANCH  23  24
HETATM   24  C   UNL     1     -12.736  10.542  70.946  1.00  0.00    -0.402 C  
HETATM   25  O   UNL     1     -13.851   9.649  70.959  1.00  0.00    -0.448 OA 
HETATM   26  H   UNL     1     -14.035   9.372  71.849  1.00  0.00     0.000 HD 
BRANCH  24  27
HETATM   27  C   UNL     1     -11.545   9.788  71.558  1.00  0.00    -0.424 C  
BRANCH  27  28
HETATM   28  C   UNL     1     -11.380   8.377  70.993  1.00  0.00    -0.303 C  
BRANCH  28  29
HETATM   29  C   UNL     1     -10.421   7.548  71.803  1.00  0.00    -0.222 A  
HETATM   30  C   UNL     1      -9.851   8.073  72.970  1.00  0.00    -0.352 A  
HETATM   31  C   UNL     1      -8.965   7.309  73.728  1.00  0.00    -0.251 A  
HETATM   32  C   UNL     1      -8.638   6.017  73.322  1.00  0.00    -0.117 A  
HETATM   33  C   UNL     1      -9.193   5.490  72.156  1.00  0.00    -0.155 A  
HETATM   34  C   UNL     1     -10.080   6.254  71.397  1.00  0.00    -0.222 A  
ENDBRANCH  28  29
ENDBRANCH  27  28
ENDBRANCH  24  27
ENDBRANCH  23  24
ENDBRANCH  22  23
ENDBRANCH  19  22
ENDBRANCH  12  13
ENDBRANCH  11  12
ENDBRANCH   9  10
ENDBRANCH   8   9
ENDBRANCH   7   8
ENDBRANCH   5   7
ENDBRANCH   4   5
ENDBRANCH   2   4
TORSDOF 14
ENDMDL
MODEL      241
REMARK 921   NORMALIZED FREE ENERGY PREDICTED BY IDOCK:   -3.77 KCAL/MOL
REMARK 922        TOTAL FREE ENERGY PREDICTED BY IDOCK:  -10.15 KCAL/MOL
REMARK 923 INTER-LIGAND FREE ENERGY PREDICTED BY IDOCK:   -8.73 KCAL/MOL
REMARK 924 INTRA-LIGAND FREE ENERGY PREDICTED BY IDOCK:   -1.42 KCAL/MOL
REMARK 927      BINDING AFFINITY PREDICTED BY RF-SCORE:    0.00 PKD
ROOT
HETATM    1  C   UNL     1      -9.949   6.832  73.189  1.00  0.00    -0.214 C  
HETATM    2  C   UNL     1      -9.879   5.877  72.003  1.00  0.00    -0.157 C  
HETATM    3  C   UNL     1     -11.056   6.098  71.061  1.00  0.00    -0.359 C  
ENDROOT
BRANCH   2   4
HETATM    4  O   UNL     1      -8.674   6.127  71.256  1.00  0.00    -0.131 OA 
BRANCH   4   5
HETATM    5  C   UNL     1      -8.792   7.049  70.257  1.00  0.00    -0.148 C  
HETATM    6  O   UNL     1      -8.986   8.247  70.419  1.00  0.00    -0.141 OA 
BRANCH   5   7
HETATM    7  C   UNL     1      -8.671   6.366  68.919  1.00  0.00    -0.126 C  
BRANCH   7   8
HETATM    8  C   UNL     1      -8.544   7.394  67.793  1.00  0.00    -0.120 C  
BRANCH   8   9
HETATM    9  C   UNL     1      -9.851   7.622  67.037  1.00  0.00    -0.282 C  
BRANCH   9  10
HETATM   10  C   UNL     1     -10.648   8.763  67.604  1.00  0.00    -0.281 C  
HETATM   11  C   UNL     1     -10.711  10.015  67.122  1.00  0.00    -0.279 C  
BRANCH  11  12
HETATM   12  C   UNL     1     -10.019  10.542  65.898  1.00  0.00    -0.313 C  
BRANCH  12  13
HETATM   13  C   UNL     1      -9.852  12.070  65.820  1.00  0.00    -0.263 C  
HETATM   14  C   UNL     1     -10.602  12.643  64.603  1.00  0.00    -0.333 C  
HETATM   15  C   UNL     1     -10.631  14.133  64.885  1.00  0.00    -0.449 C  
HETATM   16  O   UNL     1     -11.951  12.180  64.548  1.00  0.00    -0.368 OA 
HETATM   17  C   UNL     1     -10.947  14.201  66.375  1.00  0.00    -0.311 C  
HETATM   18  H   UNL     1     -12.413  12.533  63.797  1.00  0.00     0.000 HD 
HETATM   19  C   UNL     1     -10.444  12.875  67.005  1.00  0.00    -0.244 C  
HETATM   20  O   UNL     1     -12.356  14.302  66.574  1.00  0.00    -0.461 OA 
HETATM   21  H   UNL     1     -12.552  14.344  67.502  1.00  0.00     0.000 HD 
BRANCH  19  22
HETATM   22  C   UNL     1      -9.421  13.142  68.126  1.00  0.00    -0.222 C  
BRANCH  22  23
HETATM   23  C   UNL     1      -7.996  13.172  67.565  1.00  0.00    -0.179 C  
BRANCH  23  24
HETATM   24  C   UNL     1      -7.217  14.455  67.878  1.00  0.00    -0.160 C  
HETATM   25  O   UNL     1      -5.869  14.330  67.425  1.00  0.00    -0.348 OA 
HETATM   26  H   UNL     1      -5.386  15.125  67.618  1.00  0.00     0.000 HD 
BRANCH  24  27
HETATM   27  C   UNL     1      -7.826  15.669  67.160  1.00  0.00    -0.253 C  
BRANCH  27  28
HETATM   28  C   UNL     1      -7.886  16.915  68.045  1.00  0.00    -0.180 C  
BRANCH  28  29
HETATM   29  C   UNL     1      -8.818  17.960  67.495  1.00  0.00    -0.248 A  
HETATM   30  C   UNL     1      -8.837  19.246  68.052  1.00  0.00    -0.360 A  
HETATM   31  C   UNL     1      -9.694  20.222  67.544  1.00  0.00    -0.575 A  
HETATM   32  C   UNL     1     -10.541  19.918  66.480  1.00  0.00    -0.531 A  
HETATM   33  C   UNL     1     -10.535  18.638  65.926  1.00  0.00    -0.395 A  
HETATM   34  C   UNL     1      -9.678  17.661  66.434  1.00  0.00    -0.303 A  
ENDBRANCH  28  29
ENDBRANCH  27  28
ENDBRANCH  24  27
ENDBRANCH  23  24
ENDBRANCH  22  23
ENDBRANCH  19  22
ENDBRANCH  12  13
ENDBRANCH  11  12
ENDBRANCH   9  10
ENDBRANCH   8   9
ENDBRANCH   7   8
ENDBRANCH   5   7
ENDBRANCH   4   5
ENDBRANCH   2   4
TORSDOF 14
ENDMDL
MODEL      242
REMARK 921   NORMALIZED FREE ENERGY PREDICTED BY IDOCK:   -3.77 KCAL/MOL
REMARK 922        TOTAL FREE ENERGY PREDICTED BY IDOCK:  -10.15 KCAL/MOL
REMARK 923 INTER-LIGAND FREE ENERGY PREDICTED BY IDOCK:   -8.15 KCAL/MOL
REMARK 924 INTRA-LIGAND FREE ENERGY PREDICTED BY IDOCK:   -2.00 KCAL/MOL
REMARK 927      BINDING AFFINITY PREDICTED BY RF-SCORE:    0.00 PKD
ROOT
HETATM    1  C   UNL     1     -10.442  10.368  65.352  1.00  0.00    -0.187 C  
HETATM    2  C   UNL     1      -9.376   9.652  64.530  1.00  0.00    -0.182 C  
HETATM    3  C   UNL     1      -9.369  10.161  63.094  1.00  0.00    -0.333 C  
ENDROOT
BRANCH   2   4
HETATM    4  O   UNL     1      -8.078   9.920  65.090  1.00  0.00    -0.125 OA 
BRANCH   4   5
HETATM    5  C   UNL     1      -7.264   8.832  65.216  1.00  0.00    -0.084 C  
HETATM    6  O   UNL     1      -6.660   8.291  64.298  1.00  0.00    -0.065 OA 
BRANCH   5   7
HETATM    7  C   UNL     1      -7.239   8.380  66.653  1.00  0.00    -0.077 C  
BRANCH   7   8
HETATM    8  C   UNL     1      -7.415   9.568  67.601  1.00  0.00    -0.091 C  
BRANCH   8   9
HETATM    9  C   UNL     1      -6.252  10.555  67.548  1.00  0.00    -0.056 C  
BRANCH   9  10
HETATM   10  C   UNL     1      -6.503  11.780  68.381  1.00  0.00    -0.053 C  
HETATM   11  C   UNL     1      -7.526  12.642  68.253  1.00  0.00    -0.123 C  
BRANCH  11  12
HETATM   12  C   UNL     1      -8.656  12.554  67.267  1.00  0.00    -0.191 C  
BRANCH  12  13
HETATM   13  C   UNL     1      -9.775  13.598  67.427  1.00  0.00    -0.228 C  
HETATM   14  C   UNL     1     -10.959  13.016  68.221  1.00  0.00    -0.260 C  
HETATM   15  C   UNL     1     -11.771  14.246  68.582  1.00  0.00    -0.380 C  
HETATM   16  O   UNL     1     -10.528  12.403  69.436  1.00  0.00    -0.423 OA 
HETATM   17  C   UNL     1     -10.707  15.264  68.977  1.00  0.00    -0.244 C  
HETATM   18  H   UNL     1     -11.259  12.044  69.926  1.00  0.00     0.000 HD 
HETATM   19  C   UNL     1      -9.403  14.868  68.233  1.00  0.00    -0.195 C  
HETATM   20  O   UNL     1     -10.473  15.209  70.382  1.00  0.00    -0.490 OA 
HETATM   21  H   UNL     1      -9.810  15.843  70.628  1.00  0.00     0.000 HD 
BRANCH  19  22
HETATM   22  C   UNL     1      -8.895  16.020  67.347  1.00  0.00    -0.197 C  
BRANCH  22  23
HETATM   23  C   UNL     1      -9.744  16.147  66.079  1.00  0.00    -0.376 C  
BRANCH  23  24
HETATM   24  C   UNL     1     -10.234  17.569  65.780  1.00  0.00    -0.173 C  
HETATM   25  O   UNL     1     -11.226  17.539  64.755  1.00  0.00    -0.878 OA 
HETATM   26  H   UNL     1     -11.530  18.420  64.570  1.00  0.00     0.000 HD 
BRANCH  24  27
HETATM   27  C   UNL     1     -10.879  18.211  67.018  1.00  0.00    -0.162 C  
BRANCH  27  28
HETATM   28  C   UNL     1     -10.428  19.654  67.243  1.00  0.00    -0.596 C  
BRANCH  28  29
HETATM   29  C   UNL     1      -8.979  19.743  67.640  1.00  0.00    -0.402 A  
HETATM   30  C   UNL     1      -8.024  20.188  66.716  1.00  0.00    -0.343 A  
HETATM   31  C   UNL     1      -6.681  20.277  67.078  1.00  0.00    -0.279 A  
HETATM   32  C   UNL     1      -6.282  19.918  68.363  1.00  0.00    -0.299 A  
HETATM   33  C   UNL     1      -7.224  19.465  69.286  1.00  0.00    -0.336 A  
HETATM   34  C   UNL     1      -8.569  19.375  68.925  1.00  0.00    -0.326 A  
ENDBRANCH  28  29
ENDBRANCH  27  28
ENDBRANCH  24  27
ENDBRANCH  23  24
ENDBRANCH  22  23
ENDBRANCH  19  22
ENDBRANCH  12  13
ENDBRANCH  11  12
ENDBRANCH   9  10
ENDBRANCH   8   9
ENDBRANCH   7   8
ENDBRANCH   5   7
ENDBRANCH   4   5
ENDBRANCH   2   4
TORSDOF 14
ENDMDL
MODEL      243
REMARK 921   NORMALIZED FREE ENERGY PREDICTED BY IDOCK:   -3.77 KCAL/MOL
REMARK 922        TOTAL FREE ENERGY PREDICTED BY IDOCK:  -10.14 KCAL/MOL
REMARK 923 INTER-LIGAND FREE ENERGY PREDICTED BY IDOCK:   -8.78 KCAL/MOL
REMARK 924 INTRA-LIGAND FREE ENERGY PREDICTED BY IDOCK:   -1.37 KCAL/MOL
REMARK 927      BINDING AFFINITY PREDICTED BY RF-SCORE:    0.00 PKD
ROOT
HETATM    1  C   UNL     1      -8.306   4.043  70.511  1.00  0.00    -0.085 C  
HETATM    2  C   UNL     1      -9.670   4.059  71.192  1.00  0.00    -0.187 C  
HETATM    3  C   UNL     1      -9.525   3.881  72.698  1.00  0.00    -0.166 C  
ENDROOT
BRANCH   2   4
HETATM    4  O   UNL     1     -10.304   5.332  70.966  1.00  0.00    -0.224 OA 
BRANCH   4   5
HETATM    5  C   UNL     1     -10.212   5.806  69.689  1.00  0.00    -0.233 C  
HETATM    6  O   UNL     1     -10.499   5.178  68.678  1.00  0.00    -0.131 OA 
BRANCH   5   7
HETATM    7  C   UNL     1      -9.680   7.217  69.709  1.00  0.00    -0.165 C  
BRANCH   7   8
HETATM    8  C   UNL     1      -8.373   7.317  68.919  1.00  0.00    -0.126 C  
BRANCH   8   9
HETATM    9  C   UNL     1      -8.452   8.295  67.750  1.00  0.00    -0.131 C  
BRANCH   9  10
HETATM   10  C   UNL     1      -9.851   8.445  67.223  1.00  0.00    -0.264 C  
HETATM   11  C   UNL     1     -10.255   9.277  66.247  1.00  0.00    -0.273 C  
BRANCH  11  12
HETATM   12  C   UNL     1      -9.394  10.218  65.455  1.00  0.00    -0.258 C  
BRANCH  12  13
HETATM   13  C   UNL     1      -9.911  11.661  65.327  1.00  0.00    -0.292 C  
HETATM   14  C   UNL     1     -10.277  11.986  63.866  1.00  0.00    -0.398 C  
HETATM   15  C   UNL     1     -11.078  13.268  63.987  1.00  0.00    -0.342 C  
HETATM   16  O   UNL     1     -11.127  10.988  63.301  1.00  0.00    -0.734 OA 
HETATM   17  C   UNL     1     -11.960  13.015  65.206  1.00  0.00    -0.407 C  
HETATM   18  H   UNL     1     -11.352  11.189  62.400  1.00  0.00     0.000 HD 
HETATM   19  C   UNL     1     -11.220  11.981  66.094  1.00  0.00    -0.394 C  
HETATM   20  O   UNL     1     -13.212  12.465  64.799  1.00  0.00    -0.784 OA 
HETATM   21  H   UNL     1     -13.761  12.308  65.559  1.00  0.00     0.000 HD 
BRANCH  19  22
HETATM   22  C   UNL     1     -10.971  12.536  67.509  1.00  0.00    -0.288 C  
BRANCH  22  23
HETATM   23  C   UNL     1     -11.570  13.938  67.655  1.00  0.00    -0.381 C  
BRANCH  23  24
HETATM   24  C   UNL     1     -11.056  14.725  68.866  1.00  0.00    -0.252 C  
HETATM   25  O   UNL     1     -10.210  13.897  69.664  1.00  0.00    -0.329 OA 
HETATM   26  H   UNL     1      -9.891  14.385  70.414  1.00  0.00     0.000 HD 
BRANCH  24  27
HETATM   27  C   UNL     1     -10.221  15.940  68.431  1.00  0.00    -0.226 C  
BRANCH  27  28
HETATM   28  C   UNL     1      -8.716  15.675  68.479  1.00  0.00    -0.182 C  
BRANCH  28  29
HETATM   29  C   UNL     1      -7.920  16.799  67.872  1.00  0.00    -0.182 A  
HETATM   30  C   UNL     1      -7.354  17.781  68.695  1.00  0.00    -0.269 A  
HETATM   31  C   UNL     1      -6.611  18.823  68.140  1.00  0.00    -0.235 A  
HETATM   32  C   UNL     1      -6.434  18.892  66.760  1.00  0.00    -0.201 A  
HETATM   33  C   UNL     1      -7.003  17.924  65.933  1.00  0.00    -0.313 A  
HETATM   34  C   UNL     1      -7.746  16.881  66.487  1.00  0.00    -0.326 A  
ENDBRANCH  28  29
ENDBRANCH  27  28
ENDBRANCH  24  27
ENDBRANCH  23  24
ENDBRANCH  22  23
ENDBRANCH  19  22
ENDBRANCH  12  13
ENDBRANCH  11  12
ENDBRANCH   9  10
ENDBRANCH   8   9
ENDBRANCH   7   8
ENDBRANCH   5   7
ENDBRANCH   4   5
ENDBRANCH   2   4
TORSDOF 14
ENDMDL
MODEL      244
REMARK 921   NORMALIZED FREE ENERGY PREDICTED BY IDOCK:   -3.77 KCAL/MOL
REMARK 922        TOTAL FREE ENERGY PREDICTED BY IDOCK:  -10.14 KCAL/MOL
REMARK 923 INTER-LIGAND FREE ENERGY PREDICTED BY IDOCK:   -7.18 KCAL/MOL
REMARK 924 INTRA-LIGAND FREE ENERGY PREDICTED BY IDOCK:   -2.96 KCAL/MOL
REMARK 927      BINDING AFFINITY PREDICTED BY RF-SCORE:    0.00 PKD
ROOT
HETATM    1  C   UNL     1      -9.776  13.664  66.692  1.00  0.00    -0.287 C  
HETATM    2  C   UNL     1     -11.228  13.207  66.599  1.00  0.00    -0.304 C  
HETATM    3  C   UNL     1     -12.030  13.709  67.793  1.00  0.00    -0.387 C  
ENDROOT
BRANCH   2   4
HETATM    4  O   UNL     1     -11.828  13.757  65.412  1.00  0.00    -0.332 OA 
BRANCH   4   5
HETATM    5  C   UNL     1     -12.247  12.838  64.495  1.00  0.00    -0.433 C  
HETATM    6  O   UNL     1     -13.337  12.280  64.498  1.00  0.00    -0.769 OA 
BRANCH   5   7
HETATM    7  C   UNL     1     -11.154  12.593  63.486  1.00  0.00    -0.449 C  
BRANCH   7   8
HETATM    8  C   UNL     1     -10.802  11.106  63.414  1.00  0.00    -0.211 C  
BRANCH   8   9
HETATM    9  C   UNL     1     -10.148  10.582  64.689  1.00  0.00    -0.408 C  
BRANCH   9  10
HETATM   10  C   UNL     1      -8.725  10.152  64.467  1.00  0.00    -0.211 C  
HETATM   11  C   UNL     1      -7.774  10.011  65.406  1.00  0.00    -0.137 C  
BRANCH  11  12
HETATM   12  C   UNL     1      -7.931  10.227  66.884  1.00  0.00    -0.112 C  
BRANCH  12  13
HETATM   13  C   UNL     1      -8.316   8.987  67.710  1.00  0.00    -0.117 C  
HETATM   14  C   UNL     1      -7.265   8.706  68.800  1.00  0.00    -0.075 C  
HETATM   15  C   UNL     1      -7.966   7.715  69.710  1.00  0.00    -0.116 C  
HETATM   16  O   UNL     1      -6.974   9.875  69.566  1.00  0.00    -0.055 OA 
HETATM   17  C   UNL     1      -9.383   8.272  69.807  1.00  0.00    -0.158 C  
HETATM   18  H   UNL     1      -6.326   9.701  70.239  1.00  0.00     0.000 HD 
HETATM   19  C   UNL     1      -9.635   9.095  68.516  1.00  0.00    -0.156 C  
HETATM   20  O   UNL     1      -9.494   9.135  70.936  1.00  0.00    -0.240 OA 
HETATM   21  H   UNL     1     -10.376   9.482  70.997  1.00  0.00     0.000 HD 
BRANCH  19  22
HETATM   22  C   UNL     1     -10.860   8.566  67.747  1.00  0.00    -0.065 C  
BRANCH  22  23
HETATM   23  C   UNL     1     -10.445   7.489  66.739  1.00  0.00    -0.319 C  
BRANCH  23  24
HETATM   24  C   UNL     1     -10.837   6.061  67.137  1.00  0.00    -0.329 C  
HETATM   25  O   UNL     1     -11.382   5.373  66.011  1.00  0.00    -0.773 OA 
HETATM   26  H   UNL     1     -11.625   4.488  66.257  1.00  0.00     0.000 HD 
BRANCH  24  27
HETATM   27  C   UNL     1      -9.618   5.257  67.614  1.00  0.00    -0.151 C  
BRANCH  27  28
HETATM   28  C   UNL     1      -8.384   5.472  66.736  1.00  0.00    -0.108 C  
BRANCH  28  29
HETATM   29  C   UNL     1      -8.081   4.274  65.877  1.00  0.00    -0.098 A  
HETATM   30  C   UNL     1      -8.641   4.168  64.597  1.00  0.00    -0.120 A  
HETATM   31  C   UNL     1      -8.361   3.064  63.794  1.00  0.00    -0.086 A  
HETATM   32  C   UNL     1      -7.523   2.056  64.266  1.00  0.00    -0.059 A  
HETATM   33  C   UNL     1      -6.969   2.148  65.542  1.00  0.00    -0.047 A  
HETATM   34  C   UNL     1      -7.249   3.253  66.347  1.00  0.00    -0.067 A  
ENDBRANCH  28  29
ENDBRANCH  27  28
ENDBRANCH  24  27
ENDBRANCH  23  24
ENDBRANCH  22  23
ENDBRANCH  19  22
ENDBRANCH  12  13
ENDBRANCH  11  12
ENDBRANCH   9  10
ENDBRANCH   8   9
ENDBRANCH   7   8
ENDBRANCH   5   7
ENDBRANCH   4   5
ENDBRANCH   2   4
TORSDOF 14
ENDMDL
MODEL      245
REMARK 921   NORMALIZED FREE ENERGY PREDICTED BY IDOCK:   -3.76 KCAL/MOL
REMARK 922        TOTAL FREE ENERGY PREDICTED BY IDOCK:  -10.14 KCAL/MOL
REMARK 923 INTER-LIGAND FREE ENERGY PREDICTED BY IDOCK:   -8.47 KCAL/MOL
REMARK 924 INTRA-LIGAND FREE ENERGY PREDICTED BY IDOCK:   -1.66 KCAL/MOL
REMARK 927      BINDING AFFINITY PREDICTED BY RF-SCORE:    0.00 PKD
ROOT
HETATM    1  C   UNL     1      -7.443  14.654  67.370  1.00  0.00    -0.212 C  
HETATM    2  C   UNL     1      -7.052  16.044  67.861  1.00  0.00    -0.136 C  
HETATM    3  C   UNL     1      -5.743  16.494  67.226  1.00  0.00    -0.180 C  
ENDROOT
BRANCH   2   4
HETATM    4  O   UNL     1      -8.067  16.990  67.478  1.00  0.00    -0.172 OA 
BRANCH   4   5
HETATM    5  C   UNL     1      -8.332  17.961  68.399  1.00  0.00    -0.304 C  
HETATM    6  O   UNL     1      -7.646  18.956  68.596  1.00  0.00    -0.309 OA 
BRANCH   5   7
HETATM    7  C   UNL     1      -9.588  17.613  69.156  1.00  0.00    -0.039 C  
BRANCH   7   8
HETATM    8  C   UNL     1     -10.732  17.289  68.194  1.00  0.00    -0.363 C  
BRANCH   8   9
HETATM    9  C   UNL     1     -11.669  16.204  68.719  1.00  0.00    -0.231 C  
BRANCH   9  10
HETATM   10  C   UNL     1     -10.983  14.875  68.861  1.00  0.00    -0.257 C  
HETATM   11  C   UNL     1     -10.951  13.887  67.951  1.00  0.00    -0.265 C  
BRANCH  11  12
HETATM   12  C   UNL     1     -11.572  13.905  66.583  1.00  0.00    -0.392 C  
BRANCH  12  13
HETATM   13  C   UNL     1     -11.585  12.564  65.829  1.00  0.00    -0.439 C  
HETATM   14  C   UNL     1     -11.219  12.764  64.347  1.00  0.00    -0.347 C  
HETATM   15  C   UNL     1     -10.934  11.353  63.868  1.00  0.00    -0.442 C  
HETATM   16  O   UNL     1     -10.022  13.527  64.198  1.00  0.00    -0.766 OA 
HETATM   17  C   UNL     1     -10.141  10.745  65.020  1.00  0.00    -0.313 C  
HETATM   18  H   UNL     1      -9.796  13.651  63.283  1.00  0.00     0.000 HD 
HETATM   19  C   UNL     1     -10.553  11.511  66.306  1.00  0.00    -0.309 C  
HETATM   20  O   UNL     1      -8.743  10.925  64.802  1.00  0.00    -0.299 OA 
HETATM   21  H   UNL     1      -8.250  10.546  65.520  1.00  0.00     0.000 HD 
BRANCH  19  22
HETATM   22  C   UNL     1     -11.115  10.551  67.371  1.00  0.00    -0.322 C  
BRANCH  22  23
HETATM   23  C   UNL     1     -10.589  10.914  68.762  1.00  0.00    -0.231 C  
BRANCH  23  24
HETATM   24  C   UNL     1      -9.253  10.256  69.129  1.00  0.00    -0.194 C  
HETATM   25  O   UNL     1      -8.226  11.244  69.204  1.00  0.00    -0.342 OA 
HETATM   26  H   UNL     1      -7.399  10.837  69.431  1.00  0.00     0.000 HD 
BRANCH  24  27
HETATM   27  C   UNL     1      -9.325   9.570  70.502  1.00  0.00    -0.296 C  
BRANCH  27  28
HETATM   28  C   UNL     1      -8.296   8.450  70.661  1.00  0.00    -0.129 C  
BRANCH  28  29
HETATM   29  C   UNL     1      -8.927   7.085  70.607  1.00  0.00    -0.154 A  
HETATM   30  C   UNL     1      -8.129   5.939  70.717  1.00  0.00    -0.119 A  
HETATM   31  C   UNL     1      -8.707   4.671  70.673  1.00  0.00    -0.129 A  
HETATM   32  C   UNL     1     -10.085   4.540  70.513  1.00  0.00    -0.233 A  
HETATM   33  C   UNL     1     -10.885   5.675  70.394  1.00  0.00    -0.326 A  
HETATM   34  C   UNL     1     -10.308   6.945  70.438  1.00  0.00    -0.221 A  
ENDBRANCH  28  29
ENDBRANCH  27  28
ENDBRANCH  24  27
ENDBRANCH  23  24
ENDBRANCH  22  23
ENDBRANCH  19  22
ENDBRANCH  12  13
ENDBRANCH  11  12
ENDBRANCH   9  10
ENDBRANCH   8   9
ENDBRANCH   7   8
ENDBRANCH   5   7
ENDBRANCH   4   5
ENDBRANCH   2   4
TORSDOF 14
ENDMDL
MODEL      246
REMARK 921   NORMALIZED FREE ENERGY PREDICTED BY IDOCK:   -3.76 KCAL/MOL
REMARK 922        TOTAL FREE ENERGY PREDICTED BY IDOCK:  -10.13 KCAL/MOL
REMARK 923 INTER-LIGAND FREE ENERGY PREDICTED BY IDOCK:   -8.38 KCAL/MOL
REMARK 924 INTRA-LIGAND FREE ENERGY PREDICTED BY IDOCK:   -1.75 KCAL/MOL
REMARK 927      BINDING AFFINITY PREDICTED BY RF-SCORE:    0.00 PKD
ROOT
HETATM    1  C   UNL     1     -10.875  14.248  65.143  1.00  0.00    -0.387 C  
HETATM    2  C   UNL     1     -12.190  13.516  64.902  1.00  0.00    -0.410 C  
HETATM    3  C   UNL     1     -12.184  12.826  63.544  1.00  0.00    -0.613 C  
ENDROOT
BRANCH   2   4
HETATM    4  O   UNL     1     -12.362  12.497  65.904  1.00  0.00    -0.626 OA 
BRANCH   4   5
HETATM    5  C   UNL     1     -11.320  12.357  66.774  1.00  0.00    -0.335 C  
HETATM    6  O   UNL     1     -11.138  13.038  67.775  1.00  0.00    -0.245 OA 
BRANCH   5   7
HETATM    7  C   UNL     1     -10.411  11.250  66.304  1.00  0.00    -0.308 C  
BRANCH   7   8
HETATM    8  C   UNL     1     -10.381  10.104  67.317  1.00  0.00    -0.291 C  
BRANCH   8   9
HETATM    9  C   UNL     1      -8.972   9.767  67.800  1.00  0.00    -0.132 C  
BRANCH   9  10
HETATM   10  C   UNL     1      -7.971   9.756  66.679  1.00  0.00    -0.112 C  
HETATM   11  C   UNL     1      -7.339   8.681  66.178  1.00  0.00    -0.085 C  
BRANCH  11  12
HETATM   12  C   UNL     1      -7.516   7.253  66.610  1.00  0.00    -0.088 C  
BRANCH  12  13
HETATM   13  C   UNL     1      -8.649   6.474  65.921  1.00  0.00    -0.153 C  
HETATM   14  C   UNL     1      -8.083   5.347  65.037  1.00  0.00    -0.120 C  
HETATM   15  C   UNL     1      -9.301   4.492  64.744  1.00  0.00    -0.140 C  
HETATM   16  O   UNL     1      -7.143   4.541  65.748  1.00  0.00    -0.064 OA 
HETATM   17  C   UNL     1     -10.025   4.442  66.085  1.00  0.00    -0.238 C  
HETATM   18  H   UNL     1      -6.793   3.846  65.203  1.00  0.00     0.000 HD 
HETATM   19  C   UNL     1      -9.623   5.723  66.864  1.00  0.00    -0.153 C  
HETATM   20  O   UNL     1      -9.606   3.298  66.826  1.00  0.00    -0.367 OA 
HETATM   21  H   UNL     1     -10.057   3.267  67.662  1.00  0.00     0.000 HD 
BRANCH  19  22
HETATM   22  C   UNL     1     -10.861   6.556  67.245  1.00  0.00    -0.463 C  
BRANCH  22  23
HETATM   23  C   UNL     1     -11.239   6.329  68.712  1.00  0.00    -0.357 C  
BRANCH  23  24
HETATM   24  C   UNL     1     -10.809   7.455  69.660  1.00  0.00    -0.210 C  
HETATM   25  O   UNL     1     -11.939   7.945  70.381  1.00  0.00    -0.484 OA 
HETATM   26  H   UNL     1     -11.673   8.642  70.969  1.00  0.00     0.000 HD 
BRANCH  24  27
HETATM   27  C   UNL     1      -9.791   6.956  70.697  1.00  0.00    -0.191 C  
BRANCH  27  28
HETATM   28  C   UNL     1      -9.441   5.478  70.523  1.00  0.00    -0.209 C  
BRANCH  28  29
HETATM   29  C   UNL     1      -9.996   4.626  71.631  1.00  0.00    -0.262 A  
HETATM   30  C   UNL     1      -9.907   3.229  71.556  1.00  0.00    -0.206 A  
HETATM   31  C   UNL     1     -10.415   2.434  72.582  1.00  0.00    -0.210 A  
HETATM   32  C   UNL     1     -11.020   3.028  73.687  1.00  0.00    -0.323 A  
HETATM   33  C   UNL     1     -11.123   4.416  73.766  1.00  0.00    -0.323 A  
HETATM   34  C   UNL     1     -10.614   5.214  72.740  1.00  0.00    -0.278 A  
ENDBRANCH  28  29
ENDBRANCH  27  28
ENDBRANCH  24  27
ENDBRANCH  23  24
ENDBRANCH  22  23
ENDBRANCH  19  22
ENDBRANCH  12  13
ENDBRANCH  11  12
ENDBRANCH   9  10
ENDBRANCH   8   9
ENDBRANCH   7   8
ENDBRANCH   5   7
ENDBRANCH   4   5
ENDBRANCH   2   4
TORSDOF 14
ENDMDL
MODEL      247
REMARK 921   NORMALIZED FREE ENERGY PREDICTED BY IDOCK:   -3.73 KCAL/MOL
REMARK 922        TOTAL FREE ENERGY PREDICTED BY IDOCK:  -10.07 KCAL/MOL
REMARK 923 INTER-LIGAND FREE ENERGY PREDICTED BY IDOCK:   -7.95 KCAL/MOL
REMARK 924 INTRA-LIGAND FREE ENERGY PREDICTED BY IDOCK:   -2.12 KCAL/MOL
REMARK 927      BINDING AFFINITY PREDICTED BY RF-SCORE:    0.00 PKD
ROOT
HETATM    1  C   UNL     1     -10.465   4.532  65.505  1.00  0.00    -0.241 C  
HETATM    2  C   UNL     1      -9.405   3.957  66.438  1.00  0.00    -0.182 C  
HETATM    3  C   UNL     1      -8.060   3.856  65.730  1.00  0.00    -0.097 C  
ENDROOT
BRANCH   2   4
HETATM    4  O   UNL     1      -9.235   4.833  67.568  1.00  0.00    -0.117 OA 
BRANCH   4   5
HETATM    5  C   UNL     1      -9.934   6.003  67.505  1.00  0.00    -0.137 C  
HETATM    6  O   UNL     1      -9.692   6.932  66.745  1.00  0.00    -0.167 OA 
BRANCH   5   7
HETATM    7  C   UNL     1     -11.039   5.989  68.530  1.00  0.00    -0.279 C  
BRANCH   7   8
HETATM    8  C   UNL     1     -10.487   5.675  69.921  1.00  0.00    -0.378 C  
BRANCH   8   9
HETATM    9  C   UNL     1     -11.383   6.178  71.051  1.00  0.00    -0.348 C  
BRANCH   9  10
HETATM   10  C   UNL     1     -11.780   7.615  70.869  1.00  0.00    -0.291 C  
HETATM   11  C   UNL     1     -11.048   8.696  71.189  1.00  0.00    -0.324 C  
BRANCH  11  12
HETATM   12  C   UNL     1      -9.665   8.703  71.774  1.00  0.00    -0.361 C  
BRANCH  12  13
HETATM   13  C   UNL     1      -8.586   9.425  70.948  1.00  0.00    -0.135 C  
HETATM   14  C   UNL     1      -7.264   8.635  70.963  1.00  0.00    -0.079 C  
HETATM   15  C   UNL     1      -6.465   9.278  69.845  1.00  0.00    -0.044 C  
HETATM   16  O   UNL     1      -7.466   7.263  70.624  1.00  0.00    -0.077 OA 
HETATM   17  C   UNL     1      -7.500   9.474  68.743  1.00  0.00    -0.075 C  
HETATM   18  H   UNL     1      -6.650   6.776  70.633  1.00  0.00     0.000 HD 
HETATM   19  C   UNL     1      -8.885   9.579  69.435  1.00  0.00    -0.172 C  
HETATM   20  O   UNL     1      -7.504   8.347  67.868  1.00  0.00    -0.094 OA 
HETATM   21  H   UNL     1      -8.149   8.470  67.181  1.00  0.00     0.000 HD 
BRANCH  19  22
HETATM   22  C   UNL     1      -9.582  10.908  69.088  1.00  0.00    -0.125 C  
BRANCH  22  23
HETATM   23  C   UNL     1      -9.874  10.993  67.587  1.00  0.00    -0.192 C  
BRANCH  23  24
HETATM   24  C   UNL     1     -10.586  12.278  67.150  1.00  0.00    -0.225 C  
HETATM   25  O   UNL     1     -11.961  12.006  66.877  1.00  0.00    -0.612 OA 
HETATM   26  H   UNL     1     -12.403  12.802  66.607  1.00  0.00     0.000 HD 
BRANCH  24  27
HETATM   27  C   UNL     1     -10.546  13.345  68.255  1.00  0.00    -0.264 C  
BRANCH  27  28
HETATM   28  C   UNL     1     -11.890  14.044  68.457  1.00  0.00    -0.399 C  
BRANCH  28  29
HETATM   29  C   UNL     1     -12.370  13.956  69.880  1.00  0.00    -0.358 A  
HETATM   30  C   UNL     1     -12.654  15.125  70.599  1.00  0.00    -0.450 A  
HETATM   31  C   UNL     1     -13.104  15.050  71.917  1.00  0.00    -0.437 A  
HETATM   32  C   UNL     1     -13.268  13.809  72.526  1.00  0.00    -0.599 A  
HETATM   33  C   UNL     1     -12.979  12.641  71.822  1.00  0.00    -0.417 A  
HETATM   34  C   UNL     1     -12.529  12.713  70.503  1.00  0.00    -0.273 A  
ENDBRANCH  28  29
ENDBRANCH  27  28
ENDBRANCH  24  27
ENDBRANCH  23  24
ENDBRANCH  22  23
ENDBRANCH  19  22
ENDBRANCH  12  13
ENDBRANCH  11  12
ENDBRANCH   9  10
ENDBRANCH   8   9
ENDBRANCH   7   8
ENDBRANCH   5   7
ENDBRANCH   4   5
ENDBRANCH   2   4
TORSDOF 14
ENDMDL
MODEL      248
REMARK 921   NORMALIZED FREE ENERGY PREDICTED BY IDOCK:   -3.72 KCAL/MOL
REMARK 922        TOTAL FREE ENERGY PREDICTED BY IDOCK:  -10.07 KCAL/MOL
REMARK 923 INTER-LIGAND FREE ENERGY PREDICTED BY IDOCK:   -7.11 KCAL/MOL
REMARK 924 INTRA-LIGAND FREE ENERGY PREDICTED BY IDOCK:   -2.96 KCAL/MOL
REMARK 927      BINDING AFFINITY PREDICTED BY RF-SCORE:    0.00 PKD
ROOT
HETATM    1  C   UNL     1      -8.624   8.768  71.862  1.00  0.00    -0.169 C  
HETATM    2  C   UNL     1      -8.489   8.205  70.452  1.00  0.00    -0.129 C  
HETATM    3  C   UNL     1      -9.733   7.417  70.064  1.00  0.00    -0.175 C  
ENDROOT
BRANCH   2   4
HETATM    4  O   UNL     1      -8.353   9.289  69.514  1.00  0.00    -0.115 OA 
BRANCH   4   5
HETATM    5  C   UNL     1      -7.909   8.931  68.275  1.00  0.00    -0.101 C  
HETATM    6  O   UNL     1      -7.055   8.083  68.047  1.00  0.00    -0.081 OA 
BRANCH   5   7
HETATM    7  C   UNL     1      -8.612   9.754  67.226  1.00  0.00    -0.128 C  
BRANCH   7   8
HETATM    8  C   UNL     1      -7.609  10.587  66.425  1.00  0.00    -0.132 C  
BRANCH   8   9
HETATM    9  C   UNL     1      -7.814  12.091  66.586  1.00  0.00     0.039 C  
BRANCH   9  10
HETATM   10  C   UNL     1      -7.783  12.522  68.026  1.00  0.00    -0.140 C  
HETATM   11  C   UNL     1      -7.463  13.742  68.492  1.00  0.00    -0.119 C  
BRANCH  11  12
HETATM   12  C   UNL     1      -7.091  14.946  67.675  1.00  0.00    -0.208 C  
BRANCH  12  13
HETATM   13  C   UNL     1      -7.743  16.274  68.095  1.00  0.00    -0.159 C  
HETATM   14  C   UNL     1      -6.799  17.087  69.000  1.00  0.00    -0.229 C  
HETATM   15  C   UNL     1      -7.433  18.465  69.013  1.00  0.00    -0.209 C  
HETATM   16  O   UNL     1      -5.496  17.209  68.429  1.00  0.00    -0.125 OA 
HETATM   17  C   UNL     1      -7.848  18.672  67.560  1.00  0.00    -0.230 C  
HETATM   18  H   UNL     1      -4.913  17.710  68.988  1.00  0.00     0.000 HD 
HETATM   19  C   UNL     1      -8.063  17.264  66.945  1.00  0.00    -0.258 C  
HETATM   20  O   UNL     1      -6.810  19.337  66.843  1.00  0.00    -0.197 OA 
HETATM   21  H   UNL     1      -7.069  19.466  65.938  1.00  0.00     0.000 HD 
BRANCH  19  22
HETATM   22  C   UNL     1      -9.492  17.108  66.393  1.00  0.00    -0.290 C  
BRANCH  22  23
HETATM   23  C   UNL     1     -10.351  16.262  67.338  1.00  0.00    -0.285 C  
BRANCH  23  24
HETATM   24  C   UNL     1     -11.147  15.148  66.647  1.00  0.00    -0.308 C  
HETATM   25  O   UNL     1     -10.264  14.297  65.917  1.00  0.00    -0.298 OA 
HETATM   26  H   UNL     1     -10.757  13.606  65.490  1.00  0.00     0.000 HD 
BRANCH  24  27
HETATM   27  C   UNL     1     -11.883  14.270  67.670  1.00  0.00    -0.420 C  
BRANCH  27  28
HETATM   28  C   UNL     1     -11.033  13.950  68.900  1.00  0.00    -0.290 C  
BRANCH  28  29
HETATM   29  C   UNL     1     -11.601  12.813  69.705  1.00  0.00    -0.288 A  
HETATM   30  C   UNL     1     -11.331  11.488  69.337  1.00  0.00    -0.355 A  
HETATM   31  C   UNL     1     -11.850  10.430  70.082  1.00  0.00    -0.379 A  
HETATM   32  C   UNL     1     -12.647  10.687  71.195  1.00  0.00    -0.526 A  
HETATM   33  C   UNL     1     -12.929  12.003  71.563  1.00  0.00    -0.407 A  
HETATM   34  C   UNL     1     -12.409  13.063  70.819  1.00  0.00    -0.394 A  
ENDBRANCH  28  29
ENDBRANCH  27  28
ENDBRANCH  24  27
ENDBRANCH  23  24
ENDBRANCH  22  23
ENDBRANCH  19  22
ENDBRANCH  12  13
ENDBRANCH  11  12
ENDBRANCH   9  10
ENDBRANCH   8   9
ENDBRANCH   7   8
ENDBRANCH   5   7
ENDBRANCH   4   5
ENDBRANCH   2   4
TORSDOF 14
ENDMDL
MODEL      249
REMARK 921   NORMALIZED FREE ENERGY PREDICTED BY IDOCK:   -3.72 KCAL/MOL
REMARK 922        TOTAL FREE ENERGY PREDICTED BY IDOCK:  -10.06 KCAL/MOL
REMARK 923 INTER-LIGAND FREE ENERGY PREDICTED BY IDOCK:   -7.80 KCAL/MOL
REMARK 924 INTRA-LIGAND FREE ENERGY PREDICTED BY IDOCK:   -2.26 KCAL/MOL
REMARK 927      BINDING AFFINITY PREDICTED BY RF-SCORE:    0.00 PKD
ROOT
HETATM    1  C   UNL     1      -8.933   3.413  70.596  1.00  0.00    -0.165 C  
HETATM    2  C   UNL     1      -7.905   4.527  70.760  1.00  0.00    -0.064 C  
HETATM    3  C   UNL     1      -7.126   4.738  69.469  1.00  0.00    -0.054 C  
ENDROOT
BRANCH   2   4
HETATM    4  O   UNL     1      -8.581   5.761  71.065  1.00  0.00    -0.127 OA 
BRANCH   4   5
HETATM    5  C   UNL     1      -8.396   6.226  72.334  1.00  0.00    -0.111 C  
HETATM    6  O   UNL     1      -7.527   5.843  73.108  1.00  0.00    -0.093 OA 
BRANCH   5   7
HETATM    7  C   UNL     1      -9.438   7.268  72.651  1.00  0.00    -0.186 C  
BRANCH   7   8
HETATM    8  C   UNL     1     -10.841   6.751  72.326  1.00  0.00    -0.263 C  
BRANCH   8   9
HETATM    9  C   UNL     1     -11.591   7.634  71.333  1.00  0.00    -0.300 C  
BRANCH   9  10
HETATM   10  C   UNL     1     -11.279   9.093  71.515  1.00  0.00    -0.430 C  
HETATM   11  C   UNL     1     -11.083   9.999  70.542  1.00  0.00    -0.400 C  
BRANCH  11  12
HETATM   12  C   UNL     1     -11.157   9.757  69.062  1.00  0.00    -0.143 C  
BRANCH  12  13
HETATM   13  C   UNL     1      -9.817   9.771  68.307  1.00  0.00    -0.167 C  
HETATM   14  C   UNL     1      -8.998   8.505  68.618  1.00  0.00    -0.139 C  
HETATM   15  C   UNL     1      -7.922   8.517  67.548  1.00  0.00    -0.106 C  
HETATM   16  O   UNL     1      -9.774   7.319  68.445  1.00  0.00    -0.145 OA 
HETATM   17  C   UNL     1      -8.681   8.933  66.293  1.00  0.00    -0.141 C  
HETATM   18  H   UNL     1      -9.269   6.538  68.637  1.00  0.00     0.000 HD 
HETATM   19  C   UNL     1      -9.912   9.755  66.760  1.00  0.00    -0.278 C  
HETATM   20  O   UNL     1      -9.136   7.778  65.590  1.00  0.00    -0.367 OA 
HETATM   21  H   UNL     1      -9.609   8.038  64.808  1.00  0.00     0.000 HD 
BRANCH  19  22
HETATM   22  C   UNL     1      -9.910  11.164  66.139  1.00  0.00    -0.265 C  
BRANCH  22  23
HETATM   23  C   UNL     1     -11.262  11.853  66.349  1.00  0.00    -0.387 C  
BRANCH  23  24
HETATM   24  C   UNL     1     -11.724  12.719  65.172  1.00  0.00    -0.360 C  
HETATM   25  O   UNL     1     -13.059  12.373  64.804  1.00  0.00    -0.806 OA 
HETATM   26  H   UNL     1     -13.346  12.910  64.075  1.00  0.00     0.000 HD 
BRANCH  24  27
HETATM   27  C   UNL     1     -11.728  14.211  65.542  1.00  0.00    -0.344 C  
BRANCH  27  28
HETATM   28  C   UNL     1     -11.436  14.457  67.022  1.00  0.00    -0.376 C  
BRANCH  28  29
HETATM   29  C   UNL     1     -10.243  15.351  67.227  1.00  0.00    -0.254 A  
HETATM   30  C   UNL     1      -8.974  14.937  66.799  1.00  0.00    -0.295 A  
HETATM   31  C   UNL     1      -7.866  15.762  66.980  1.00  0.00    -0.271 A  
HETATM   32  C   UNL     1      -8.015  17.003  67.596  1.00  0.00    -0.187 A  
HETATM   33  C   UNL     1      -9.272  17.418  68.034  1.00  0.00    -0.266 A  
HETATM   34  C   UNL     1     -10.383  16.594  67.852  1.00  0.00    -0.310 A  
ENDBRANCH  28  29
ENDBRANCH  27  28
ENDBRANCH  24  27
ENDBRANCH  23  24
ENDBRANCH  22  23
ENDBRANCH  19  22
ENDBRANCH  12  13
ENDBRANCH  11  12
ENDBRANCH   9  10
ENDBRANCH   8   9
ENDBRANCH   7   8
ENDBRANCH   5   7
ENDBRANCH   4   5
ENDBRANCH   2   4
TORSDOF 14
ENDMDL
MODEL      250
REMARK 921   NORMALIZED FREE ENERGY PREDICTED BY IDOCK:   -3.72 KCAL/MOL
REMARK 922        TOTAL FREE ENERGY PREDICTED BY IDOCK:  -10.05 KCAL/MOL
REMARK 923 INTER-LIGAND FREE ENERGY PREDICTED BY IDOCK:   -7.55 KCAL/MOL
REMARK 924 INTRA-LIGAND FREE ENERGY PREDICTED BY IDOCK:   -2.50 KCAL/MOL
REMARK 927      BINDING AFFINITY PREDICTED BY RF-SCORE:    0.00 PKD
ROOT
HETATM    1  C   UNL     1      -5.658  14.751  70.958  1.00  0.00    -0.121 C  
HETATM    2  C   UNL     1      -5.786  13.739  69.826  1.00  0.00    -0.115 C  
HETATM    3  C   UNL     1      -5.878  12.321  70.376  1.00  0.00    -0.152 C  
ENDROOT
BRANCH   2   4
HETATM    4  O   UNL     1      -6.995  13.996  69.088  1.00  0.00    -0.110 OA 
BRANCH   4   5
HETATM    5  C   UNL     1      -6.835  14.117  67.738  1.00  0.00    -0.176 C  
HETATM    6  O   UNL     1      -6.051  13.469  67.057  1.00  0.00    -0.113 OA 
BRANCH   5   7
HETATM    7  C   UNL     1      -7.756  15.189  67.212  1.00  0.00    -0.241 C  
BRANCH   7   8
HETATM    8  C   UNL     1      -8.822  15.548  68.249  1.00  0.00    -0.179 C  
BRANCH   8   9
HETATM    9  C   UNL     1     -10.242  15.508  67.689  1.00  0.00    -0.255 C  
BRANCH   9  10
HETATM   10  C   UNL     1     -10.263  15.455  66.187  1.00  0.00    -0.324 C  
HETATM   11  C   UNL     1     -10.931  14.573  65.425  1.00  0.00    -0.346 C  
BRANCH  11  12
HETATM   12  C   UNL     1     -11.823  13.464  65.907  1.00  0.00    -0.414 C  
BRANCH  12  13
HETATM   13  C   UNL     1     -11.151  12.093  66.100  1.00  0.00    -0.354 C  
HETATM   14  C   UNL     1     -10.735  11.490  64.746  1.00  0.00    -0.306 C  
HETATM   15  C   UNL     1      -9.801  10.362  65.142  1.00  0.00    -0.378 C  
HETATM   16  O   UNL     1      -9.990  12.421  63.961  1.00  0.00    -0.519 OA 
HETATM   17  C   UNL     1      -8.967  10.975  66.262  1.00  0.00    -0.185 C  
HETATM   18  H   UNL     1      -9.733  12.048  63.125  1.00  0.00     0.000 HD 
HETATM   19  C   UNL     1      -9.826  12.097  66.904  1.00  0.00    -0.213 C  
HETATM   20  O   UNL     1      -7.777  11.552  65.727  1.00  0.00    -0.352 OA 
HETATM   21  H   UNL     1      -7.258  11.934  66.425  1.00  0.00     0.000 HD 
BRANCH  19  22
HETATM   22  C   UNL     1     -10.031  11.851  68.410  1.00  0.00    -0.203 C  
BRANCH  22  23
HETATM   23  C   UNL     1     -11.270  10.984  68.655  1.00  0.00    -0.322 C  
BRANCH  23  24
HETATM   24  C   UNL     1     -10.997   9.689  69.429  1.00  0.00    -0.190 C  
HETATM   25  O   UNL     1     -11.259   8.559  68.598  1.00  0.00    -0.346 OA 
HETATM   26  H   UNL     1     -11.090   7.756  69.077  1.00  0.00     0.000 HD 
BRANCH  24  27
HETATM   27  C   UNL     1      -9.527   9.598  69.868  1.00  0.00    -0.260 C  
BRANCH  27  28
HETATM   28  C   UNL     1      -9.363   9.049  71.285  1.00  0.00    -0.324 C  
BRANCH  28  29
HETATM   29  C   UNL     1      -9.292   7.546  71.309  1.00  0.00    -0.157 A  
HETATM   30  C   UNL     1     -10.329   6.803  71.889  1.00  0.00    -0.217 A  
HETATM   31  C   UNL     1     -10.272   5.410  71.910  1.00  0.00    -0.258 A  
HETATM   32  C   UNL     1      -9.176   4.751  71.357  1.00  0.00    -0.188 A  
HETATM   33  C   UNL     1      -8.135   5.482  70.787  1.00  0.00    -0.113 A  
HETATM   34  C   UNL     1      -8.191   6.877  70.765  1.00  0.00    -0.122 A  
ENDBRANCH  28  29
ENDBRANCH  27  28
ENDBRANCH  24  27
ENDBRANCH  23  24
ENDBRANCH  22  23
ENDBRANCH  19  22
ENDBRANCH  12  13
ENDBRANCH  11  12
ENDBRANCH   9  10
ENDBRANCH   8   9
ENDBRANCH   7   8
ENDBRANCH   5   7
ENDBRANCH   4   5
ENDBRANCH   2   4
TORSDOF 14
ENDMDL
MODEL      251
REMARK 921   NORMALIZED FREE ENERGY PREDICTED BY IDOCK:   -3.71 KCAL/MOL
REMARK 922        TOTAL FREE ENERGY PREDICTED BY IDOCK:  -10.04 KCAL/MOL
REMARK 923 INTER-LIGAND FREE ENERGY PREDICTED BY IDOCK:   -7.99 KCAL/MOL
REMARK 924 INTRA-LIGAND FREE ENERGY PREDICTED BY IDOCK:   -2.04 KCAL/MOL
REMARK 927      BINDING AFFINITY PREDICTED BY RF-SCORE:    0.00 PKD
ROOT
HETATM    1  C   UNL     1     -10.927  17.792  67.488  1.00  0.00    -0.091 C  
HETATM    2  C   UNL     1      -9.918  18.735  66.843  1.00  0.00    -0.346 C  
HETATM    3  C   UNL     1     -10.603  19.665  65.851  1.00  0.00    -0.566 C  
ENDROOT
BRANCH   2   4
HETATM    4  O   UNL     1      -9.312  19.556  67.860  1.00  0.00    -0.314 OA 
BRANCH   4   5
HETATM    5  C   UNL     1      -7.970  19.757  67.719  1.00  0.00    -0.299 C  
HETATM    6  O   UNL     1      -7.453  20.706  67.144  1.00  0.00    -0.321 OA 
BRANCH   5   7
HETATM    7  C   UNL     1      -7.217  18.619  68.360  1.00  0.00    -0.300 C  
BRANCH   7   8
HETATM    8  C   UNL     1      -6.291  17.941  67.348  1.00  0.00    -0.175 C  
BRANCH   8   9
HETATM    9  C   UNL     1      -6.954  16.780  66.611  1.00  0.00    -0.268 C  
BRANCH   9  10
HETATM   10  C   UNL     1      -7.472  15.727  67.550  1.00  0.00    -0.198 C  
HETATM   11  C   UNL     1      -8.453  14.843  67.301  1.00  0.00    -0.229 C  
BRANCH  11  12
HETATM   12  C   UNL     1      -9.228  14.698  66.024  1.00  0.00    -0.139 C  
BRANCH  12  13
HETATM   13  C   UNL     1     -10.381  13.678  66.045  1.00  0.00    -0.305 C  
HETATM   14  C   UNL     1     -11.704  14.337  65.614  1.00  0.00    -0.358 C  
HETATM   15  C   UNL     1     -12.612  13.150  65.351  1.00  0.00    -0.512 C  
HETATM   16  O   UNL     1     -11.561  15.058  64.390  1.00  0.00    -0.596 OA 
HETATM   17  C   UNL     1     -11.700  12.168  64.623  1.00  0.00    -0.332 C  
HETATM   18  H   UNL     1     -12.377  15.465  64.125  1.00  0.00     0.000 HD 
HETATM   19  C   UNL     1     -10.247  12.487  65.063  1.00  0.00    -0.301 C  
HETATM   20  O   UNL     1     -11.808  12.352  63.213  1.00  0.00    -0.653 OA 
HETATM   21  H   UNL     1     -11.240  11.740  62.760  1.00  0.00     0.000 HD 
BRANCH  19  22
HETATM   22  C   UNL     1      -9.572  11.255  65.695  1.00  0.00    -0.260 C  
BRANCH  22  23
HETATM   23  C   UNL     1     -10.062  11.044  67.131  1.00  0.00    -0.227 C  
BRANCH  23  24
HETATM   24  C   UNL     1      -9.858   9.623  67.670  1.00  0.00    -0.164 C  
HETATM   25  O   UNL     1     -11.057   8.863  67.511  1.00  0.00    -0.461 OA 
HETATM   26  H   UNL     1     -10.930   7.983  67.844  1.00  0.00     0.000 HD 
BRANCH  24  27
HETATM   27  C   UNL     1      -8.749   8.886  66.902  1.00  0.00    -0.128 C  
BRANCH  27  28
HETATM   28  C   UNL     1      -7.371   9.520  67.094  1.00  0.00    -0.088 C  
BRANCH  28  29
HETATM   29  C   UNL     1      -6.937   9.514  68.535  1.00  0.00    -0.065 A  
HETATM   30  C   UNL     1      -6.677  10.723  69.194  1.00  0.00    -0.074 A  
HETATM   31  C   UNL     1      -6.279  10.725  70.530  1.00  0.00    -0.086 A  
HETATM   32  C   UNL     1      -6.134   9.521  71.215  1.00  0.00    -0.057 A  
HETATM   33  C   UNL     1      -6.381   8.313  70.564  1.00  0.00    -0.036 A  
HETATM   34  C   UNL     1      -6.780   8.309  69.226  1.00  0.00    -0.043 A  
ENDBRANCH  28  29
ENDBRANCH  27  28
ENDBRANCH  24  27
ENDBRANCH  23  24
ENDBRANCH  22  23
ENDBRANCH  19  22
ENDBRANCH  12  13
ENDBRANCH  11  12
ENDBRANCH   9  10
ENDBRANCH   8   9
ENDBRANCH   7   8
ENDBRANCH   5   7
ENDBRANCH   4   5
ENDBRANCH   2   4
TORSDOF 14
ENDMDL
MODEL      252
REMARK 921   NORMALIZED FREE ENERGY PREDICTED BY IDOCK:   -3.68 KCAL/MOL
REMARK 922        TOTAL FREE ENERGY PREDICTED BY IDOCK:   -9.99 KCAL/MOL
REMARK 923 INTER-LIGAND FREE ENERGY PREDICTED BY IDOCK:   -7.09 KCAL/MOL
REMARK 924 INTRA-LIGAND FREE ENERGY PREDICTED BY IDOCK:   -2.90 KCAL/MOL
REMARK 927      BINDING AFFINITY PREDICTED BY RF-SCORE:    0.00 PKD
ROOT
HETATM    1  C   UNL     1      -5.331   7.251  70.049  1.00  0.00    -0.023 C  
HETATM    2  C   UNL     1      -6.469   6.329  70.473  1.00  0.00    -0.044 C  
HETATM    3  C   UNL     1      -6.688   5.230  69.441  1.00  0.00    -0.052 C  
ENDROOT
BRANCH   2   4
HETATM    4  O   UNL     1      -6.131   5.692  71.719  1.00  0.00    -0.032 OA 
BRANCH   4   5
HETATM    5  C   UNL     1      -6.689   6.257  72.829  1.00  0.00    -0.066 C  
HETATM    6  O   UNL     1      -6.090   6.934  73.655  1.00  0.00    -0.061 OA 
BRANCH   5   7
HETATM    7  C   UNL     1      -8.152   5.903  72.898  1.00  0.00    -0.114 C  
BRANCH   7   8
HETATM    8  C   UNL     1      -8.944   6.997  73.617  1.00  0.00    -0.188 C  
BRANCH   8   9
HETATM    9  C   UNL     1     -10.265   6.500  74.198  1.00  0.00    -0.380 C  
BRANCH   9  10
HETATM   10  C   UNL     1     -10.852   5.371  73.399  1.00  0.00    -0.347 C  
HETATM   11  C   UNL     1     -11.826   5.462  72.478  1.00  0.00    -0.110 C  
BRANCH  11  12
HETATM   12  C   UNL     1     -12.521   6.714  72.027  1.00  0.00    -0.288 C  
BRANCH  12  13
HETATM   13  C   UNL     1     -11.963   7.375  70.754  1.00  0.00    -0.261 C  
HETATM   14  C   UNL     1     -11.776   8.890  70.958  1.00  0.00    -0.289 C  
HETATM   15  C   UNL     1     -10.912   9.294  69.779  1.00  0.00    -0.213 C  
HETATM   16  O   UNL     1     -11.049   9.175  72.153  1.00  0.00    -0.316 OA 
HETATM   17  C   UNL     1      -9.892   8.164  69.690  1.00  0.00    -0.184 C  
HETATM   18  H   UNL     1     -10.934  10.110  72.279  1.00  0.00     0.000 HD 
HETATM   19  C   UNL     1     -10.555   6.905  70.310  1.00  0.00    -0.246 C  
HETATM   20  O   UNL     1      -8.727   8.494  70.445  1.00  0.00    -0.136 OA 
HETATM   21  H   UNL     1      -8.092   7.789  70.389  1.00  0.00     0.000 HD 
BRANCH  19  22
HETATM   22  C   UNL     1     -10.594   5.742  69.302  1.00  0.00    -0.376 C  
BRANCH  22  23
HETATM   23  C   UNL     1     -10.788   6.264  67.876  1.00  0.00    -0.417 C  
BRANCH  23  24
HETATM   24  C   UNL     1     -10.230   5.347  66.781  1.00  0.00    -0.241 C  
HETATM   25  O   UNL     1     -11.251   5.041  65.832  1.00  0.00    -0.762 OA 
HETATM   26  H   UNL     1     -10.906   4.473  65.154  1.00  0.00     0.000 HD 
BRANCH  24  27
HETATM   27  C   UNL     1      -9.084   6.024  66.013  1.00  0.00    -0.143 C  
BRANCH  27  28
HETATM   28  C   UNL     1      -8.671   7.364  66.621  1.00  0.00    -0.141 C  
BRANCH  28  29
HETATM   29  C   UNL     1      -9.019   8.525  65.729  1.00  0.00    -0.229 A  
HETATM   30  C   UNL     1      -8.407   8.654  64.474  1.00  0.00    -0.157 A  
HETATM   31  C   UNL     1      -8.728   9.725  63.641  1.00  0.00    -0.235 A  
HETATM   32  C   UNL     1      -9.657  10.676  64.057  1.00  0.00    -0.351 A  
HETATM   33  C   UNL     1     -10.263  10.561  65.308  1.00  0.00    -0.352 A  
HETATM   34  C   UNL     1      -9.943   9.490  66.143  1.00  0.00    -0.342 A  
ENDBRANCH  28  29
ENDBRANCH  27  28
ENDBRANCH  24  27
ENDBRANCH  23  24
ENDBRANCH  22  23
ENDBRANCH  19  22
ENDBRANCH  12  13
ENDBRANCH  11  12
ENDBRANCH   9  10
ENDBRANCH   8   9
ENDBRANCH   7   8
ENDBRANCH   5   7
ENDBRANCH   4   5
ENDBRANCH   2   4
TORSDOF 14
ENDMDL
MODEL      253
REMARK 921   NORMALIZED FREE ENERGY PREDICTED BY IDOCK:   -3.67 KCAL/MOL
REMARK 922        TOTAL FREE ENERGY PREDICTED BY IDOCK:   -9.97 KCAL/MOL
REMARK 923 INTER-LIGAND FREE ENERGY PREDICTED BY IDOCK:   -8.56 KCAL/MOL
REMARK 924 INTRA-LIGAND FREE ENERGY PREDICTED BY IDOCK:   -1.41 KCAL/MOL
REMARK 927      BINDING AFFINITY PREDICTED BY RF-SCORE:    0.00 PKD
ROOT
HETATM    1  C   UNL     1     -12.001   8.385  72.614  1.00  0.00    -0.346 C  
HETATM    2  C   UNL     1     -11.246   8.773  71.348  1.00  0.00    -0.292 C  
HETATM    3  C   UNL     1      -9.765   8.969  71.640  1.00  0.00    -0.347 C  
ENDROOT
BRANCH   2   4
HETATM    4  O   UNL     1     -11.360   7.715  70.378  1.00  0.00    -0.272 OA 
BRANCH   4   5
HETATM    5  C   UNL     1     -10.834   6.517  70.763  1.00  0.00    -0.261 C  
HETATM    6  O   UNL     1     -11.203   5.858  71.728  1.00  0.00    -0.271 OA 
BRANCH   5   7
HETATM    7  C   UNL     1      -9.711   6.133  69.834  1.00  0.00    -0.193 C  
BRANCH   7   8
HETATM    8  C   UNL     1      -9.968   4.762  69.206  1.00  0.00    -0.254 C  
BRANCH   8   9
HETATM    9  C   UNL     1     -10.306   4.836  67.719  1.00  0.00    -0.012 C  
BRANCH   9  10
HETATM   10  C   UNL     1     -10.876   6.170  67.328  1.00  0.00    -0.438 C  
HETATM   11  C   UNL     1     -10.259   7.130  66.618  1.00  0.00    -0.224 C  
BRANCH  11  12
HETATM   12  C   UNL     1      -8.874   7.069  66.040  1.00  0.00    -0.155 C  
BRANCH  12  13
HETATM   13  C   UNL     1      -8.073   8.382  66.066  1.00  0.00    -0.104 C  
HETATM   14  C   UNL     1      -7.572   8.748  64.657  1.00  0.00    -0.109 C  
HETATM   15  C   UNL     1      -7.140  10.194  64.808  1.00  0.00    -0.129 C  
HETATM   16  O   UNL     1      -8.626   8.704  63.695  1.00  0.00    -0.390 OA 
HETATM   17  C   UNL     1      -8.245  10.802  65.665  1.00  0.00    -0.127 C  
HETATM   18  H   UNL     1      -8.317   8.930  62.825  1.00  0.00     0.000 HD 
HETATM   19  C   UNL     1      -8.861   9.646  66.497  1.00  0.00    -0.158 C  
HETATM   20  O   UNL     1      -9.258  11.364  64.833  1.00  0.00    -0.360 OA 
HETATM   21  H   UNL     1      -9.946  11.743  65.367  1.00  0.00     0.000 HD 
BRANCH  19  22
HETATM   22  C   UNL     1      -8.767   9.932  68.007  1.00  0.00    -0.125 C  
BRANCH  22  23
HETATM   23  C   UNL     1      -9.571  11.183  68.374  1.00  0.00    -0.192 C  
BRANCH  23  24
HETATM   24  C   UNL     1     -11.005  11.198  67.831  1.00  0.00    -0.253 C  
HETATM   25  O   UNL     1     -11.765  10.148  68.429  1.00  0.00    -0.638 OA 
HETATM   26  H   UNL     1     -12.653  10.157  68.093  1.00  0.00     0.000 HD 
BRANCH  24  27
HETATM   27  C   UNL     1     -11.716  12.519  68.163  1.00  0.00    -0.400 C  
BRANCH  27  28
HETATM   28  C   UNL     1     -12.038  13.350  66.921  1.00  0.00    -0.406 C  
BRANCH  28  29
HETATM   29  C   UNL     1     -11.428  14.724  66.981  1.00  0.00    -0.362 A  
HETATM   30  C   UNL     1     -11.425  15.439  68.186  1.00  0.00    -0.352 A  
HETATM   31  C   UNL     1     -10.856  16.710  68.249  1.00  0.00    -0.356 A  
HETATM   32  C   UNL     1     -10.293  17.278  67.109  1.00  0.00    -0.321 A  
HETATM   33  C   UNL     1     -10.300  16.578  65.903  1.00  0.00    -0.365 A  
HETATM   34  C   UNL     1     -10.868  15.305  65.838  1.00  0.00    -0.345 A  
ENDBRANCH  28  29
ENDBRANCH  27  28
ENDBRANCH  24  27
ENDBRANCH  23  24
ENDBRANCH  22  23
ENDBRANCH  19  22
ENDBRANCH  12  13
ENDBRANCH  11  12
ENDBRANCH   9  10
ENDBRANCH   8   9
ENDBRANCH   7   8
ENDBRANCH   5   7
ENDBRANCH   4   5
ENDBRANCH   2   4
TORSDOF 14
ENDMDL
MODEL      254
REMARK 921   NORMALIZED FREE ENERGY PREDICTED BY IDOCK:   -3.66 KCAL/MOL
REMARK 922        TOTAL FREE ENERGY PREDICTED BY IDOCK:   -9.95 KCAL/MOL
REMARK 923 INTER-LIGAND FREE ENERGY PREDICTED BY IDOCK:   -8.23 KCAL/MOL
REMARK 924 INTRA-LIGAND FREE ENERGY PREDICTED BY IDOCK:   -1.72 KCAL/MOL
REMARK 927      BINDING AFFINITY PREDICTED BY RF-SCORE:    0.00 PKD
ROOT
HETATM    1  C   UNL     1      -7.544  13.167  67.630  1.00  0.00    -0.171 C  
HETATM    2  C   UNL     1      -7.977  14.628  67.630  1.00  0.00    -0.179 C  
HETATM    3  C   UNL     1      -6.777  15.548  67.445  1.00  0.00    -0.200 C  
ENDROOT
BRANCH   2   4
HETATM    4  O   UNL     1      -8.875  14.862  66.529  1.00  0.00    -0.266 OA 
BRANCH   4   5
HETATM    5  C   UNL     1      -9.626  15.997  66.624  1.00  0.00    -0.239 C  
HETATM    6  O   UNL     1      -9.870  16.763  65.700  1.00  0.00    -0.544 OA 
BRANCH   5   7
HETATM    7  C   UNL     1     -10.091  16.182  68.046  1.00  0.00    -0.242 C  
BRANCH   7   8
HETATM    8  C   UNL     1     -10.919  14.981  68.507  1.00  0.00    -0.259 C  
BRANCH   8   9
HETATM    9  C   UNL     1     -11.848  14.440  67.424  1.00  0.00    -0.430 C  
BRANCH   9  10
HETATM   10  C   UNL     1     -12.090  12.963  67.562  1.00  0.00    -0.251 C  
HETATM   11  C   UNL     1     -11.523  11.986  66.835  1.00  0.00    -0.402 C  
BRANCH  11  12
HETATM   12  C   UNL     1     -10.505  12.154  65.744  1.00  0.00    -0.287 C  
BRANCH  12  13
HETATM   13  C   UNL     1     -10.100  10.873  64.995  1.00  0.00    -0.362 C  
HETATM   14  C   UNL     1     -10.123  11.097  63.471  1.00  0.00    -0.385 C  
HETATM   15  C   UNL     1      -9.373   9.893  62.933  1.00  0.00    -0.232 C  
HETATM   16  O   UNL     1      -9.396  12.268  63.099  1.00  0.00    -0.601 OA 
HETATM   17  C   UNL     1      -8.207   9.745  63.904  1.00  0.00    -0.159 C  
HETATM   18  H   UNL     1      -9.410  12.406  62.159  1.00  0.00     0.000 HD 
HETATM   19  C   UNL     1      -8.657  10.367  65.252  1.00  0.00    -0.184 C  
HETATM   20  O   UNL     1      -7.072  10.460  63.420  1.00  0.00    -0.252 OA 
HETATM   21  H   UNL     1      -6.345  10.368  64.025  1.00  0.00     0.000 HD 
BRANCH  19  22
HETATM   22  C   UNL     1      -8.571   9.341  66.397  1.00  0.00    -0.141 C  
BRANCH  22  23
HETATM   23  C   UNL     1      -9.816   8.449  66.423  1.00  0.00    -0.310 C  
BRANCH  23  24
HETATM   24  C   UNL     1     -10.000   7.652  67.719  1.00  0.00    -0.174 C  
HETATM   25  O   UNL     1     -11.335   7.154  67.801  1.00  0.00    -0.514 OA 
HETATM   26  H   UNL     1     -11.449   6.659  68.604  1.00  0.00     0.000 HD 
BRANCH  24  27
HETATM   27  C   UNL     1      -9.059   6.438  67.769  1.00  0.00    -0.111 C  
BRANCH  27  28
HETATM   28  C   UNL     1      -9.807   5.111  67.896  1.00  0.00    -0.199 C  
BRANCH  28  29
HETATM   29  C   UNL     1      -9.688   4.268  66.655  1.00  0.00    -0.239 A  
HETATM   30  C   UNL     1      -8.787   3.195  66.619  1.00  0.00    -0.153 A  
HETATM   31  C   UNL     1      -8.675   2.407  65.474  1.00  0.00    -0.120 A  
HETATM   32  C   UNL     1      -9.457   2.689  64.356  1.00  0.00    -0.145 A  
HETATM   33  C   UNL     1     -10.348   3.761  64.380  1.00  0.00    -0.235 A  
HETATM   34  C   UNL     1     -10.462   4.551  65.525  1.00  0.00    -0.241 A  
ENDBRANCH  28  29
ENDBRANCH  27  28
ENDBRANCH  24  27
ENDBRANCH  23  24
ENDBRANCH  22  23
ENDBRANCH  19  22
ENDBRANCH  12  13
ENDBRANCH  11  12
ENDBRANCH   9  10
ENDBRANCH   8   9
ENDBRANCH   7   8
ENDBRANCH   5   7
ENDBRANCH   4   5
ENDBRANCH   2   4
TORSDOF 14
ENDMDL
MODEL      255
REMARK 921   NORMALIZED FREE ENERGY PREDICTED BY IDOCK:   -3.65 KCAL/MOL
REMARK 922        TOTAL FREE ENERGY PREDICTED BY IDOCK:   -9.94 KCAL/MOL
REMARK 923 INTER-LIGAND FREE ENERGY PREDICTED BY IDOCK:   -8.78 KCAL/MOL
REMARK 924 INTRA-LIGAND FREE ENERGY PREDICTED BY IDOCK:   -1.16 KCAL/MOL
REMARK 927      BINDING AFFINITY PREDICTED BY RF-SCORE:    0.00 PKD
ROOT
HETATM    1  C   UNL     1     -13.669   7.299  71.682  1.00  0.00    -0.446 C  
HETATM    2  C   UNL     1     -12.486   8.069  71.105  1.00  0.00    -0.192 C  
HETATM    3  C   UNL     1     -12.341   9.425  71.784  1.00  0.00    -0.471 C  
ENDROOT
BRANCH   2   4
HETATM    4  O   UNL     1     -11.273   7.332  71.345  1.00  0.00    -0.242 OA 
BRANCH   4   5
HETATM    5  C   UNL     1     -10.594   7.686  72.475  1.00  0.00    -0.281 C  
HETATM    6  O   UNL     1     -10.939   7.423  73.620  1.00  0.00    -0.306 OA 
BRANCH   5   7
HETATM    7  C   UNL     1      -9.362   8.471  72.102  1.00  0.00    -0.353 C  
BRANCH   7   8
HETATM    8  C   UNL     1      -8.326   7.570  71.428  1.00  0.00    -0.108 C  
BRANCH   8   9
HETATM    9  C   UNL     1      -7.989   8.004  70.003  1.00  0.00    -0.106 C  
BRANCH   9  10
HETATM   10  C   UNL     1      -7.347   9.362  69.956  1.00  0.00    -0.101 C  
HETATM   11  C   UNL     1      -7.882  10.484  69.445  1.00  0.00    -0.151 C  
BRANCH  11  12
HETATM   12  C   UNL     1      -9.245  10.631  68.833  1.00  0.00    -0.189 C  
BRANCH  12  13
HETATM   13  C   UNL     1      -9.417  11.792  67.838  1.00  0.00    -0.191 C  
HETATM   14  C   UNL     1      -9.413  11.276  66.387  1.00  0.00    -0.200 C  
HETATM   15  C   UNL     1      -9.940  12.459  65.597  1.00  0.00    -0.261 C  
HETATM   16  O   UNL     1     -10.324  10.190  66.211  1.00  0.00    -0.226 OA 
HETATM   17  C   UNL     1     -11.077  12.982  66.469  1.00  0.00    -0.288 C  
HETATM   18  H   UNL     1     -10.321   9.872  65.315  1.00  0.00     0.000 HD 
HETATM   19  C   UNL     1     -10.756  12.568  67.929  1.00  0.00    -0.239 C  
HETATM   20  O   UNL     1     -12.311  12.383  66.078  1.00  0.00    -0.627 OA 
HETATM   21  H   UNL     1     -13.019  12.709  66.621  1.00  0.00     0.000 HD 
BRANCH  19  22
HETATM   22  C   UNL     1     -10.682  13.796  68.855  1.00  0.00    -0.249 C  
BRANCH  22  23
HETATM   23  C   UNL     1     -11.849  14.751  68.586  1.00  0.00    -0.334 C  
BRANCH  23  24
HETATM   24  C   UNL     1     -11.453  16.229  68.497  1.00  0.00    -0.272 C  
HETATM   25  O   UNL     1     -11.225  16.754  69.805  1.00  0.00    -0.362 OA 
HETATM   26  H   UNL     1     -10.980  17.670  69.750  1.00  0.00     0.000 HD 
BRANCH  24  27
HETATM   27  C   UNL     1     -10.152  16.414  67.701  1.00  0.00    -0.263 C  
BRANCH  27  28
HETATM   28  C   UNL     1     -10.076  17.766  66.991  1.00  0.00    -0.337 C  
BRANCH  28  29
HETATM   29  C   UNL     1      -8.894  18.580  67.442  1.00  0.00    -0.276 A  
HETATM   30  C   UNL     1      -8.746  19.904  67.006  1.00  0.00    -0.402 A  
HETATM   31  C   UNL     1      -7.657  20.666  67.423  1.00  0.00    -0.375 A  
HETATM   32  C   UNL     1      -6.704  20.110  68.274  1.00  0.00    -0.336 A  
HETATM   33  C   UNL     1      -6.837  18.791  68.705  1.00  0.00    -0.294 A  
HETATM   34  C   UNL     1      -7.928  18.027  68.288  1.00  0.00    -0.294 A  
ENDBRANCH  28  29
ENDBRANCH  27  28
ENDBRANCH  24  27
ENDBRANCH  23  24
ENDBRANCH  22  23
ENDBRANCH  19  22
ENDBRANCH  12  13
ENDBRANCH  11  12
ENDBRANCH   9  10
ENDBRANCH   8   9
ENDBRANCH   7   8
ENDBRANCH   5   7
ENDBRANCH   4   5
ENDBRANCH   2   4
TORSDOF 14
ENDMDL
MODEL      256
REMARK 921   NORMALIZED FREE ENERGY PREDICTED BY IDOCK:   -3.64 KCAL/MOL
REMARK 922        TOTAL FREE ENERGY PREDICTED BY IDOCK:   -9.91 KCAL/MOL
REMARK 923 INTER-LIGAND FREE ENERGY PREDICTED BY IDOCK:   -8.38 KCAL/MOL
REMARK 924 INTRA-LIGAND FREE ENERGY PREDICTED BY IDOCK:   -1.53 KCAL/MOL
REMARK 927      BINDING AFFINITY PREDICTED BY RF-SCORE:    0.00 PKD
ROOT
HETATM    1  C   UNL     1     -13.125  10.905  71.640  1.00  0.00    -0.538 C  
HETATM    2  C   UNL     1     -12.940   9.412  71.889  1.00  0.00    -0.417 C  
HETATM    3  C   UNL     1     -14.261   8.671  71.736  1.00  0.00    -0.490 C  
ENDROOT
BRANCH   2   4
HETATM    4  O   UNL     1     -12.026   8.874  70.915  1.00  0.00    -0.282 OA 
BRANCH   4   5
HETATM    5  C   UNL     1     -10.816   8.484  71.410  1.00  0.00    -0.260 C  
HETATM    6  O   UNL     1      -9.771   9.113  71.302  1.00  0.00    -0.283 OA 
BRANCH   5   7
HETATM    7  C   UNL     1     -10.952   7.146  72.092  1.00  0.00    -0.274 C  
BRANCH   7   8
HETATM    8  C   UNL     1     -10.932   6.009  71.069  1.00  0.00    -0.350 C  
BRANCH   8   9
HETATM    9  C   UNL     1      -9.551   5.771  70.463  1.00  0.00    -0.214 C  
BRANCH   9  10
HETATM   10  C   UNL     1      -9.458   4.450  69.753  1.00  0.00    -0.254 C  
HETATM   11  C   UNL     1      -9.541   4.244  68.427  1.00  0.00    -0.197 C  
BRANCH  11  12
HETATM   12  C   UNL     1      -9.719   5.290  67.365  1.00  0.00    -0.162 C  
BRANCH  12  13
HETATM   13  C   UNL     1      -8.549   5.461  66.382  1.00  0.00    -0.119 C  
HETATM   14  C   UNL     1      -8.291   4.157  65.604  1.00  0.00    -0.109 C  
HETATM   15  C   UNL     1      -7.386   4.603  64.471  1.00  0.00    -0.070 C  
HETATM   16  O   UNL     1      -9.491   3.640  65.029  1.00  0.00    -0.147 OA 
HETATM   17  C   UNL     1      -8.005   5.925  64.029  1.00  0.00    -0.121 C  
HETATM   18  H   UNL     1      -9.332   2.835  64.549  1.00  0.00     0.000 HD 
HETATM   19  C   UNL     1      -8.759   6.504  65.255  1.00  0.00     0.031 C  
HETATM   20  O   UNL     1      -8.939   5.701  62.975  1.00  0.00    -0.341 OA 
HETATM   21  H   UNL     1      -9.325   6.525  62.700  1.00  0.00     0.000 HD 
BRANCH  19  22
HETATM   22  C   UNL     1      -8.235   7.905  65.622  1.00  0.00    -0.137 C  
BRANCH  22  23
HETATM   23  C   UNL     1      -7.619   8.592  64.400  1.00  0.00    -0.115 C  
BRANCH  23  24
HETATM   24  C   UNL     1      -8.014  10.064  64.231  1.00  0.00    -0.152 C  
HETATM   25  O   UNL     1      -7.340  10.625  63.104  1.00  0.00    -0.323 OA 
HETATM   26  H   UNL     1      -7.586  11.536  62.999  1.00  0.00     0.000 HD 
BRANCH  24  27
HETATM   27  C   UNL     1      -9.522  10.213  63.978  1.00  0.00    -0.341 C  
BRANCH  27  28
HETATM   28  C   UNL     1      -9.891  11.560  63.356  1.00  0.00    -0.422 C  
BRANCH  28  29
HETATM   29  C   UNL     1     -10.629  12.450  64.319  1.00  0.00    -0.391 A  
HETATM   30  C   UNL     1      -9.995  12.902  65.484  1.00  0.00    -0.226 A  
HETATM   31  C   UNL     1     -10.671  13.731  66.378  1.00  0.00    -0.281 A  
HETATM   32  C   UNL     1     -11.987  14.109  66.117  1.00  0.00    -0.437 A  
HETATM   33  C   UNL     1     -12.629  13.655  64.966  1.00  0.00    -0.434 A  
HETATM   34  C   UNL     1     -11.953  12.826  64.069  1.00  0.00    -0.522 A  
ENDBRANCH  28  29
ENDBRANCH  27  28
ENDBRANCH  24  27
ENDBRANCH  23  24
ENDBRANCH  22  23
ENDBRANCH  19  22
ENDBRANCH  12  13
ENDBRANCH  11  12
ENDBRANCH   9  10
ENDBRANCH   8   9
ENDBRANCH   7   8
ENDBRANCH   5   7
ENDBRANCH   4   5
ENDBRANCH   2   4
TORSDOF 14
ENDMDL
MODEL      257
REMARK 921   NORMALIZED FREE ENERGY PREDICTED BY IDOCK:   -3.64 KCAL/MOL
REMARK 922        TOTAL FREE ENERGY PREDICTED BY IDOCK:   -9.91 KCAL/MOL
REMARK 923 INTER-LIGAND FREE ENERGY PREDICTED BY IDOCK:   -8.13 KCAL/MOL
REMARK 924 INTRA-LIGAND FREE ENERGY PREDICTED BY IDOCK:   -1.78 KCAL/MOL
REMARK 927      BINDING AFFINITY PREDICTED BY RF-SCORE:    0.00 PKD
ROOT
HETATM    1  C   UNL     1     -10.236   9.029  70.120  1.00  0.00    -0.224 C  
HETATM    2  C   UNL     1      -8.841   8.426  70.237  1.00  0.00    -0.142 C  
HETATM    3  C   UNL     1      -8.870   6.934  69.931  1.00  0.00    -0.142 C  
ENDROOT
BRANCH   2   4
HETATM    4  O   UNL     1      -7.968   9.048  69.276  1.00  0.00    -0.092 OA 
BRANCH   4   5
HETATM    5  C   UNL     1      -7.177  10.043  69.770  1.00  0.00    -0.127 C  
HETATM    6  O   UNL     1      -6.863  10.180  70.946  1.00  0.00    -0.338 OA 
BRANCH   5   7
HETATM    7  C   UNL     1      -6.763  10.966  68.652  1.00  0.00    -0.059 C  
BRANCH   7   8
HETATM    8  C   UNL     1      -6.007  12.179  69.199  1.00  0.00    -0.075 C  
BRANCH   8   9
HETATM    9  C   UNL     1      -6.768  13.490  69.024  1.00  0.00    -0.112 C  
BRANCH   9  10
HETATM   10  C   UNL     1      -6.314  14.259  67.816  1.00  0.00    -0.168 C  
HETATM   11  C   UNL     1      -6.109  15.585  67.738  1.00  0.00    -0.175 C  
BRANCH  11  12
HETATM   12  C   UNL     1      -6.266  16.584  68.849  1.00  0.00    -0.149 C  
BRANCH  12  13
HETATM   13  C   UNL     1      -7.402  17.608  68.681  1.00  0.00    -0.257 C  
HETATM   14  C   UNL     1      -6.879  19.044  68.869  1.00  0.00    -0.314 C  
HETATM   15  C   UNL     1      -8.010  19.898  68.328  1.00  0.00    -0.282 C  
HETATM   16  O   UNL     1      -5.721  19.292  68.071  1.00  0.00    -0.193 OA 
HETATM   17  C   UNL     1      -8.443  19.148  67.072  1.00  0.00    -0.285 C  
HETATM   18  H   UNL     1      -5.399  20.178  68.188  1.00  0.00     0.000 HD 
HETATM   19  C   UNL     1      -8.066  17.657  67.282  1.00  0.00    -0.222 C  
HETATM   20  O   UNL     1      -7.742  19.648  65.936  1.00  0.00    -0.321 OA 
HETATM   21  H   UNL     1      -8.012  19.181  65.154  1.00  0.00     0.000 HD 
BRANCH  19  22
HETATM   22  C   UNL     1      -9.302  16.746  67.165  1.00  0.00    -0.236 C  
BRANCH  22  23
HETATM   23  C   UNL     1     -10.403  17.199  68.129  1.00  0.00    -0.350 C  
BRANCH  23  24
HETATM   24  C   UNL     1     -10.275  16.636  69.550  1.00  0.00    -0.191 C  
HETATM   25  O   UNL     1     -11.406  17.021  70.331  1.00  0.00    -0.301 OA 
HETATM   26  H   UNL     1     -11.327  16.672  71.211  1.00  0.00     0.000 HD 
BRANCH  24  27
HETATM   27  C   UNL     1     -10.230  15.100  69.541  1.00  0.00    -0.241 C  
BRANCH  27  28
HETATM   28  C   UNL     1     -11.540  14.470  69.067  1.00  0.00    -0.330 C  
BRANCH  28  29
HETATM   29  C   UNL     1     -12.147  13.568  70.107  1.00  0.00    -0.425 A  
HETATM   30  C   UNL     1     -12.934  14.109  71.133  1.00  0.00    -0.419 A  
HETATM   31  C   UNL     1     -13.504  13.278  72.097  1.00  0.00    -0.655 A  
HETATM   32  C   UNL     1     -13.288  11.903  72.046  1.00  0.00    -0.425 A  
HETATM   33  C   UNL     1     -12.499  11.357  71.034  1.00  0.00    -0.486 A  
HETATM   34  C   UNL     1     -11.928  12.187  70.068  1.00  0.00    -0.391 A  
ENDBRANCH  28  29
ENDBRANCH  27  28
ENDBRANCH  24  27
ENDBRANCH  23  24
ENDBRANCH  22  23
ENDBRANCH  19  22
ENDBRANCH  12  13
ENDBRANCH  11  12
ENDBRANCH   9  10
ENDBRANCH   8   9
ENDBRANCH   7   8
ENDBRANCH   5   7
ENDBRANCH   4   5
ENDBRANCH   2   4
TORSDOF 14
ENDMDL
MODEL      258
REMARK 921   NORMALIZED FREE ENERGY PREDICTED BY IDOCK:   -3.60 KCAL/MOL
REMARK 922        TOTAL FREE ENERGY PREDICTED BY IDOCK:   -9.84 KCAL/MOL
REMARK 923 INTER-LIGAND FREE ENERGY PREDICTED BY IDOCK:   -6.70 KCAL/MOL
REMARK 924 INTRA-LIGAND FREE ENERGY PREDICTED BY IDOCK:   -3.13 KCAL/MOL
REMARK 927      BINDING AFFINITY PREDICTED BY RF-SCORE:    0.00 PKD
ROOT
HETATM    1  C   UNL     1      -5.779   6.226  70.640  1.00  0.00    -0.019 C  
HETATM    2  C   UNL     1      -6.876   5.534  69.838  1.00  0.00    -0.060 C  
HETATM    3  C   UNL     1      -7.052   6.198  68.478  1.00  0.00    -0.082 C  
ENDROOT
BRANCH   2   4
HETATM    4  O   UNL     1      -6.506   4.162  69.606  1.00  0.00    -0.031 OA 
BRANCH   4   5
HETATM    5  C   UNL     1      -6.542   3.357  70.707  1.00  0.00    -0.032 C  
HETATM    6  O   UNL     1      -5.579   2.777  71.192  1.00  0.00    -0.011 OA 
BRANCH   5   7
HETATM    7  C   UNL     1      -7.955   3.271  71.226  1.00  0.00    -0.059 C  
BRANCH   7   8
HETATM    8  C   UNL     1      -8.025   3.717  72.688  1.00  0.00    -0.073 C  
BRANCH   8   9
HETATM    9  C   UNL     1      -8.862   2.785  73.560  1.00  0.00    -0.075 C  
BRANCH   9  10
HETATM   10  C   UNL     1     -10.316   2.797  73.180  1.00  0.00    -0.234 C  
HETATM   11  C   UNL     1     -11.137   3.861  73.184  1.00  0.00    -0.215 C  
BRANCH  11  12
HETATM   12  C   UNL     1     -10.776   5.273  73.545  1.00  0.00    -0.337 C  
BRANCH  12  13
HETATM   13  C   UNL     1     -11.078   6.341  72.480  1.00  0.00    -0.307 C  
HETATM   14  C   UNL     1     -10.954   7.757  73.071  1.00  0.00    -0.381 C  
HETATM   15  C   UNL     1     -10.925   8.645  71.841  1.00  0.00    -0.412 C  
HETATM   16  O   UNL     1      -9.720   7.932  73.767  1.00  0.00    -0.320 OA 
HETATM   17  C   UNL     1     -10.020   7.881  70.880  1.00  0.00    -0.182 C  
HETATM   18  H   UNL     1      -9.644   8.806  74.132  1.00  0.00     0.000 HD 
HETATM   19  C   UNL     1     -10.109   6.381  71.270  1.00  0.00    -0.213 C  
HETATM   20  O   UNL     1      -8.671   8.318  71.025  1.00  0.00    -0.129 OA 
HETATM   21  H   UNL     1      -8.107   7.841  70.426  1.00  0.00     0.000 HD 
BRANCH  19  22
HETATM   22  C   UNL     1     -10.586   5.523  70.084  1.00  0.00    -0.367 C  
BRANCH  22  23
HETATM   23  C   UNL     1     -11.284   6.389  69.032  1.00  0.00    -0.402 C  
BRANCH  23  24
HETATM   24  C   UNL     1     -10.588   6.416  67.666  1.00  0.00    -0.274 C  
HETATM   25  O   UNL     1     -11.202   5.475  66.786  1.00  0.00    -0.450 OA 
HETATM   26  H   UNL     1     -10.771   5.492  65.940  1.00  0.00     0.000 HD 
BRANCH  24  27
HETATM   27  C   UNL     1     -10.704   7.798  67.006  1.00  0.00    -0.316 C  
BRANCH  27  28
HETATM   28  C   UNL     1      -9.545   8.728  67.364  1.00  0.00    -0.206 C  
BRANCH  28  29
HETATM   29  C   UNL     1     -10.015  10.109  67.733  1.00  0.00    -0.198 A  
HETATM   30  C   UNL     1     -11.276  10.288  68.317  1.00  0.00    -0.295 A  
HETATM   31  C   UNL     1     -11.716  11.564  68.666  1.00  0.00    -0.389 A  
HETATM   32  C   UNL     1     -10.903  12.670  68.429  1.00  0.00    -0.268 A  
HETATM   33  C   UNL     1      -9.650  12.502  67.839  1.00  0.00    -0.206 A  
HETATM   34  C   UNL     1      -9.208  11.225  67.490  1.00  0.00    -0.159 A  
ENDBRANCH  28  29
ENDBRANCH  27  28
ENDBRANCH  24  27
ENDBRANCH  23  24
ENDBRANCH  22  23
ENDBRANCH  19  22
ENDBRANCH  12  13
ENDBRANCH  11  12
ENDBRANCH   9  10
ENDBRANCH   8   9
ENDBRANCH   7   8
ENDBRANCH   5   7
ENDBRANCH   4   5
ENDBRANCH   2   4
TORSDOF 14
ENDMDL
MODEL      259
REMARK 921   NORMALIZED FREE ENERGY PREDICTED BY IDOCK:   -3.59 KCAL/MOL
REMARK 922        TOTAL FREE ENERGY PREDICTED BY IDOCK:   -9.83 KCAL/MOL
REMARK 923 INTER-LIGAND FREE ENERGY PREDICTED BY IDOCK:   -7.36 KCAL/MOL
REMARK 924 INTRA-LIGAND FREE ENERGY PREDICTED BY IDOCK:   -2.46 KCAL/MOL
REMARK 927      BINDING AFFINITY PREDICTED BY RF-SCORE:    0.00 PKD
ROOT
HETATM    1  C   UNL     1      -9.748   3.977  66.401  1.00  0.00    -0.206 C  
HETATM    2  C   UNL     1      -8.601   3.570  67.320  1.00  0.00    -0.109 C  
HETATM    3  C   UNL     1      -7.261   3.718  66.611  1.00  0.00    -0.068 C  
ENDROOT
BRANCH   2   4
HETATM    4  O   UNL     1      -8.580   4.435  68.471  1.00  0.00    -0.091 OA 
BRANCH   4   5
HETATM    5  C   UNL     1      -9.489   4.132  69.442  1.00  0.00    -0.190 C  
HETATM    6  O   UNL     1      -9.650   3.025  69.940  1.00  0.00    -0.147 OA 
BRANCH   5   7
HETATM    7  C   UNL     1     -10.286   5.362  69.794  1.00  0.00    -0.348 C  
BRANCH   7   8
HETATM    8  C   UNL     1     -10.104   5.724  71.269  1.00  0.00    -0.253 C  
BRANCH   8   9
HETATM    9  C   UNL     1     -10.592   7.131  71.607  1.00  0.00    -0.229 C  
BRANCH   9  10
HETATM   10  C   UNL     1     -11.214   7.820  70.425  1.00  0.00    -0.246 C  
HETATM   11  C   UNL     1     -10.774   8.940  69.827  1.00  0.00    -0.230 C  
BRANCH  11  12
HETATM   12  C   UNL     1      -9.552   9.733  70.192  1.00  0.00    -0.287 C  
BRANCH  12  13
HETATM   13  C   UNL     1      -8.540   9.975  69.059  1.00  0.00    -0.153 C  
HETATM   14  C   UNL     1      -7.248   9.171  69.295  1.00  0.00    -0.065 C  
HETATM   15  C   UNL     1      -6.546   9.242  67.952  1.00  0.00    -0.063 C  
HETATM   16  O   UNL     1      -7.525   7.798  69.573  1.00  0.00    -0.089 OA 
HETATM   17  C   UNL     1      -7.680   9.040  66.953  1.00  0.00    -0.098 C  
HETATM   18  H   UNL     1      -6.727   7.302  69.718  1.00  0.00     0.000 HD 
HETATM   19  C   UNL     1      -8.985   9.516  67.646  1.00  0.00    -0.124 C  
HETATM   20  O   UNL     1      -7.807   7.657  66.628  1.00  0.00    -0.102 OA 
HETATM   21  H   UNL     1      -8.514   7.532  66.006  1.00  0.00     0.000 HD 
BRANCH  19  22
HETATM   22  C   UNL     1      -9.673  10.630  66.836  1.00  0.00    -0.213 C  
BRANCH  22  23
HETATM   23  C   UNL     1     -10.371  10.053  65.602  1.00  0.00    -0.171 C  
BRANCH  23  24
HETATM   24  C   UNL     1     -10.128  10.839  64.308  1.00  0.00    -0.361 C  
HETATM   25  O   UNL     1      -9.713   9.953  63.268  1.00  0.00    -0.514 OA 
HETATM   26  H   UNL     1      -9.562  10.440  62.467  1.00  0.00     0.000 HD 
BRANCH  24  27
HETATM   27  C   UNL     1     -11.410  11.535  63.826  1.00  0.00    -0.420 C  
BRANCH  27  28
HETATM   28  C   UNL     1     -11.258  13.053  63.719  1.00  0.00    -0.396 C  
BRANCH  28  29
HETATM   29  C   UNL     1     -11.290  13.725  65.064  1.00  0.00    -0.334 A  
HETATM   30  C   UNL     1     -12.160  13.261  66.060  1.00  0.00    -0.491 A  
HETATM   31  C   UNL     1     -12.192  13.876  67.311  1.00  0.00    -0.324 A  
HETATM   32  C   UNL     1     -11.360  14.962  67.573  1.00  0.00    -0.351 A  
HETATM   33  C   UNL     1     -10.498  15.437  66.585  1.00  0.00    -0.293 A  
HETATM   34  C   UNL     1     -10.465  14.822  65.333  1.00  0.00    -0.401 A  
ENDBRANCH  28  29
ENDBRANCH  27  28
ENDBRANCH  24  27
ENDBRANCH  23  24
ENDBRANCH  22  23
ENDBRANCH  19  22
ENDBRANCH  12  13
ENDBRANCH  11  12
ENDBRANCH   9  10
ENDBRANCH   8   9
ENDBRANCH   7   8
ENDBRANCH   5   7
ENDBRANCH   4   5
ENDBRANCH   2   4
TORSDOF 14
ENDMDL
MODEL      260
REMARK 921   NORMALIZED FREE ENERGY PREDICTED BY IDOCK:   -3.59 KCAL/MOL
REMARK 922        TOTAL FREE ENERGY PREDICTED BY IDOCK:   -9.83 KCAL/MOL
REMARK 923 INTER-LIGAND FREE ENERGY PREDICTED BY IDOCK:   -8.46 KCAL/MOL
REMARK 924 INTRA-LIGAND FREE ENERGY PREDICTED BY IDOCK:   -1.37 KCAL/MOL
REMARK 927      BINDING AFFINITY PREDICTED BY RF-SCORE:    0.00 PKD
ROOT
HETATM    1  C   UNL     1      -6.182   3.304  64.547  1.00  0.00    -0.023 C  
HETATM    2  C   UNL     1      -7.583   2.772  64.270  1.00  0.00    -0.075 C  
HETATM    3  C   UNL     1      -8.244   2.294  65.557  1.00  0.00    -0.087 C  
ENDROOT
BRANCH   2   4
HETATM    4  O   UNL     1      -8.399   3.828  63.731  1.00  0.00    -0.089 OA 
BRANCH   4   5
HETATM    5  C   UNL     1      -9.190   4.471  64.639  1.00  0.00    -0.145 C  
HETATM    6  O   UNL     1     -10.286   4.083  65.023  1.00  0.00    -0.212 OA 
BRANCH   5   7
HETATM    7  C   UNL     1      -8.520   5.746  65.082  1.00  0.00    -0.138 C  
BRANCH   7   8
HETATM    8  C   UNL     1      -8.459   5.827  66.608  1.00  0.00    -0.113 C  
BRANCH   8   9
HETATM    9  C   UNL     1      -9.236   7.011  67.179  1.00  0.00    -0.153 C  
BRANCH   9  10
HETATM   10  C   UNL     1     -10.694   6.700  67.369  1.00  0.00    -0.409 C  
HETATM   11  C   UNL     1     -11.270   6.196  68.474  1.00  0.00    -0.241 C  
BRANCH  11  12
HETATM   12  C   UNL     1     -10.586   5.858  69.767  1.00  0.00    -0.374 C  
BRANCH  12  13
HETATM   13  C   UNL     1     -11.020   6.677  70.995  1.00  0.00    -0.305 C  
HETATM   14  C   UNL     1     -10.612   5.970  72.300  1.00  0.00    -0.216 C  
HETATM   15  C   UNL     1     -10.784   7.052  73.349  1.00  0.00    -0.379 C  
HETATM   16  O   UNL     1      -9.236   5.589  72.285  1.00  0.00    -0.142 OA 
HETATM   17  C   UNL     1     -10.221   8.294  72.667  1.00  0.00    -0.298 C  
HETATM   18  H   UNL     1      -8.984   5.152  73.091  1.00  0.00     0.000 HD 
HETATM   19  C   UNL     1     -10.370   8.077  71.137  1.00  0.00    -0.229 C  
HETATM   20  O   UNL     1      -8.837   8.440  72.981  1.00  0.00    -0.246 OA 
HETATM   21  H   UNL     1      -8.486   9.214  72.555  1.00  0.00     0.000 HD 
BRANCH  19  22
HETATM   22  C   UNL     1     -11.203   9.200  70.493  1.00  0.00    -0.309 C  
BRANCH  22  23
HETATM   23  C   UNL     1     -10.413   9.893  69.379  1.00  0.00    -0.250 C  
BRANCH  23  24
HETATM   24  C   UNL     1     -11.264  10.750  68.434  1.00  0.00    -0.284 C  
HETATM   25  O   UNL     1     -12.641  10.658  68.799  1.00  0.00    -0.733 OA 
HETATM   26  H   UNL     1     -13.168  11.189  68.214  1.00  0.00     0.000 HD 
BRANCH  24  27
HETATM   27  C   UNL     1     -10.870  12.233  68.516  1.00  0.00    -0.267 C  
BRANCH  27  28
HETATM   28  C   UNL     1      -9.986  12.679  67.351  1.00  0.00    -0.204 C  
BRANCH  28  29
HETATM   29  C   UNL     1     -10.731  12.693  66.044  1.00  0.00    -0.295 A  
HETATM   30  C   UNL     1     -11.821  13.556  65.867  1.00  0.00    -0.405 A  
HETATM   31  C   UNL     1     -12.512  13.578  64.656  1.00  0.00    -0.372 A  
HETATM   32  C   UNL     1     -12.123  12.736  63.617  1.00  0.00    -0.624 A  
HETATM   33  C   UNL     1     -11.046  11.867  63.788  1.00  0.00    -0.510 A  
HETATM   34  C   UNL     1     -10.352  11.844  64.999  1.00  0.00    -0.330 A  
ENDBRANCH  28  29
ENDBRANCH  27  28
ENDBRANCH  24  27
ENDBRANCH  23  24
ENDBRANCH  22  23
ENDBRANCH  19  22
ENDBRANCH  12  13
ENDBRANCH  11  12
ENDBRANCH   9  10
ENDBRANCH   8   9
ENDBRANCH   7   8
ENDBRANCH   5   7
ENDBRANCH   4   5
ENDBRANCH   2   4
TORSDOF 14
ENDMDL
MODEL      261
REMARK 921   NORMALIZED FREE ENERGY PREDICTED BY IDOCK:   -3.59 KCAL/MOL
REMARK 922        TOTAL FREE ENERGY PREDICTED BY IDOCK:   -9.82 KCAL/MOL
REMARK 923 INTER-LIGAND FREE ENERGY PREDICTED BY IDOCK:   -7.62 KCAL/MOL
REMARK 924 INTRA-LIGAND FREE ENERGY PREDICTED BY IDOCK:   -2.19 KCAL/MOL
REMARK 927      BINDING AFFINITY PREDICTED BY RF-SCORE:    0.00 PKD
ROOT
HETATM    1  C   UNL     1      -7.848  10.373  69.446  1.00  0.00    -0.163 C  
HETATM    2  C   UNL     1      -7.115   9.193  68.818  1.00  0.00    -0.073 C  
HETATM    3  C   UNL     1      -5.608   9.412  68.853  1.00  0.00    -0.036 C  
ENDROOT
BRANCH   2   4
HETATM    4  O   UNL     1      -7.397   7.999  69.570  1.00  0.00    -0.081 OA 
BRANCH   4   5
HETATM    5  C   UNL     1      -7.670   6.892  68.820  1.00  0.00    -0.110 C  
HETATM    6  O   UNL     1      -7.633   5.736  69.223  1.00  0.00    -0.084 OA 
BRANCH   5   7
HETATM    7  C   UNL     1      -8.004   7.304  67.409  1.00  0.00    -0.112 C  
BRANCH   7   8
HETATM    8  C   UNL     1      -9.415   6.851  67.029  1.00  0.00    -0.183 C  
BRANCH   8   9
HETATM    9  C   UNL     1     -10.219   7.930  66.308  1.00  0.00     0.116 C  
BRANCH   9  10
HETATM   10  C   UNL     1     -10.624   9.050  67.225  1.00  0.00    -0.301 C  
HETATM   11  C   UNL     1     -10.386  10.360  67.046  1.00  0.00    -0.295 C  
BRANCH  11  12
HETATM   12  C   UNL     1      -9.685  10.993  65.879  1.00  0.00    -0.267 C  
BRANCH  12  13
HETATM   13  C   UNL     1     -10.066  12.452  65.573  1.00  0.00    -0.287 C  
HETATM   14  C   UNL     1     -10.759  12.563  64.202  1.00  0.00    -0.391 C  
HETATM   15  C   UNL     1     -11.366  13.953  64.233  1.00  0.00    -0.309 C  
HETATM   16  O   UNL     1     -11.825  11.622  64.073  1.00  0.00    -0.323 OA 
HETATM   17  C   UNL     1     -11.926  14.059  65.647  1.00  0.00    -0.397 C  
HETATM   18  H   UNL     1     -12.252  11.690  63.227  1.00  0.00     0.000 HD 
HETATM   19  C   UNL     1     -11.092  13.099  66.537  1.00  0.00    -0.317 C  
HETATM   20  O   UNL     1     -13.290  13.642  65.668  1.00  0.00    -0.480 OA 
HETATM   21  H   UNL     1     -13.638  13.708  66.549  1.00  0.00     0.000 HD 
BRANCH  19  22
HETATM   22  C   UNL     1     -10.432  13.854  67.707  1.00  0.00    -0.243 C  
BRANCH  22  23
HETATM   23  C   UNL     1      -8.955  13.473  67.834  1.00  0.00    -0.200 C  
BRANCH  23  24
HETATM   24  C   UNL     1      -8.113  14.457  68.655  1.00  0.00    -0.146 C  
HETATM   25  O   UNL     1      -7.182  13.744  69.469  1.00  0.00    -0.316 OA 
HETATM   26  H   UNL     1      -6.661  14.353  69.977  1.00  0.00     0.000 HD 
BRANCH  24  27
HETATM   27  C   UNL     1      -7.298  15.391  67.747  1.00  0.00    -0.180 C  
BRANCH  27  28
HETATM   28  C   UNL     1      -8.046  15.782  66.472  1.00  0.00    -0.231 C  
BRANCH  28  29
HETATM   29  C   UNL     1      -8.526  17.207  66.507  1.00  0.00    -0.309 A  
HETATM   30  C   UNL     1      -9.886  17.485  66.701  1.00  0.00    -0.308 A  
HETATM   31  C   UNL     1     -10.337  18.804  66.739  1.00  0.00    -0.464 A  
HETATM   32  C   UNL     1      -9.435  19.853  66.579  1.00  0.00    -0.516 A  
HETATM   33  C   UNL     1      -8.082  19.585  66.376  1.00  0.00    -0.331 A  
HETATM   34  C   UNL     1      -7.628  18.266  66.338  1.00  0.00    -0.285 A  
ENDBRANCH  28  29
ENDBRANCH  27  28
ENDBRANCH  24  27
ENDBRANCH  23  24
ENDBRANCH  22  23
ENDBRANCH  19  22
ENDBRANCH  12  13
ENDBRANCH  11  12
ENDBRANCH   9  10
ENDBRANCH   8   9
ENDBRANCH   7   8
ENDBRANCH   5   7
ENDBRANCH   4   5
ENDBRANCH   2   4
TORSDOF 14
ENDMDL
MODEL      262
REMARK 921   NORMALIZED FREE ENERGY PREDICTED BY IDOCK:   -3.58 KCAL/MOL
REMARK 922        TOTAL FREE ENERGY PREDICTED BY IDOCK:   -9.80 KCAL/MOL
REMARK 923 INTER-LIGAND FREE ENERGY PREDICTED BY IDOCK:   -8.22 KCAL/MOL
REMARK 924 INTRA-LIGAND FREE ENERGY PREDICTED BY IDOCK:   -1.58 KCAL/MOL
REMARK 927      BINDING AFFINITY PREDICTED BY RF-SCORE:    0.00 PKD
ROOT
HETATM    1  C   UNL     1      -6.302   3.290  65.076  1.00  0.00    -0.027 C  
HETATM    2  C   UNL     1      -7.686   2.756  64.724  1.00  0.00    -0.077 C  
HETATM    3  C   UNL     1      -8.481   2.442  65.984  1.00  0.00    -0.100 C  
ENDROOT
BRANCH   2   4
HETATM    4  O   UNL     1      -8.414   3.759  63.991  1.00  0.00    -0.090 OA 
BRANCH   4   5
HETATM    5  C   UNL     1      -9.249   4.534  64.741  1.00  0.00    -0.152 C  
HETATM    6  O   UNL     1     -10.342   4.186  65.171  1.00  0.00    -0.229 OA 
BRANCH   5   7
HETATM    7  C   UNL     1      -8.634   5.894  64.945  1.00  0.00    -0.037 C  
BRANCH   7   8
HETATM    8  C   UNL     1      -8.574   6.247  66.433  1.00  0.00    -0.133 C  
BRANCH   8   9
HETATM    9  C   UNL     1      -9.475   7.421  66.808  1.00  0.00    -0.226 C  
BRANCH   9  10
HETATM   10  C   UNL     1     -10.891   6.993  67.073  1.00  0.00    -0.413 C  
HETATM   11  C   UNL     1     -11.377   6.493  68.221  1.00  0.00    -0.123 C  
BRANCH  11  12
HETATM   12  C   UNL     1     -10.617   6.275  69.498  1.00  0.00    -0.331 C  
BRANCH  12  13
HETATM   13  C   UNL     1     -11.080   7.104  70.709  1.00  0.00    -0.296 C  
HETATM   14  C   UNL     1     -11.007   6.273  72.004  1.00  0.00    -0.256 C  
HETATM   15  C   UNL     1     -11.143   7.318  73.094  1.00  0.00    -0.336 C  
HETATM   16  O   UNL     1      -9.735   5.643  72.155  1.00  0.00    -0.153 OA 
HETATM   17  C   UNL     1     -10.270   8.463  72.592  1.00  0.00    -0.249 C  
HETATM   18  H   UNL     1      -9.690   5.130  72.954  1.00  0.00     0.000 HD 
HETATM   19  C   UNL     1     -10.220   8.349  71.045  1.00  0.00    -0.245 C  
HETATM   20  O   UNL     1      -8.946   8.334  73.108  1.00  0.00    -0.248 OA 
HETATM   21  H   UNL     1      -8.403   9.047  72.794  1.00  0.00     0.000 HD 
BRANCH  19  22
HETATM   22  C   UNL     1     -10.733   9.637  70.373  1.00  0.00    -0.356 C  
BRANCH  22  23
HETATM   23  C   UNL     1      -9.728  10.145  69.335  1.00  0.00    -0.247 C  
BRANCH  23  24
HETATM   24  C   UNL     1     -10.363  10.825  68.116  1.00  0.00    -0.171 C  
HETATM   25  O   UNL     1     -11.725  10.419  67.984  1.00  0.00    -0.729 OA 
HETATM   26  H   UNL     1     -12.119  10.840  67.230  1.00  0.00     0.000 HD 
BRANCH  24  27
HETATM   27  C   UNL     1     -10.358  12.355  68.262  1.00  0.00    -0.232 C  
BRANCH  27  28
HETATM   28  C   UNL     1     -11.748  12.932  68.527  1.00  0.00    -0.374 C  
BRANCH  28  29
HETATM   29  C   UNL     1     -11.759  13.878  69.697  1.00  0.00    -0.370 A  
HETATM   30  C   UNL     1     -11.044  15.081  69.633  1.00  0.00    -0.291 A  
HETATM   31  C   UNL     1     -11.054  15.965  70.711  1.00  0.00    -0.352 A  
HETATM   32  C   UNL     1     -11.773  15.650  71.862  1.00  0.00    -0.544 A  
HETATM   33  C   UNL     1     -12.480  14.451  71.938  1.00  0.00    -0.387 A  
HETATM   34  C   UNL     1     -12.472  13.565  70.859  1.00  0.00    -0.448 A  
ENDBRANCH  28  29
ENDBRANCH  27  28
ENDBRANCH  24  27
ENDBRANCH  23  24
ENDBRANCH  22  23
ENDBRANCH  19  22
ENDBRANCH  12  13
ENDBRANCH  11  12
ENDBRANCH   9  10
ENDBRANCH   8   9
ENDBRANCH   7   8
ENDBRANCH   5   7
ENDBRANCH   4   5
ENDBRANCH   2   4
TORSDOF 14
ENDMDL
MODEL      263
REMARK 921   NORMALIZED FREE ENERGY PREDICTED BY IDOCK:   -3.58 KCAL/MOL
REMARK 922        TOTAL FREE ENERGY PREDICTED BY IDOCK:   -9.80 KCAL/MOL
REMARK 923 INTER-LIGAND FREE ENERGY PREDICTED BY IDOCK:   -8.20 KCAL/MOL
REMARK 924 INTRA-LIGAND FREE ENERGY PREDICTED BY IDOCK:   -1.60 KCAL/MOL
REMARK 927      BINDING AFFINITY PREDICTED BY RF-SCORE:    0.00 PKD
ROOT
HETATM    1  C   UNL     1     -10.124   6.738  74.154  1.00  0.00    -0.381 C  
HETATM    2  C   UNL     1      -9.670   6.814  72.700  1.00  0.00    -0.149 C  
HETATM    3  C   UNL     1      -8.620   7.902  72.518  1.00  0.00    -0.205 C  
ENDROOT
BRANCH   2   4
HETATM    4  O   UNL     1      -9.068   5.563  72.320  1.00  0.00    -0.142 OA 
BRANCH   4   5
HETATM    5  C   UNL     1      -9.930   4.635  71.815  1.00  0.00    -0.192 C  
HETATM    6  O   UNL     1     -10.275   3.606  72.383  1.00  0.00    -0.170 OA 
BRANCH   5   7
HETATM    7  C   UNL     1     -10.379   5.054  70.438  1.00  0.00    -0.297 C  
BRANCH   7   8
HETATM    8  C   UNL     1      -9.757   4.157  69.366  1.00  0.00    -0.233 C  
BRANCH   8   9
HETATM    9  C   UNL     1      -8.990   4.937  68.302  1.00  0.00    -0.126 C  
BRANCH   9  10
HETATM   10  C   UNL     1      -8.342   6.175  68.855  1.00  0.00    -0.115 C  
HETATM   11  C   UNL     1      -7.890   7.227  68.151  1.00  0.00    -0.118 C  
BRANCH  11  12
HETATM   12  C   UNL     1      -7.958   7.406  66.662  1.00  0.00    -0.121 C  
BRANCH  12  13
HETATM   13  C   UNL     1      -7.895   8.857  66.153  1.00  0.00    -0.102 C  
HETATM   14  C   UNL     1      -7.739   8.895  64.621  1.00  0.00    -0.117 C  
HETATM   15  C   UNL     1      -8.052  10.339  64.277  1.00  0.00    -0.143 C  
HETATM   16  O   UNL     1      -8.706   8.070  63.971  1.00  0.00    -0.375 OA 
HETATM   17  C   UNL     1      -9.248  10.659  65.168  1.00  0.00    -0.207 C  
HETATM   18  H   UNL     1      -8.609   8.093  63.026  1.00  0.00     0.000 HD 
HETATM   19  C   UNL     1      -9.163   9.714  66.396  1.00  0.00    -0.205 C  
HETATM   20  O   UNL     1     -10.464  10.400  64.469  1.00  0.00    -0.281 OA 
HETATM   21  H   UNL     1     -11.208  10.600  65.024  1.00  0.00     0.000 HD 
BRANCH  19  22
HETATM   22  C   UNL     1      -9.111  10.512  67.712  1.00  0.00    -0.140 C  
BRANCH  22  23
HETATM   23  C   UNL     1     -10.487  11.090  68.053  1.00  0.00    -0.219 C  
BRANCH  23  24
HETATM   24  C   UNL     1     -10.453  12.495  68.665  1.00  0.00    -0.200 C  
HETATM   25  O   UNL     1      -9.523  13.315  67.956  1.00  0.00    -0.206 OA 
HETATM   26  H   UNL     1      -9.503  14.185  68.335  1.00  0.00     0.000 HD 
BRANCH  24  27
HETATM   27  C   UNL     1     -11.825  13.180  68.571  1.00  0.00    -0.377 C  
BRANCH  27  28
HETATM   28  C   UNL     1     -11.786  14.649  68.994  1.00  0.00    -0.346 C  
BRANCH  28  29
HETATM   29  C   UNL     1     -12.224  14.843  70.420  1.00  0.00    -0.393 A  
HETATM   30  C   UNL     1     -13.222  14.024  70.966  1.00  0.00    -0.294 A  
HETATM   31  C   UNL     1     -13.628  14.195  72.289  1.00  0.00    -0.596 A  
HETATM   32  C   UNL     1     -13.046  15.189  73.073  1.00  0.00    -0.605 A  
HETATM   33  C   UNL     1     -12.060  16.015  72.535  1.00  0.00    -0.635 A  
HETATM   34  C   UNL     1     -11.651  15.844  71.211  1.00  0.00    -0.509 A  
ENDBRANCH  28  29
ENDBRANCH  27  28
ENDBRANCH  24  27
ENDBRANCH  23  24
ENDBRANCH  22  23
ENDBRANCH  19  22
ENDBRANCH  12  13
ENDBRANCH  11  12
ENDBRANCH   9  10
ENDBRANCH   8   9
ENDBRANCH   7   8
ENDBRANCH   5   7
ENDBRANCH   4   5
ENDBRANCH   2   4
TORSDOF 14
ENDMDL
MODEL      264
REMARK 921   NORMALIZED FREE ENERGY PREDICTED BY IDOCK:   -3.58 KCAL/MOL
REMARK 922        TOTAL FREE ENERGY PREDICTED BY IDOCK:   -9.80 KCAL/MOL
REMARK 923 INTER-LIGAND FREE ENERGY PREDICTED BY IDOCK:   -7.33 KCAL/MOL
REMARK 924 INTRA-LIGAND FREE ENERGY PREDICTED BY IDOCK:   -2.46 KCAL/MOL
REMARK 927      BINDING AFFINITY PREDICTED BY RF-SCORE:    0.00 PKD
ROOT
HETATM    1  C   UNL     1      -6.009  14.199  71.055  1.00  0.00    -0.187 C  
HETATM    2  C   UNL     1      -6.114  13.595  69.659  1.00  0.00    -0.120 C  
HETATM    3  C   UNL     1      -6.294  12.085  69.735  1.00  0.00    -0.110 C  
ENDROOT
BRANCH   2   4
HETATM    4  O   UNL     1      -7.267  14.136  68.988  1.00  0.00    -0.116 OA 
BRANCH   4   5
HETATM    5  C   UNL     1      -7.034  14.622  67.735  1.00  0.00    -0.177 C  
HETATM    6  O   UNL     1      -5.931  14.743  67.216  1.00  0.00    -0.305 OA 
BRANCH   5   7
HETATM    7  C   UNL     1      -8.339  15.010  67.089  1.00  0.00    -0.244 C  
BRANCH   7   8
HETATM    8  C   UNL     1      -9.476  15.003  68.113  1.00  0.00    -0.196 C  
BRANCH   8   9
HETATM    9  C   UNL     1     -10.745  15.684  67.607  1.00  0.00    -0.302 C  
BRANCH   9  10
HETATM   10  C   UNL     1     -10.765  15.816  66.111  1.00  0.00    -0.293 C  
HETATM   11  C   UNL     1     -11.446  15.045  65.246  1.00  0.00    -0.308 C  
BRANCH  11  12
HETATM   12  C   UNL     1     -12.355  13.899  65.589  1.00  0.00    -0.511 C  
BRANCH  12  13
HETATM   13  C   UNL     1     -11.863  12.501  65.178  1.00  0.00    -0.450 C  
HETATM   14  C   UNL     1     -12.236  12.194  63.715  1.00  0.00    -0.531 C  
HETATM   15  C   UNL     1     -11.386  10.981  63.388  1.00  0.00     0.449 C  
HETATM   16  O   UNL     1     -11.847  13.252  62.839  1.00  0.00    -0.742 OA 
HETATM   17  C   UNL     1     -10.042  11.312  64.028  1.00  0.00    -0.329 C  
HETATM   18  H   UNL     1     -12.077  13.063  61.937  1.00  0.00     0.000 HD 
HETATM   19  C   UNL     1     -10.327  12.292  65.197  1.00  0.00    -0.316 C  
HETATM   20  O   UNL     1      -9.194  11.957  63.080  1.00  0.00    -0.644 OA 
HETATM   21  H   UNL     1      -8.357  12.164  63.479  1.00  0.00     0.000 HD 
BRANCH  19  22
HETATM   22  C   UNL     1      -9.809  11.730  66.535  1.00  0.00    -0.228 C  
BRANCH  22  23
HETATM   23  C   UNL     1     -10.909  10.944  67.255  1.00  0.00    -0.342 C  
BRANCH  23  24
HETATM   24  C   UNL     1     -10.600   9.455  67.454  1.00  0.00    -0.258 C  
HETATM   25  O   UNL     1     -10.473   8.809  66.188  1.00  0.00    -0.274 OA 
HETATM   26  H   UNL     1     -10.282   7.887  66.311  1.00  0.00     0.000 HD 
BRANCH  24  27
HETATM   27  C   UNL     1      -9.273   9.254  68.202  1.00  0.00    -0.136 C  
BRANCH  27  28
HETATM   28  C   UNL     1      -8.250   8.457  67.392  1.00  0.00    -0.120 C  
BRANCH  28  29
HETATM   29  C   UNL     1      -7.972   7.107  67.995  1.00  0.00    -0.119 A  
HETATM   30  C   UNL     1      -7.904   6.962  69.388  1.00  0.00    -0.113 A  
HETATM   31  C   UNL     1      -7.651   5.713  69.954  1.00  0.00    -0.075 A  
HETATM   32  C   UNL     1      -7.460   4.603  69.134  1.00  0.00    -0.056 A  
HETATM   33  C   UNL     1      -7.516   4.741  67.748  1.00  0.00    -0.078 A  
HETATM   34  C   UNL     1      -7.769   5.990  67.179  1.00  0.00    -0.101 A  
ENDBRANCH  28  29
ENDBRANCH  27  28
ENDBRANCH  24  27
ENDBRANCH  23  24
ENDBRANCH  22  23
ENDBRANCH  19  22
ENDBRANCH  12  13
ENDBRANCH  11  12
ENDBRANCH   9  10
ENDBRANCH   8   9
ENDBRANCH   7   8
ENDBRANCH   5   7
ENDBRANCH   4   5
ENDBRANCH   2   4
TORSDOF 14
ENDMDL
MODEL      265
REMARK 921   NORMALIZED FREE ENERGY PREDICTED BY IDOCK:   -3.57 KCAL/MOL
REMARK 922        TOTAL FREE ENERGY PREDICTED BY IDOCK:   -9.79 KCAL/MOL
REMARK 923 INTER-LIGAND FREE ENERGY PREDICTED BY IDOCK:   -7.00 KCAL/MOL
REMARK 924 INTRA-LIGAND FREE ENERGY PREDICTED BY IDOCK:   -2.79 KCAL/MOL
REMARK 927      BINDING AFFINITY PREDICTED BY RF-SCORE:    0.00 PKD
ROOT
HETATM    1  C   UNL     1     -11.265  15.999  70.839  1.00  0.00    -0.365 C  
HETATM    2  C   UNL     1     -12.031  15.001  71.700  1.00  0.00    -0.366 C  
HETATM    3  C   UNL     1     -12.968  15.723  72.661  1.00  0.00    -0.569 C  
ENDROOT
BRANCH   2   4
HETATM    4  O   UNL     1     -12.840  14.161  70.856  1.00  0.00    -0.329 OA 
BRANCH   4   5
HETATM    5  C   UNL     1     -12.799  12.830  71.154  1.00  0.00    -0.226 C  
HETATM    6  O   UNL     1     -13.344  12.303  72.116  1.00  0.00    -0.526 OA 
BRANCH   5   7
HETATM    7  C   UNL     1     -11.963  12.105  70.130  1.00  0.00    -0.394 C  
BRANCH   7   8
HETATM    8  C   UNL     1     -11.837  12.930  68.848  1.00  0.00    -0.352 C  
BRANCH   8   9
HETATM    9  C   UNL     1     -11.547  12.081  67.613  1.00  0.00    -0.392 C  
BRANCH   9  10
HETATM   10  C   UNL     1     -11.371  10.626  67.948  1.00  0.00    -0.342 C  
HETATM   11  C   UNL     1     -10.689   9.716  67.233  1.00  0.00    -0.284 C  
BRANCH  11  12
HETATM   12  C   UNL     1      -9.935   9.957  65.957  1.00  0.00    -0.338 C  
BRANCH  12  13
HETATM   13  C   UNL     1      -8.451   9.550  65.962  1.00  0.00    -0.132 C  
HETATM   14  C   UNL     1      -8.166   8.500  64.873  1.00  0.00    -0.165 C  
HETATM   15  C   UNL     1      -6.651   8.492  64.787  1.00  0.00    -0.065 C  
HETATM   16  O   UNL     1      -8.675   8.907  63.602  1.00  0.00    -0.389 OA 
HETATM   17  C   UNL     1      -6.289   9.971  64.869  1.00  0.00    -0.118 C  
HETATM   18  H   UNL     1      -8.499   8.258  62.930  1.00  0.00     0.000 HD 
HETATM   19  C   UNL     1      -7.439  10.678  65.634  1.00  0.00    -0.093 C  
HETATM   20  O   UNL     1      -6.196  10.527  63.559  1.00  0.00    -0.289 OA 
HETATM   21  H   UNL     1      -5.970  11.448  63.610  1.00  0.00     0.000 HD 
BRANCH  19  22
HETATM   22  C   UNL     1      -6.914  11.402  66.888  1.00  0.00    -0.140 C  
BRANCH  22  23
HETATM   23  C   UNL     1      -6.886  10.456  68.091  1.00  0.00    -0.072 C  
BRANCH  23  24
HETATM   24  C   UNL     1      -7.541  11.019  69.358  1.00  0.00    -0.054 C  
HETATM   25  O   UNL     1      -8.321  12.171  69.034  1.00  0.00    -0.352 OA 
HETATM   26  H   UNL     1      -8.727  12.520  69.819  1.00  0.00     0.000 HD 
BRANCH  24  27
HETATM   27  C   UNL     1      -8.488   9.996  70.002  1.00  0.00    -0.126 C  
BRANCH  27  28
HETATM   28  C   UNL     1      -8.060   8.550  69.752  1.00  0.00    -0.116 C  
BRANCH  28  29
HETATM   29  C   UNL     1      -7.387   7.940  70.951  1.00  0.00    -0.057 A  
HETATM   30  C   UNL     1      -6.066   7.481  70.857  1.00  0.00    -0.035 A  
HETATM   31  C   UNL     1      -5.434   6.920  71.965  1.00  0.00    -0.037 A  
HETATM   32  C   UNL     1      -6.118   6.807  73.173  1.00  0.00    -0.058 A  
HETATM   33  C   UNL     1      -7.436   7.251  73.274  1.00  0.00    -0.084 A  
HETATM   34  C   UNL     1      -8.070   7.814  72.165  1.00  0.00    -0.136 A  
ENDBRANCH  28  29
ENDBRANCH  27  28
ENDBRANCH  24  27
ENDBRANCH  23  24
ENDBRANCH  22  23
ENDBRANCH  19  22
ENDBRANCH  12  13
ENDBRANCH  11  12
ENDBRANCH   9  10
ENDBRANCH   8   9
ENDBRANCH   7   8
ENDBRANCH   5   7
ENDBRANCH   4   5
ENDBRANCH   2   4
TORSDOF 14
ENDMDL
MODEL      266
REMARK 921   NORMALIZED FREE ENERGY PREDICTED BY IDOCK:   -3.57 KCAL/MOL
REMARK 922        TOTAL FREE ENERGY PREDICTED BY IDOCK:   -9.79 KCAL/MOL
REMARK 923 INTER-LIGAND FREE ENERGY PREDICTED BY IDOCK:   -7.23 KCAL/MOL
REMARK 924 INTRA-LIGAND FREE ENERGY PREDICTED BY IDOCK:   -2.56 KCAL/MOL
REMARK 927      BINDING AFFINITY PREDICTED BY RF-SCORE:    0.00 PKD
ROOT
HETATM    1  C   UNL     1     -12.471  11.604  63.281  1.00  0.00    -0.262 C  
HETATM    2  C   UNL     1     -11.451  12.241  64.218  1.00  0.00    -0.362 C  
HETATM    3  C   UNL     1     -10.076  11.612  64.029  1.00  0.00    -0.362 C  
ENDROOT
BRANCH   2   4
HETATM    4  O   UNL     1     -11.330  13.643  63.915  1.00  0.00    -0.287 OA 
BRANCH   4   5
HETATM    5  C   UNL     1     -12.198  14.457  64.583  1.00  0.00    -0.464 C  
HETATM    6  O   UNL     1     -12.877  15.339  64.071  1.00  0.00    -0.613 OA 
BRANCH   5   7
HETATM    7  C   UNL     1     -12.180  14.123  66.052  1.00  0.00    -0.464 C  
BRANCH   7   8
HETATM    8  C   UNL     1     -11.738  15.332  66.880  1.00  0.00     0.010 C  
BRANCH   8   9
HETATM    9  C   UNL     1     -10.388  15.896  66.446  1.00  0.00    -0.313 C  
BRANCH   9  10
HETATM   10  C   UNL     1      -9.855  16.913  67.415  1.00  0.00    -0.261 C  
HETATM   11  C   UNL     1      -9.286  16.665  68.606  1.00  0.00    -0.248 C  
BRANCH  11  12
HETATM   12  C   UNL     1      -9.035  15.317  69.218  1.00  0.00    -0.241 C  
BRANCH  12  13
HETATM   13  C   UNL     1      -8.010  14.426  68.495  1.00  0.00    -0.144 C  
HETATM   14  C   UNL     1      -6.614  14.571  69.128  1.00  0.00    -0.111 C  
HETATM   15  C   UNL     1      -5.848  13.396  68.549  1.00  0.00    -0.089 C  
HETATM   16  O   UNL     1      -6.659  14.409  70.546  1.00  0.00    -0.358 OA 
HETATM   17  C   UNL     1      -6.859  12.256  68.608  1.00  0.00    -0.087 C  
HETATM   18  H   UNL     1      -5.797  14.498  70.937  1.00  0.00     0.000 HD 
HETATM   19  C   UNL     1      -8.271  12.900  68.567  1.00  0.00    -0.065 C  
HETATM   20  O   UNL     1      -6.715  11.535  69.830  1.00  0.00    -0.290 OA 
HETATM   21  H   UNL     1      -7.345  10.825  69.867  1.00  0.00     0.000 HD 
BRANCH  19  22
HETATM   22  C   UNL     1      -9.091  12.370  67.377  1.00  0.00    -0.183 C  
BRANCH  22  23
HETATM   23  C   UNL     1     -10.547  12.129  67.785  1.00  0.00    -0.229 C  
BRANCH  23  24
HETATM   24  C   UNL     1     -10.769  10.874  68.638  1.00  0.00    -0.203 C  
HETATM   25  O   UNL     1     -12.162  10.698  68.896  1.00  0.00    -0.757 OA 
HETATM   26  H   UNL     1     -12.300   9.921  69.424  1.00  0.00     0.000 HD 
BRANCH  24  27
HETATM   27  C   UNL     1     -10.279   9.611  67.913  1.00  0.00    -0.242 C  
BRANCH  27  28
HETATM   28  C   UNL     1      -9.035   9.000  68.559  1.00  0.00    -0.133 C  
BRANCH  28  29
HETATM   29  C   UNL     1      -8.015   8.574  67.538  1.00  0.00    -0.106 A  
HETATM   30  C   UNL     1      -6.675   8.960  67.682  1.00  0.00    -0.066 A  
HETATM   31  C   UNL     1      -5.723   8.565  66.743  1.00  0.00    -0.044 A  
HETATM   32  C   UNL     1      -6.103   7.788  65.652  1.00  0.00    -0.038 A  
HETATM   33  C   UNL     1      -7.436   7.407  65.495  1.00  0.00    -0.088 A  
HETATM   34  C   UNL     1      -8.390   7.801  66.435  1.00  0.00    -0.131 A  
ENDBRANCH  28  29
ENDBRANCH  27  28
ENDBRANCH  24  27
ENDBRANCH  23  24
ENDBRANCH  22  23
ENDBRANCH  19  22
ENDBRANCH  12  13
ENDBRANCH  11  12
ENDBRANCH   9  10
ENDBRANCH   8   9
ENDBRANCH   7   8
ENDBRANCH   5   7
ENDBRANCH   4   5
ENDBRANCH   2   4
TORSDOF 14
ENDMDL
MODEL      267
REMARK 921   NORMALIZED FREE ENERGY PREDICTED BY IDOCK:   -3.56 KCAL/MOL
REMARK 922        TOTAL FREE ENERGY PREDICTED BY IDOCK:   -9.77 KCAL/MOL
REMARK 923 INTER-LIGAND FREE ENERGY PREDICTED BY IDOCK:   -7.89 KCAL/MOL
REMARK 924 INTRA-LIGAND FREE ENERGY PREDICTED BY IDOCK:   -1.89 KCAL/MOL
REMARK 927      BINDING AFFINITY PREDICTED BY RF-SCORE:    0.00 PKD
ROOT
HETATM    1  C   UNL     1     -13.466  10.084  71.630  1.00  0.00    -0.398 C  
HETATM    2  C   UNL     1     -12.873   8.695  71.837  1.00  0.00    -0.369 C  
HETATM    3  C   UNL     1     -13.904   7.615  71.536  1.00  0.00    -0.466 C  
ENDROOT
BRANCH   2   4
HETATM    4  O   UNL     1     -11.770   8.504  70.932  1.00  0.00    -0.281 OA 
BRANCH   4   5
HETATM    5  C   UNL     1     -10.541   8.799  71.445  1.00  0.00    -0.279 C  
HETATM    6  O   UNL     1      -9.655   9.407  70.856  1.00  0.00    -0.267 OA 
BRANCH   5   7
HETATM    7  C   UNL     1     -10.427   8.244  72.841  1.00  0.00    -0.231 C  
BRANCH   7   8
HETATM    8  C   UNL     1     -10.098   6.750  72.808  1.00  0.00    -0.197 C  
BRANCH   8   9
HETATM    9  C   UNL     1      -8.942   6.410  71.871  1.00  0.00    -0.138 C  
BRANCH   9  10
HETATM   10  C   UNL     1      -9.005   4.993  71.375  1.00  0.00    -0.159 C  
HETATM   11  C   UNL     1      -9.560   4.569  70.227  1.00  0.00    -0.263 C  
BRANCH  11  12
HETATM   12  C   UNL     1     -10.216   5.421  69.179  1.00  0.00    -0.302 C  
BRANCH  12  13
HETATM   13  C   UNL     1      -9.278   6.322  68.357  1.00  0.00    -0.112 C  
HETATM   14  C   UNL     1      -8.050   5.534  67.865  1.00  0.00    -0.100 C  
HETATM   15  C   UNL     1      -7.452   6.447  66.812  1.00  0.00    -0.087 C  
HETATM   16  O   UNL     1      -8.428   4.315  67.225  1.00  0.00    -0.100 OA 
HETATM   17  C   UNL     1      -8.675   6.964  66.061  1.00  0.00    -0.141 C  
HETATM   18  H   UNL     1      -7.671   3.828  66.921  1.00  0.00     0.000 HD 
HETATM   19  C   UNL     1      -9.872   6.899  67.047  1.00  0.00    -0.228 C  
HETATM   20  O   UNL     1      -8.952   6.126  64.941  1.00  0.00    -0.364 OA 
HETATM   21  H   UNL     1      -9.714   6.448  64.473  1.00  0.00     0.000 HD 
BRANCH  19  22
HETATM   22  C   UNL     1     -10.517   8.285  67.233  1.00  0.00    -0.373 C  
BRANCH  22  23
HETATM   23  C   UNL     1      -9.488   9.397  67.011  1.00  0.00    -0.200 C  
BRANCH  23  24
HETATM   24  C   UNL     1      -9.869  10.409  65.924  1.00  0.00    -0.235 C  
HETATM   25  O   UNL     1      -9.897   9.767  64.648  1.00  0.00    -0.419 OA 
HETATM   26  H   UNL     1     -10.134  10.394  63.975  1.00  0.00     0.000 HD 
BRANCH  24  27
HETATM   27  C   UNL     1     -11.269  10.993  66.168  1.00  0.00     0.024 C  
BRANCH  27  28
HETATM   28  C   UNL     1     -11.464  12.363  65.518  1.00  0.00    -0.404 C  
BRANCH  28  29
HETATM   29  C   UNL     1     -11.273  13.490  66.496  1.00  0.00    -0.322 A  
HETATM   30  C   UNL     1     -12.087  13.577  67.634  1.00  0.00    -0.321 A  
HETATM   31  C   UNL     1     -11.912  14.616  68.547  1.00  0.00    -0.298 A  
HETATM   32  C   UNL     1     -10.929  15.578  68.328  1.00  0.00    -0.305 A  
HETATM   33  C   UNL     1     -10.121  15.504  67.193  1.00  0.00    -0.254 A  
HETATM   34  C   UNL     1     -10.294  14.465  66.278  1.00  0.00    -0.300 A  
ENDBRANCH  28  29
ENDBRANCH  27  28
ENDBRANCH  24  27
ENDBRANCH  23  24
ENDBRANCH  22  23
ENDBRANCH  19  22
ENDBRANCH  12  13
ENDBRANCH  11  12
ENDBRANCH   9  10
ENDBRANCH   8   9
ENDBRANCH   7   8
ENDBRANCH   5   7
ENDBRANCH   4   5
ENDBRANCH   2   4
TORSDOF 14
ENDMDL
MODEL      268
REMARK 921   NORMALIZED FREE ENERGY PREDICTED BY IDOCK:   -3.56 KCAL/MOL
REMARK 922        TOTAL FREE ENERGY PREDICTED BY IDOCK:   -9.76 KCAL/MOL
REMARK 923 INTER-LIGAND FREE ENERGY PREDICTED BY IDOCK:   -7.51 KCAL/MOL
REMARK 924 INTRA-LIGAND FREE ENERGY PREDICTED BY IDOCK:   -2.25 KCAL/MOL
REMARK 927      BINDING AFFINITY PREDICTED BY RF-SCORE:    0.00 PKD
ROOT
HETATM    1  C   UNL     1     -10.080   4.848  66.648  1.00  0.00    -0.280 C  
HETATM    2  C   UNL     1      -9.413   4.129  67.815  1.00  0.00    -0.175 C  
HETATM    3  C   UNL     1      -8.004   3.685  67.444  1.00  0.00    -0.082 C  
ENDROOT
BRANCH   2   4
HETATM    4  O   UNL     1      -9.303   5.030  68.933  1.00  0.00    -0.113 OA 
BRANCH   4   5
HETATM    5  C   UNL     1     -10.086   4.721  70.007  1.00  0.00    -0.238 C  
HETATM    6  O   UNL     1     -10.031   3.678  70.645  1.00  0.00    -0.125 OA 
BRANCH   5   7
HETATM    7  C   UNL     1     -11.047   5.851  70.277  1.00  0.00    -0.368 C  
BRANCH   7   8
HETATM    8  C   UNL     1     -11.288   6.013  71.779  1.00  0.00    -0.324 C  
BRANCH   8   9
HETATM    9  C   UNL     1     -10.602   7.243  72.368  1.00  0.00    -0.273 C  
BRANCH   9  10
HETATM   10  C   UNL     1     -10.732   8.450  71.481  1.00  0.00    -0.313 C  
HETATM   11  C   UNL     1      -9.728   9.193  70.986  1.00  0.00    -0.359 C  
BRANCH  11  12
HETATM   12  C   UNL     1      -8.257   8.965  71.189  1.00  0.00    -0.218 C  
BRANCH  12  13
HETATM   13  C   UNL     1      -7.353   9.276  69.984  1.00  0.00    -0.083 C  
HETATM   14  C   UNL     1      -6.534   8.036  69.577  1.00  0.00    -0.034 C  
HETATM   15  C   UNL     1      -6.001   8.408  68.206  1.00  0.00    -0.046 C  
HETATM   16  O   UNL     1      -7.363   6.883  69.427  1.00  0.00    -0.086 OA 
HETATM   17  C   UNL     1      -7.195   9.082  67.538  1.00  0.00    -0.080 C  
HETATM   18  H   UNL     1      -6.858   6.119  69.176  1.00  0.00     0.000 HD 
HETATM   19  C   UNL     1      -8.083   9.659  68.672  1.00  0.00    -0.100 C  
HETATM   20  O   UNL     1      -7.950   8.122  66.802  1.00  0.00    -0.100 OA 
HETATM   21  H   UNL     1      -8.694   8.541  66.385  1.00  0.00     0.000 HD 
BRANCH  19  22
HETATM   22  C   UNL     1      -8.279  11.178  68.509  1.00  0.00    -0.149 C  
BRANCH  22  23
HETATM   23  C   UNL     1      -9.764  11.544  68.576  1.00  0.00    -0.191 C  
BRANCH  23  24
HETATM   24  C   UNL     1     -10.633  10.872  67.506  1.00  0.00    -0.230 C  
HETATM   25  O   UNL     1     -11.839  10.381  68.094  1.00  0.00    -0.761 OA 
HETATM   26  H   UNL     1     -12.377   9.965  67.431  1.00  0.00     0.000 HD 
BRANCH  24  27
HETATM   27  C   UNL     1     -11.037  11.865  66.406  1.00  0.00    -0.359 C  
BRANCH  27  28
HETATM   28  C   UNL     1     -11.971  12.965  66.911  1.00  0.00    -0.402 C  
BRANCH  28  29
HETATM   29  C   UNL     1     -11.464  14.342  66.575  1.00  0.00    -0.368 A  
HETATM   30  C   UNL     1     -11.356  14.743  65.237  1.00  0.00    -0.363 A  
HETATM   31  C   UNL     1     -10.892  16.018  64.919  1.00  0.00    -0.391 A  
HETATM   32  C   UNL     1     -10.528  16.900  65.934  1.00  0.00    -0.294 A  
HETATM   33  C   UNL     1     -10.623  16.505  67.269  1.00  0.00    -0.285 A  
HETATM   34  C   UNL     1     -11.088  15.229  67.589  1.00  0.00    -0.323 A  
ENDBRANCH  28  29
ENDBRANCH  27  28
ENDBRANCH  24  27
ENDBRANCH  23  24
ENDBRANCH  22  23
ENDBRANCH  19  22
ENDBRANCH  12  13
ENDBRANCH  11  12
ENDBRANCH   9  10
ENDBRANCH   8   9
ENDBRANCH   7   8
ENDBRANCH   5   7
ENDBRANCH   4   5
ENDBRANCH   2   4
TORSDOF 14
ENDMDL
MODEL      269
REMARK 921   NORMALIZED FREE ENERGY PREDICTED BY IDOCK:   -3.55 KCAL/MOL
REMARK 922        TOTAL FREE ENERGY PREDICTED BY IDOCK:   -9.75 KCAL/MOL
REMARK 923 INTER-LIGAND FREE ENERGY PREDICTED BY IDOCK:   -7.86 KCAL/MOL
REMARK 924 INTRA-LIGAND FREE ENERGY PREDICTED BY IDOCK:   -1.89 KCAL/MOL
REMARK 927      BINDING AFFINITY PREDICTED BY RF-SCORE:    0.00 PKD
ROOT
HETATM    1  C   UNL     1     -10.293  17.373  65.866  1.00  0.00    -0.276 C  
HETATM    2  C   UNL     1      -9.615  18.684  66.250  1.00  0.00    -0.283 C  
HETATM    3  C   UNL     1     -10.580  19.854  66.108  1.00  0.00    -0.526 C  
ENDROOT
BRANCH   2   4
HETATM    4  O   UNL     1      -9.205  18.625  67.629  1.00  0.00    -0.278 OA 
BRANCH   4   5
HETATM    5  C   UNL     1      -7.950  19.097  67.881  1.00  0.00    -0.284 C  
HETATM    6  O   UNL     1      -7.564  20.238  67.656  1.00  0.00    -0.296 OA 
BRANCH   5   7
HETATM    7  C   UNL     1      -7.100  17.995  68.460  1.00  0.00    -0.257 C  
BRANCH   7   8
HETATM    8  C   UNL     1      -7.960  16.793  68.853  1.00  0.00    -0.237 C  
BRANCH   8   9
HETATM    9  C   UNL     1      -7.803  15.606  67.907  1.00  0.00    -0.143 C  
BRANCH   9  10
HETATM   10  C   UNL     1      -8.018  14.290  68.600  1.00  0.00    -0.139 C  
HETATM   11  C   UNL     1      -9.057  13.454  68.430  1.00  0.00    -0.142 C  
BRANCH  11  12
HETATM   12  C   UNL     1     -10.215  13.641  67.492  1.00  0.00    -0.241 C  
BRANCH  12  13
HETATM   13  C   UNL     1     -10.515  12.465  66.547  1.00  0.00    -0.254 C  
HETATM   14  C   UNL     1     -11.532  12.875  65.465  1.00  0.00    -0.326 C  
HETATM   15  C   UNL     1     -11.431  11.752  64.451  1.00  0.00    -0.349 C  
HETATM   16  O   UNL     1     -11.151  14.088  64.816  1.00  0.00    -0.354 OA 
HETATM   17  C   UNL     1      -9.931  11.492  64.365  1.00  0.00    -0.269 C  
HETATM   18  H   UNL     1     -11.779  14.341  64.149  1.00  0.00     0.000 HD 
HETATM   19  C   UNL     1      -9.315  11.941  65.718  1.00  0.00    -0.165 C  
HETATM   20  O   UNL     1      -9.358  12.270  63.316  1.00  0.00    -0.647 OA 
HETATM   21  H   UNL     1      -8.423  12.108  63.263  1.00  0.00     0.000 HD 
BRANCH  19  22
HETATM   22  C   UNL     1      -8.567  10.782  66.402  1.00  0.00    -0.159 C  
BRANCH  22  23
HETATM   23  C   UNL     1      -9.462  10.092  67.435  1.00  0.00    -0.176 C  
BRANCH  23  24
HETATM   24  C   UNL     1      -9.509   8.564  67.315  1.00  0.00    -0.157 C  
HETATM   25  O   UNL     1      -8.186   8.029  67.362  1.00  0.00    -0.120 OA 
HETATM   26  H   UNL     1      -8.214   7.083  67.289  1.00  0.00     0.000 HD 
BRANCH  24  27
HETATM   27  C   UNL     1     -10.294   7.935  68.477  1.00  0.00    -0.229 C  
BRANCH  27  28
HETATM   28  C   UNL     1     -10.382   8.849  69.699  1.00  0.00    -0.214 C  
BRANCH  28  29
HETATM   29  C   UNL     1      -9.748   8.235  70.917  1.00  0.00    -0.204 A  
HETATM   30  C   UNL     1     -10.350   8.385  72.174  1.00  0.00    -0.397 A  
HETATM   31  C   UNL     1      -9.770   7.815  73.306  1.00  0.00    -0.357 A  
HETATM   32  C   UNL     1      -8.582   7.095  73.192  1.00  0.00    -0.147 A  
HETATM   33  C   UNL     1      -7.971   6.949  71.947  1.00  0.00    -0.099 A  
HETATM   34  C   UNL     1      -8.551   7.519  70.812  1.00  0.00    -0.135 A  
ENDBRANCH  28  29
ENDBRANCH  27  28
ENDBRANCH  24  27
ENDBRANCH  23  24
ENDBRANCH  22  23
ENDBRANCH  19  22
ENDBRANCH  12  13
ENDBRANCH  11  12
ENDBRANCH   9  10
ENDBRANCH   8   9
ENDBRANCH   7   8
ENDBRANCH   5   7
ENDBRANCH   4   5
ENDBRANCH   2   4
TORSDOF 14
ENDMDL
MODEL      270
REMARK 921   NORMALIZED FREE ENERGY PREDICTED BY IDOCK:   -3.55 KCAL/MOL
REMARK 922        TOTAL FREE ENERGY PREDICTED BY IDOCK:   -9.75 KCAL/MOL
REMARK 923 INTER-LIGAND FREE ENERGY PREDICTED BY IDOCK:   -7.97 KCAL/MOL
REMARK 924 INTRA-LIGAND FREE ENERGY PREDICTED BY IDOCK:   -1.78 KCAL/MOL
REMARK 927      BINDING AFFINITY PREDICTED BY RF-SCORE:    0.00 PKD
ROOT
HETATM    1  C   UNL     1      -7.037  11.244  69.100  1.00  0.00    -0.122 C  
HETATM    2  C   UNL     1      -7.406  12.551  68.408  1.00  0.00    -0.114 C  
HETATM    3  C   UNL     1      -6.168  13.404  68.166  1.00  0.00    -0.111 C  
ENDROOT
BRANCH   2   4
HETATM    4  O   UNL     1      -7.993  12.266  67.124  1.00  0.00    -0.169 OA 
BRANCH   4   5
HETATM    5  C   UNL     1      -7.383  11.270  66.417  1.00  0.00    -0.058 C  
HETATM    6  O   UNL     1      -6.182  11.198  66.189  1.00  0.00    -0.133 OA 
BRANCH   5   7
HETATM    7  C   UNL     1      -8.415  10.282  65.937  1.00  0.00    -0.154 C  
BRANCH   7   8
HETATM    8  C   UNL     1      -8.657  10.434  64.434  1.00  0.00    -0.185 C  
BRANCH   8   9
HETATM    9  C   UNL     1     -10.122  10.684  64.084  1.00  0.00    -0.402 C  
BRANCH   9  10
HETATM   10  C   UNL     1     -10.400  12.130  63.785  1.00  0.00    -0.465 C  
HETATM   11  C   UNL     1     -11.226  12.945  64.464  1.00  0.00    -0.372 C  
BRANCH  11  12
HETATM   12  C   UNL     1     -12.032  12.595  65.682  1.00  0.00    -0.507 C  
BRANCH  12  13
HETATM   13  C   UNL     1     -11.277  12.626  67.022  1.00  0.00    -0.348 C  
HETATM   14  C   UNL     1     -11.126  14.070  67.534  1.00  0.00    -0.298 C  
HETATM   15  C   UNL     1     -10.704  13.883  68.979  1.00  0.00    -0.219 C  
HETATM   16  O   UNL     1     -12.374  14.764  67.529  1.00  0.00    -0.536 OA 
HETATM   17  C   UNL     1     -11.593  12.740  69.458  1.00  0.00    -0.276 C  
HETATM   18  H   UNL     1     -12.281  15.656  67.844  1.00  0.00     0.000 HD 
HETATM   19  C   UNL     1     -11.972  11.906  68.206  1.00  0.00    -0.235 C  
HETATM   20  O   UNL     1     -12.784  13.259  70.046  1.00  0.00    -0.054 OA 
HETATM   21  H   UNL     1     -13.338  12.547  70.344  1.00  0.00     0.000 HD 
BRANCH  19  22
HETATM   22  C   UNL     1     -11.536  10.437  68.361  1.00  0.00    -0.227 C  
BRANCH  22  23
HETATM   23  C   UNL     1     -11.135  10.139  69.809  1.00  0.00    -0.328 C  
BRANCH  23  24
HETATM   24  C   UNL     1      -9.998   9.122  69.957  1.00  0.00    -0.199 C  
HETATM   25  O   UNL     1      -9.639   8.986  71.332  1.00  0.00    -0.273 OA 
HETATM   26  H   UNL     1      -8.935   8.355  71.424  1.00  0.00     0.000 HD 
BRANCH  24  27
HETATM   27  C   UNL     1     -10.421   7.731  69.459  1.00  0.00    -0.225 C  
BRANCH  27  28
HETATM   28  C   UNL     1     -11.263   6.965  70.480  1.00  0.00    -0.353 C  
BRANCH  28  29
HETATM   29  C   UNL     1     -10.632   5.657  70.871  1.00  0.00    -0.328 A  
HETATM   30  C   UNL     1     -10.107   4.808  69.887  1.00  0.00    -0.299 A  
HETATM   31  C   UNL     1      -9.517   3.597  70.243  1.00  0.00    -0.257 A  
HETATM   32  C   UNL     1      -9.451   3.222  71.583  1.00  0.00    -0.220 A  
HETATM   33  C   UNL     1      -9.979   4.055  72.568  1.00  0.00    -0.222 A  
HETATM   34  C   UNL     1     -10.570   5.269  72.214  1.00  0.00    -0.280 A  
ENDBRANCH  28  29
ENDBRANCH  27  28
ENDBRANCH  24  27
ENDBRANCH  23  24
ENDBRANCH  22  23
ENDBRANCH  19  22
ENDBRANCH  12  13
ENDBRANCH  11  12
ENDBRANCH   9  10
ENDBRANCH   8   9
ENDBRANCH   7   8
ENDBRANCH   5   7
ENDBRANCH   4   5
ENDBRANCH   2   4
TORSDOF 14
ENDMDL
MODEL      271
REMARK 921   NORMALIZED FREE ENERGY PREDICTED BY IDOCK:   -3.54 KCAL/MOL
REMARK 922        TOTAL FREE ENERGY PREDICTED BY IDOCK:   -9.73 KCAL/MOL
REMARK 923 INTER-LIGAND FREE ENERGY PREDICTED BY IDOCK:   -7.36 KCAL/MOL
REMARK 924 INTRA-LIGAND FREE ENERGY PREDICTED BY IDOCK:   -2.36 KCAL/MOL
REMARK 927      BINDING AFFINITY PREDICTED BY RF-SCORE:    0.00 PKD
ROOT
HETATM    1  C   UNL     1     -10.582   2.049  72.963  1.00  0.00    -0.237 C  
HETATM    2  C   UNL     1      -9.942   3.433  72.969  1.00  0.00    -0.143 C  
HETATM    3  C   UNL     1     -10.926   4.481  73.472  1.00  0.00    -0.387 C  
ENDROOT
BRANCH   2   4
HETATM    4  O   UNL     1      -8.813   3.435  73.862  1.00  0.00    -0.087 OA 
BRANCH   4   5
HETATM    5  C   UNL     1      -7.921   4.448  73.667  1.00  0.00    -0.094 C  
HETATM    6  O   UNL     1      -7.569   5.255  74.519  1.00  0.00    -0.088 OA 
BRANCH   5   7
HETATM    7  C   UNL     1      -7.449   4.441  72.236  1.00  0.00    -0.073 C  
BRANCH   7   8
HETATM    8  C   UNL     1      -7.196   5.866  71.739  1.00  0.00    -0.091 C  
BRANCH   8   9
HETATM    9  C   UNL     1      -7.844   6.155  70.388  1.00  0.00    -0.106 C  
BRANCH   9  10
HETATM   10  C   UNL     1      -9.343   6.232  70.477  1.00  0.00    -0.171 C  
HETATM   11  C   UNL     1     -10.225   5.415  69.877  1.00  0.00    -0.351 C  
BRANCH  11  12
HETATM   12  C   UNL     1      -9.906   4.233  69.008  1.00  0.00    -0.148 C  
BRANCH  12  13
HETATM   13  C   UNL     1      -9.395   4.554  67.592  1.00  0.00    -0.176 C  
HETATM   14  C   UNL     1      -8.780   3.305  66.934  1.00  0.00    -0.125 C  
HETATM   15  C   UNL     1      -8.670   3.701  65.474  1.00  0.00    -0.119 C  
HETATM   16  O   UNL     1      -9.655   2.179  67.018  1.00  0.00    -0.390 OA 
HETATM   17  C   UNL     1      -9.986   4.426  65.209  1.00  0.00    -0.200 C  
HETATM   18  H   UNL     1      -9.275   1.409  66.612  1.00  0.00     0.000 HD 
HETATM   19  C   UNL     1     -10.472   4.994  66.569  1.00  0.00    -0.325 C  
HETATM   20  O   UNL     1     -10.960   3.508  64.716  1.00  0.00    -0.475 OA 
HETATM   21  H   UNL     1     -11.780   3.960  64.551  1.00  0.00     0.000 HD 
BRANCH  19  22
HETATM   22  C   UNL     1     -10.655   6.522  66.502  1.00  0.00    -0.125 C  
BRANCH  22  23
HETATM   23  C   UNL     1      -9.332   7.240  66.780  1.00  0.00    -0.203 C  
BRANCH  23  24
HETATM   24  C   UNL     1      -9.411   8.770  66.707  1.00  0.00    -0.179 C  
HETATM   25  O   UNL     1      -8.530   9.351  67.669  1.00  0.00    -0.118 OA 
HETATM   26  H   UNL     1      -8.578  10.298  67.623  1.00  0.00     0.000 HD 
BRANCH  24  27
HETATM   27  C   UNL     1      -8.980   9.287  65.326  1.00  0.00    -0.260 C  
BRANCH  27  28
HETATM   28  C   UNL     1      -8.718  10.793  65.310  1.00  0.00    -0.183 C  
BRANCH  28  29
HETATM   29  C   UNL     1      -9.989  11.592  65.212  1.00  0.00    -0.302 A  
HETATM   30  C   UNL     1     -10.658  11.698  63.985  1.00  0.00    -0.426 A  
HETATM   31  C   UNL     1     -11.839  12.432  63.888  1.00  0.00    -0.551 A  
HETATM   32  C   UNL     1     -12.357  13.070  65.013  1.00  0.00    -0.526 A  
HETATM   33  C   UNL     1     -11.692  12.978  66.236  1.00  0.00    -0.440 A  
HETATM   34  C   UNL     1     -10.510  12.242  66.335  1.00  0.00    -0.263 A  
ENDBRANCH  28  29
ENDBRANCH  27  28
ENDBRANCH  24  27
ENDBRANCH  23  24
ENDBRANCH  22  23
ENDBRANCH  19  22
ENDBRANCH  12  13
ENDBRANCH  11  12
ENDBRANCH   9  10
ENDBRANCH   8   9
ENDBRANCH   7   8
ENDBRANCH   5   7
ENDBRANCH   4   5
ENDBRANCH   2   4
TORSDOF 14
ENDMDL
MODEL      272
REMARK 921   NORMALIZED FREE ENERGY PREDICTED BY IDOCK:   -3.52 KCAL/MOL
REMARK 922        TOTAL FREE ENERGY PREDICTED BY IDOCK:   -9.70 KCAL/MOL
REMARK 923 INTER-LIGAND FREE ENERGY PREDICTED BY IDOCK:   -7.83 KCAL/MOL
REMARK 924 INTRA-LIGAND FREE ENERGY PREDICTED BY IDOCK:   -1.87 KCAL/MOL
REMARK 927      BINDING AFFINITY PREDICTED BY RF-SCORE:    0.00 PKD
ROOT
HETATM    1  C   UNL     1     -10.061   4.585  66.460  1.00  0.00    -0.257 C  
HETATM    2  C   UNL     1      -8.795   5.081  67.150  1.00  0.00    -0.106 C  
HETATM    3  C   UNL     1      -7.812   5.649  66.134  1.00  0.00    -0.100 C  
ENDROOT
BRANCH   2   4
HETATM    4  O   UNL     1      -9.132   6.141  68.064  1.00  0.00    -0.117 OA 
BRANCH   4   5
HETATM    5  C   UNL     1     -10.404   6.623  67.950  1.00  0.00    -0.189 C  
HETATM    6  O   UNL     1     -10.826   7.291  67.014  1.00  0.00    -0.357 OA 
BRANCH   5   7
HETATM    7  C   UNL     1     -11.208   6.228  69.162  1.00  0.00    -0.439 C  
BRANCH   7   8
HETATM    8  C   UNL     1     -10.348   6.282  70.426  1.00  0.00    -0.260 C  
BRANCH   8   9
HETATM    9  C   UNL     1     -11.024   7.015  71.582  1.00  0.00    -0.258 C  
BRANCH   9  10
HETATM   10  C   UNL     1     -11.432   8.413  71.212  1.00  0.00    -0.325 C  
HETATM   11  C   UNL     1     -10.619   9.409  70.823  1.00  0.00    -0.371 C  
BRANCH  11  12
HETATM   12  C   UNL     1      -9.129   9.336  70.648  1.00  0.00    -0.309 C  
BRANCH  12  13
HETATM   13  C   UNL     1      -8.538  10.203  69.522  1.00  0.00    -0.177 C  
HETATM   14  C   UNL     1      -7.250   9.571  68.962  1.00  0.00    -0.071 C  
HETATM   15  C   UNL     1      -7.022  10.336  67.672  1.00  0.00    -0.084 C  
HETATM   16  O   UNL     1      -7.440   8.196  68.628  1.00  0.00    -0.093 OA 
HETATM   17  C   UNL     1      -8.423  10.446  67.078  1.00  0.00    -0.127 C  
HETATM   18  H   UNL     1      -6.645   7.806  68.282  1.00  0.00     0.000 HD 
HETATM   19  C   UNL     1      -9.424  10.369  68.261  1.00  0.00    -0.153 C  
HETATM   20  O   UNL     1      -8.667   9.354  66.194  1.00  0.00    -0.138 OA 
HETATM   21  H   UNL     1      -9.539   9.422  65.824  1.00  0.00     0.000 HD 
BRANCH  19  22
HETATM   22  C   UNL     1     -10.323  11.618  68.314  1.00  0.00    -0.212 C  
BRANCH  22  23
HETATM   23  C   UNL     1      -9.897  12.639  67.254  1.00  0.00    -0.206 C  
BRANCH  23  24
HETATM   24  C   UNL     1     -10.992  12.999  66.243  1.00  0.00    -0.284 C  
HETATM   25  O   UNL     1     -12.088  12.093  66.366  1.00  0.00    -0.630 OA 
HETATM   26  H   UNL     1     -12.767  12.316  65.740  1.00  0.00     0.000 HD 
BRANCH  24  27
HETATM   27  C   UNL     1     -11.541  14.412  66.490  1.00  0.00    -0.388 C  
BRANCH  27  28
HETATM   28  C   UNL     1     -10.916  15.087  67.712  1.00  0.00    -0.298 C  
BRANCH  28  29
HETATM   29  C   UNL     1     -10.111  16.303  67.341  1.00  0.00    -0.260 A  
HETATM   30  C   UNL     1      -8.876  16.157  66.694  1.00  0.00    -0.298 A  
HETATM   31  C   UNL     1      -8.127  17.279  66.343  1.00  0.00    -0.328 A  
HETATM   32  C   UNL     1      -8.604  18.554  66.640  1.00  0.00    -0.295 A  
HETATM   33  C   UNL     1      -9.826  18.708  67.293  1.00  0.00    -0.345 A  
HETATM   34  C   UNL     1     -10.577  17.586  67.644  1.00  0.00    -0.355 A  
ENDBRANCH  28  29
ENDBRANCH  27  28
ENDBRANCH  24  27
ENDBRANCH  23  24
ENDBRANCH  22  23
ENDBRANCH  19  22
ENDBRANCH  12  13
ENDBRANCH  11  12
ENDBRANCH   9  10
ENDBRANCH   8   9
ENDBRANCH   7   8
ENDBRANCH   5   7
ENDBRANCH   4   5
ENDBRANCH   2   4
TORSDOF 14
ENDMDL
MODEL      273
REMARK 921   NORMALIZED FREE ENERGY PREDICTED BY IDOCK:   -3.52 KCAL/MOL
REMARK 922        TOTAL FREE ENERGY PREDICTED BY IDOCK:   -9.70 KCAL/MOL
REMARK 923 INTER-LIGAND FREE ENERGY PREDICTED BY IDOCK:   -8.75 KCAL/MOL
REMARK 924 INTRA-LIGAND FREE ENERGY PREDICTED BY IDOCK:   -0.95 KCAL/MOL
REMARK 927      BINDING AFFINITY PREDICTED BY RF-SCORE:    0.00 PKD
ROOT
HETATM    1  C   UNL     1      -9.913   4.208  65.430  1.00  0.00    -0.211 C  
HETATM    2  C   UNL     1      -9.375   2.864  64.953  1.00  0.00    -0.142 C  
HETATM    3  C   UNL     1      -8.133   3.053  64.091  1.00  0.00    -0.082 C  
ENDROOT
BRANCH   2   4
HETATM    4  O   UNL     1      -8.994   2.069  66.092  1.00  0.00    -0.127 OA 
BRANCH   4   5
HETATM    5  C   UNL     1      -7.802   2.408  66.663  1.00  0.00    -0.072 C  
HETATM    6  O   UNL     1      -6.701   2.040  66.275  1.00  0.00    -0.033 OA 
BRANCH   5   7
HETATM    7  C   UNL     1      -8.046   3.290  67.862  1.00  0.00    -0.082 C  
BRANCH   7   8
HETATM    8  C   UNL     1      -7.141   4.522  67.824  1.00  0.00    -0.064 C  
BRANCH   8   9
HETATM    9  C   UNL     1      -7.172   5.330  69.119  1.00  0.00    -0.058 C  
BRANCH   9  10
HETATM   10  C   UNL     1      -8.145   6.474  69.057  1.00  0.00    -0.112 C  
HETATM   11  C   UNL     1      -9.420   6.467  69.482  1.00  0.00    -0.151 C  
BRANCH  11  12
HETATM   12  C   UNL     1     -10.142   5.323  70.135  1.00  0.00    -0.333 C  
BRANCH  12  13
HETATM   13  C   UNL     1     -10.757   5.613  71.516  1.00  0.00    -0.306 C  
HETATM   14  C   UNL     1      -9.913   4.979  72.637  1.00  0.00    -0.166 C  
HETATM   15  C   UNL     1     -10.443   5.651  73.890  1.00  0.00    -0.302 C  
HETATM   16  O   UNL     1      -8.531   5.314  72.511  1.00  0.00    -0.117 OA 
HETATM   17  C   UNL     1     -10.607   7.106  73.464  1.00  0.00    -0.374 C  
HETATM   18  H   UNL     1      -8.011   4.923  73.203  1.00  0.00     0.000 HD 
HETATM   19  C   UNL     1     -10.820   7.106  71.927  1.00  0.00    -0.255 C  
HETATM   20  O   UNL     1      -9.425   7.843  73.768  1.00  0.00    -0.309 OA 
HETATM   21  H   UNL     1      -9.528   8.749  73.502  1.00  0.00     0.000 HD 
BRANCH  19  22
HETATM   22  C   UNL     1     -12.151   7.783  71.548  1.00  0.00    -0.336 C  
BRANCH  22  23
HETATM   23  C   UNL     1     -11.910   9.204  71.031  1.00  0.00    -0.354 C  
BRANCH  23  24
HETATM   24  C   UNL     1     -13.150  10.106  71.052  1.00  0.00    -0.375 C  
HETATM   25  O   UNL     1     -13.870   9.919  72.270  1.00  0.00    -0.486 OA 
HETATM   26  H   UNL     1     -14.638  10.479  72.284  1.00  0.00     0.000 HD 
BRANCH  24  27
HETATM   27  C   UNL     1     -12.763  11.591  70.976  1.00  0.00    -0.426 C  
BRANCH  27  28
HETATM   28  C   UNL     1     -13.461  12.442  72.038  1.00  0.00    -0.460 C  
BRANCH  28  29
HETATM   29  C   UNL     1     -12.916  13.844  72.093  1.00  0.00    -0.441 A  
HETATM   30  C   UNL     1     -13.009  14.587  73.277  1.00  0.00    -0.500 A  
HETATM   31  C   UNL     1     -12.502  15.884  73.337  1.00  0.00    -0.655 A  
HETATM   32  C   UNL     1     -11.904  16.450  72.212  1.00  0.00    -0.531 A  
HETATM   33  C   UNL     1     -11.817  15.721  71.027  1.00  0.00    -0.460 A  
HETATM   34  C   UNL     1     -12.323  14.422  70.966  1.00  0.00    -0.427 A  
ENDBRANCH  28  29
ENDBRANCH  27  28
ENDBRANCH  24  27
ENDBRANCH  23  24
ENDBRANCH  22  23
ENDBRANCH  19  22
ENDBRANCH  12  13
ENDBRANCH  11  12
ENDBRANCH   9  10
ENDBRANCH   8   9
ENDBRANCH   7   8
ENDBRANCH   5   7
ENDBRANCH   4   5
ENDBRANCH   2   4
TORSDOF 14
ENDMDL
MODEL      274
REMARK 921   NORMALIZED FREE ENERGY PREDICTED BY IDOCK:   -3.52 KCAL/MOL
REMARK 922        TOTAL FREE ENERGY PREDICTED BY IDOCK:   -9.70 KCAL/MOL
REMARK 923 INTER-LIGAND FREE ENERGY PREDICTED BY IDOCK:   -6.54 KCAL/MOL
REMARK 924 INTRA-LIGAND FREE ENERGY PREDICTED BY IDOCK:   -3.16 KCAL/MOL
REMARK 927      BINDING AFFINITY PREDICTED BY RF-SCORE:    0.00 PKD
ROOT
HETATM    1  C   UNL     1      -9.806  11.191  63.474  1.00  0.00    -0.392 C  
HETATM    2  C   UNL     1     -10.255  11.923  64.734  1.00  0.00    -0.276 C  
HETATM    3  C   UNL     1     -11.687  12.421  64.589  1.00  0.00    -0.426 C  
ENDROOT
BRANCH   2   4
HETATM    4  O   UNL     1     -10.222  11.017  65.852  1.00  0.00    -0.239 OA 
BRANCH   4   5
HETATM    5  C   UNL     1      -9.630  11.509  66.979  1.00  0.00    -0.185 C  
HETATM    6  O   UNL     1      -8.451  11.825  67.080  1.00  0.00    -0.162 OA 
BRANCH   5   7
HETATM    7  C   UNL     1     -10.642  11.583  68.094  1.00  0.00    -0.226 C  
BRANCH   7   8
HETATM    8  C   UNL     1     -11.307  10.223  68.316  1.00  0.00    -0.245 C  
BRANCH   8   9
HETATM    9  C   UNL     1     -10.332   9.148  68.789  1.00  0.00    -0.235 C  
BRANCH   9  10
HETATM   10  C   UNL     1     -10.431   7.888  67.977  1.00  0.00    -0.245 C  
HETATM   11  C   UNL     1     -11.043   6.747  68.337  1.00  0.00    -0.214 C  
BRANCH  11  12
HETATM   12  C   UNL     1     -11.783   6.491  69.618  1.00  0.00    -0.231 C  
BRANCH  12  13
HETATM   13  C   UNL     1     -10.979   6.690  70.914  1.00  0.00    -0.315 C  
HETATM   14  C   UNL     1     -11.814   7.439  71.969  1.00  0.00    -0.298 C  
HETATM   15  C   UNL     1     -11.026   7.229  73.248  1.00  0.00    -0.355 C  
HETATM   16  O   UNL     1     -13.100   6.844  72.143  1.00  0.00    -0.539 OA 
HETATM   17  C   UNL     1     -10.604   5.766  73.162  1.00  0.00    -0.244 C  
HETATM   18  H   UNL     1     -13.615   7.306  72.794  1.00  0.00     0.000 HD 
HETATM   19  C   UNL     1     -10.559   5.396  71.655  1.00  0.00    -0.284 C  
HETATM   20  O   UNL     1     -11.565   4.938  73.813  1.00  0.00    -0.390 OA 
HETATM   21  H   UNL     1     -11.302   4.027  73.759  1.00  0.00     0.000 HD 
BRANCH  19  22
HETATM   22  C   UNL     1      -9.163   4.890  71.246  1.00  0.00    -0.190 C  
BRANCH  22  23
HETATM   23  C   UNL     1      -9.265   3.880  70.099  1.00  0.00    -0.217 C  
BRANCH  23  24
HETATM   24  C   UNL     1      -7.939   3.590  69.387  1.00  0.00    -0.050 C  
HETATM   25  O   UNL     1      -8.178   3.287  68.013  1.00  0.00    -0.077 OA 
HETATM   26  H   UNL     1      -7.356   3.107  67.572  1.00  0.00     0.000 HD 
BRANCH  24  27
HETATM   27  C   UNL     1      -7.003   4.808  69.428  1.00  0.00    -0.051 C  
BRANCH  27  28
HETATM   28  C   UNL     1      -7.434   5.920  68.471  1.00  0.00    -0.086 C  
BRANCH  28  29
HETATM   29  C   UNL     1      -7.008   7.281  68.952  1.00  0.00    -0.078 A  
HETATM   30  C   UNL     1      -7.405   7.735  70.217  1.00  0.00    -0.067 A  
HETATM   31  C   UNL     1      -7.010   8.992  70.670  1.00  0.00    -0.076 A  
HETATM   32  C   UNL     1      -6.220   9.807  69.861  1.00  0.00    -0.051 A  
HETATM   33  C   UNL     1      -5.829   9.368  68.597  1.00  0.00    -0.040 A  
HETATM   34  C   UNL     1      -6.224   8.109  68.142  1.00  0.00    -0.050 A  
ENDBRANCH  28  29
ENDBRANCH  27  28
ENDBRANCH  24  27
ENDBRANCH  23  24
ENDBRANCH  22  23
ENDBRANCH  19  22
ENDBRANCH  12  13
ENDBRANCH  11  12
ENDBRANCH   9  10
ENDBRANCH   8   9
ENDBRANCH   7   8
ENDBRANCH   5   7
ENDBRANCH   4   5
ENDBRANCH   2   4
TORSDOF 14
ENDMDL
MODEL      275
REMARK 921   NORMALIZED FREE ENERGY PREDICTED BY IDOCK:   -3.48 KCAL/MOL
REMARK 922        TOTAL FREE ENERGY PREDICTED BY IDOCK:   -9.63 KCAL/MOL
REMARK 923 INTER-LIGAND FREE ENERGY PREDICTED BY IDOCK:   -7.40 KCAL/MOL
REMARK 924 INTRA-LIGAND FREE ENERGY PREDICTED BY IDOCK:   -2.23 KCAL/MOL
REMARK 927      BINDING AFFINITY PREDICTED BY RF-SCORE:    0.00 PKD
ROOT
HETATM    1  C   UNL     1      -9.552   3.929  66.617  1.00  0.00    -0.215 C  
HETATM    2  C   UNL     1      -8.544   3.234  67.526  1.00  0.00    -0.104 C  
HETATM    3  C   UNL     1      -7.158   3.235  66.895  1.00  0.00    -0.058 C  
ENDROOT
BRANCH   2   4
HETATM    4  O   UNL     1      -8.453   3.946  68.773  1.00  0.00    -0.076 OA 
BRANCH   4   5
HETATM    5  C   UNL     1      -9.109   3.367  69.821  1.00  0.00    -0.129 C  
HETATM    6  O   UNL     1      -9.150   2.166  70.053  1.00  0.00    -0.087 OA 
BRANCH   5   7
HETATM    7  C   UNL     1      -9.795   4.430  70.640  1.00  0.00    -0.280 C  
BRANCH   7   8
HETATM    8  C   UNL     1     -10.115   3.913  72.044  1.00  0.00    -0.220 C  
BRANCH   8   9
HETATM    9  C   UNL     1     -11.100   4.801  72.801  1.00  0.00    -0.248 C  
BRANCH   9  10
HETATM   10  C   UNL     1     -11.725   5.844  71.919  1.00  0.00    -0.208 C  
HETATM   11  C   UNL     1     -11.593   7.177  72.035  1.00  0.00    -0.317 C  
BRANCH  11  12
HETATM   12  C   UNL     1     -10.773   7.912  73.056  1.00  0.00    -0.408 C  
BRANCH  12  13
HETATM   13  C   UNL     1      -9.404   8.426  72.579  1.00  0.00    -0.346 C  
HETATM   14  C   UNL     1      -8.287   7.994  73.548  1.00  0.00    -0.233 C  
HETATM   15  C   UNL     1      -7.020   8.262  72.759  1.00  0.00    -0.119 C  
HETATM   16  O   UNL     1      -8.343   6.595  73.827  1.00  0.00    -0.112 OA 
HETATM   17  C   UNL     1      -7.372   7.773  71.358  1.00  0.00    -0.067 C  
HETATM   18  H   UNL     1      -7.654   6.329  74.426  1.00  0.00     0.000 HD 
HETATM   19  C   UNL     1      -8.914   7.877  71.215  1.00  0.00    -0.155 C  
HETATM   20  O   UNL     1      -6.984   6.409  71.203  1.00  0.00    -0.065 OA 
HETATM   21  H   UNL     1      -7.203   6.105  70.330  1.00  0.00     0.000 HD 
BRANCH  19  22
HETATM   22  C   UNL     1      -9.305   8.774  70.026  1.00  0.00    -0.175 C  
BRANCH  22  23
HETATM   23  C   UNL     1      -9.572   7.932  68.775  1.00  0.00    -0.152 C  
BRANCH  23  24
HETATM   24  C   UNL     1      -8.936   8.480  67.492  1.00  0.00    -0.135 C  
HETATM   25  O   UNL     1      -8.395   7.409  66.718  1.00  0.00    -0.117 OA 
HETATM   26  H   UNL     1      -8.001   7.748  65.923  1.00  0.00     0.000 HD 
BRANCH  24  27
HETATM   27  C   UNL     1      -9.974   9.196  66.614  1.00  0.00    -0.343 C  
BRANCH  27  28
HETATM   28  C   UNL     1     -10.118  10.679  66.952  1.00  0.00    -0.260 C  
BRANCH  28  29
HETATM   29  C   UNL     1     -10.796  11.451  65.853  1.00  0.00    -0.292 A  
HETATM   30  C   UNL     1     -11.804  12.374  66.164  1.00  0.00    -0.442 A  
HETATM   31  C   UNL     1     -12.434  13.097  65.151  1.00  0.00    -0.539 A  
HETATM   32  C   UNL     1     -12.066  12.898  63.822  1.00  0.00    -0.583 A  
HETATM   33  C   UNL     1     -11.071  11.974  63.504  1.00  0.00    -0.519 A  
HETATM   34  C   UNL     1     -10.439  11.251  64.516  1.00  0.00    -0.396 A  
ENDBRANCH  28  29
ENDBRANCH  27  28
ENDBRANCH  24  27
ENDBRANCH  23  24
ENDBRANCH  22  23
ENDBRANCH  19  22
ENDBRANCH  12  13
ENDBRANCH  11  12
ENDBRANCH   9  10
ENDBRANCH   8   9
ENDBRANCH   7   8
ENDBRANCH   5   7
ENDBRANCH   4   5
ENDBRANCH   2   4
TORSDOF 14
ENDMDL
MODEL      276
REMARK 921   NORMALIZED FREE ENERGY PREDICTED BY IDOCK:   -3.48 KCAL/MOL
REMARK 922        TOTAL FREE ENERGY PREDICTED BY IDOCK:   -9.62 KCAL/MOL
REMARK 923 INTER-LIGAND FREE ENERGY PREDICTED BY IDOCK:   -7.89 KCAL/MOL
REMARK 924 INTRA-LIGAND FREE ENERGY PREDICTED BY IDOCK:   -1.73 KCAL/MOL
REMARK 927      BINDING AFFINITY PREDICTED BY RF-SCORE:    0.00 PKD
ROOT
HETATM    1  C   UNL     1     -12.571  12.025  63.564  1.00  0.00    -0.625 C  
HETATM    2  C   UNL     1     -11.614  13.160  63.909  1.00  0.00    -0.433 C  
HETATM    3  C   UNL     1     -12.376  14.457  64.145  1.00  0.00    -0.340 C  
ENDROOT
BRANCH   2   4
HETATM    4  O   UNL     1     -10.912  12.842  65.125  1.00  0.00    -0.280 OA 
BRANCH   4   5
HETATM    5  C   UNL     1     -10.200  11.679  65.096  1.00  0.00    -0.274 C  
HETATM    6  O   UNL     1      -9.433  11.340  64.204  1.00  0.00    -0.222 OA 
BRANCH   5   7
HETATM    7  C   UNL     1     -10.517  10.859  66.321  1.00  0.00    -0.304 C  
BRANCH   7   8
HETATM    8  C   UNL     1     -11.466  11.616  67.252  1.00  0.00    -0.350 C  
BRANCH   8   9
HETATM    9  C   UNL     1     -11.430  11.107  68.690  1.00  0.00    -0.363 C  
BRANCH   9  10
HETATM   10  C   UNL     1     -10.053  10.678  69.111  1.00  0.00    -0.234 C  
HETATM   11  C   UNL     1      -9.744   9.857  70.129  1.00  0.00    -0.255 C  
BRANCH  11  12
HETATM   12  C   UNL     1     -10.708   9.168  71.051  1.00  0.00    -0.363 C  
BRANCH  12  13
HETATM   13  C   UNL     1     -10.089   8.209  72.083  1.00  0.00    -0.320 C  
HETATM   14  C   UNL     1     -11.155   7.700  73.070  1.00  0.00    -0.381 C  
HETATM   15  C   UNL     1     -10.467   6.534  73.753  1.00  0.00    -0.335 C  
HETATM   16  O   UNL     1     -12.304   7.194  72.390  1.00  0.00    -0.494 OA 
HETATM   17  C   UNL     1      -9.750   5.830  72.605  1.00  0.00    -0.153 C  
HETATM   18  H   UNL     1     -12.963   6.881  72.999  1.00  0.00     0.000 HD 
HETATM   19  C   UNL     1      -9.488   6.900  71.512  1.00  0.00    -0.155 C  
HETATM   20  O   UNL     1     -10.582   4.807  72.062  1.00  0.00    -0.186 OA 
HETATM   21  H   UNL     1     -10.136   4.369  71.347  1.00  0.00     0.000 HD 
BRANCH  19  22
HETATM   22  C   UNL     1      -7.985   7.013  71.191  1.00  0.00    -0.104 C  
BRANCH  22  23
HETATM   23  C   UNL     1      -7.757   7.084  69.679  1.00  0.00    -0.110 C  
BRANCH  23  24
HETATM   24  C   UNL     1      -8.866   6.441  68.837  1.00  0.00    -0.125 C  
HETATM   25  O   UNL     1      -9.187   7.282  67.729  1.00  0.00    -0.128 OA 
HETATM   26  H   UNL     1      -9.874   6.884  67.207  1.00  0.00     0.000 HD 
BRANCH  24  27
HETATM   27  C   UNL     1      -8.421   5.086  68.265  1.00  0.00    -0.098 C  
BRANCH  27  28
HETATM   28  C   UNL     1      -9.591   4.137  68.007  1.00  0.00    -0.200 C  
BRANCH  28  29
HETATM   29  C   UNL     1      -9.623   3.645  66.586  1.00  0.00    -0.168 A  
HETATM   30  C   UNL     1     -10.340   4.355  65.613  1.00  0.00    -0.252 A  
HETATM   31  C   UNL     1     -10.370   3.907  64.293  1.00  0.00    -0.245 A  
HETATM   32  C   UNL     1      -9.689   2.746  63.937  1.00  0.00    -0.142 A  
HETATM   33  C   UNL     1      -8.981   2.028  64.900  1.00  0.00    -0.122 A  
HETATM   34  C   UNL     1      -8.950   2.474  66.222  1.00  0.00    -0.126 A  
ENDBRANCH  28  29
ENDBRANCH  27  28
ENDBRANCH  24  27
ENDBRANCH  23  24
ENDBRANCH  22  23
ENDBRANCH  19  22
ENDBRANCH  12  13
ENDBRANCH  11  12
ENDBRANCH   9  10
ENDBRANCH   8   9
ENDBRANCH   7   8
ENDBRANCH   5   7
ENDBRANCH   4   5
ENDBRANCH   2   4
TORSDOF 14
ENDMDL
MODEL      277
REMARK 921   NORMALIZED FREE ENERGY PREDICTED BY IDOCK:   -3.47 KCAL/MOL
REMARK 922        TOTAL FREE ENERGY PREDICTED BY IDOCK:   -9.59 KCAL/MOL
REMARK 923 INTER-LIGAND FREE ENERGY PREDICTED BY IDOCK:   -8.50 KCAL/MOL
REMARK 924 INTRA-LIGAND FREE ENERGY PREDICTED BY IDOCK:   -1.09 KCAL/MOL
REMARK 927      BINDING AFFINITY PREDICTED BY RF-SCORE:    0.00 PKD
ROOT
HETATM    1  C   UNL     1     -13.171  10.381  70.950  1.00  0.00    -0.321 C  
HETATM    2  C   UNL     1     -13.593   9.301  71.940  1.00  0.00    -0.427 C  
HETATM    3  C   UNL     1     -13.878   7.989  71.220  1.00  0.00    -0.244 C  
ENDROOT
BRANCH   2   4
HETATM    4  O   UNL     1     -12.521   9.060  72.871  1.00  0.00    -0.178 OA 
BRANCH   4   5
HETATM    5  C   UNL     1     -11.369   8.582  72.318  1.00  0.00    -0.371 C  
HETATM    6  O   UNL     1     -10.692   9.164  71.479  1.00  0.00    -0.318 OA 
BRANCH   5   7
HETATM    7  C   UNL     1     -11.065   7.217  72.879  1.00  0.00    -0.338 C  
BRANCH   7   8
HETATM    8  C   UNL     1      -9.564   6.925  72.818  1.00  0.00    -0.166 C  
BRANCH   8   9
HETATM    9  C   UNL     1      -9.245   5.520  72.314  1.00  0.00    -0.153 C  
BRANCH   9  10
HETATM   10  C   UNL     1     -10.255   5.028  71.316  1.00  0.00    -0.273 C  
HETATM   11  C   UNL     1      -9.996   4.490  70.112  1.00  0.00    -0.278 C  
BRANCH  11  12
HETATM   12  C   UNL     1      -8.642   4.241  69.512  1.00  0.00    -0.106 C  
BRANCH  12  13
HETATM   13  C   UNL     1      -8.390   4.866  68.129  1.00  0.00    -0.099 C  
HETATM   14  C   UNL     1      -8.487   3.803  67.019  1.00  0.00    -0.104 C  
HETATM   15  C   UNL     1      -8.573   4.632  65.752  1.00  0.00    -0.122 C  
HETATM   16  O   UNL     1      -9.688   3.038  67.125  1.00  0.00    -0.396 OA 
HETATM   17  C   UNL     1      -9.521   5.763  66.138  1.00  0.00    -0.124 C  
HETATM   18  H   UNL     1      -9.748   2.382  66.441  1.00  0.00     0.000 HD 
HETATM   19  C   UNL     1      -9.414   5.939  67.676  1.00  0.00    -0.110 C  
HETATM   20  O   UNL     1     -10.863   5.414  65.804  1.00  0.00    -0.591 OA 
HETATM   21  H   UNL     1     -11.452   6.119  66.044  1.00  0.00     0.000 HD 
BRANCH  19  22
HETATM   22  C   UNL     1      -8.991   7.373  68.046  1.00  0.00    -0.132 C  
BRANCH  22  23
HETATM   23  C   UNL     1      -8.901   8.252  66.796  1.00  0.00    -0.158 C  
BRANCH  23  24
HETATM   24  C   UNL     1     -10.169   9.060  66.495  1.00  0.00    -0.248 C  
HETATM   25  O   UNL     1     -11.244   8.607  67.318  1.00  0.00    -0.278 OA 
HETATM   26  H   UNL     1     -12.030   9.108  67.132  1.00  0.00     0.000 HD 
BRANCH  24  27
HETATM   27  C   UNL     1      -9.967  10.553  66.794  1.00  0.00    -0.252 C  
BRANCH  27  28
HETATM   28  C   UNL     1     -11.281  11.296  67.035  1.00  0.00    -0.324 C  
BRANCH  28  29
HETATM   29  C   UNL     1     -11.551  12.333  65.979  1.00  0.00    -0.451 A  
HETATM   30  C   UNL     1     -11.823  11.939  64.661  1.00  0.00    -0.282 A  
HETATM   31  C   UNL     1     -12.079  12.895  63.679  1.00  0.00    -0.611 A  
HETATM   32  C   UNL     1     -12.060  14.249  64.004  1.00  0.00    -0.350 A  
HETATM   33  C   UNL     1     -11.780  14.650  65.310  1.00  0.00    -0.346 A  
HETATM   34  C   UNL     1     -11.524  13.695  66.295  1.00  0.00    -0.352 A  
ENDBRANCH  28  29
ENDBRANCH  27  28
ENDBRANCH  24  27
ENDBRANCH  23  24
ENDBRANCH  22  23
ENDBRANCH  19  22
ENDBRANCH  12  13
ENDBRANCH  11  12
ENDBRANCH   9  10
ENDBRANCH   8   9
ENDBRANCH   7   8
ENDBRANCH   5   7
ENDBRANCH   4   5
ENDBRANCH   2   4
TORSDOF 14
ENDMDL
MODEL      278
REMARK 921   NORMALIZED FREE ENERGY PREDICTED BY IDOCK:   -3.46 KCAL/MOL
REMARK 922        TOTAL FREE ENERGY PREDICTED BY IDOCK:   -9.58 KCAL/MOL
REMARK 923 INTER-LIGAND FREE ENERGY PREDICTED BY IDOCK:   -8.24 KCAL/MOL
REMARK 924 INTRA-LIGAND FREE ENERGY PREDICTED BY IDOCK:   -1.33 KCAL/MOL
REMARK 927      BINDING AFFINITY PREDICTED BY RF-SCORE:    0.00 PKD
ROOT
HETATM    1  C   UNL     1     -10.800   2.008  72.915  1.00  0.00    -0.214 C  
HETATM    2  C   UNL     1     -10.048   2.515  74.140  1.00  0.00    -0.115 C  
HETATM    3  C   UNL     1      -8.826   1.650  74.420  1.00  0.00    -0.059 C  
ENDROOT
BRANCH   2   4
HETATM    4  O   UNL     1      -9.583   3.855  73.896  1.00  0.00    -0.101 OA 
BRANCH   4   5
HETATM    5  C   UNL     1      -8.417   3.946  73.194  1.00  0.00    -0.092 C  
HETATM    6  O   UNL     1      -8.232   3.502  72.067  1.00  0.00    -0.069 OA 
BRANCH   5   7
HETATM    7  C   UNL     1      -7.378   4.656  74.024  1.00  0.00    -0.078 C  
BRANCH   7   8
HETATM    8  C   UNL     1      -6.439   5.475  73.137  1.00  0.00    -0.066 C  
BRANCH   8   9
HETATM    9  C   UNL     1      -7.153   6.583  72.368  1.00  0.00    -0.077 C  
BRANCH   9  10
HETATM   10  C   UNL     1      -7.397   7.802  73.213  1.00  0.00    -0.131 C  
HETATM   11  C   UNL     1      -8.563   8.174  73.767  1.00  0.00    -0.307 C  
BRANCH  11  12
HETATM   12  C   UNL     1      -9.871   7.441  73.683  1.00  0.00    -0.365 C  
BRANCH  12  13
HETATM   13  C   UNL     1     -10.576   7.472  72.316  1.00  0.00    -0.280 C  
HETATM   14  C   UNL     1     -11.171   6.093  71.974  1.00  0.00    -0.286 C  
HETATM   15  C   UNL     1     -12.103   6.396  70.816  1.00  0.00    -0.162 C  
HETATM   16  O   UNL     1     -11.959   5.578  73.048  1.00  0.00    -0.554 OA 
HETATM   17  C   UNL     1     -12.776   7.698  71.240  1.00  0.00    -0.275 C  
HETATM   18  H   UNL     1     -12.326   4.727  72.836  1.00  0.00     0.000 HD 
HETATM   19  C   UNL     1     -11.800   8.417  72.209  1.00  0.00    -0.456 C  
HETATM   20  O   UNL     1     -13.992   7.419  71.930  1.00  0.00    -0.491 OA 
HETATM   21  H   UNL     1     -14.411   8.230  72.194  1.00  0.00     0.000 HD 
BRANCH  19  22
HETATM   22  C   UNL     1     -11.436   9.822  71.693  1.00  0.00    -0.294 C  
BRANCH  22  23
HETATM   23  C   UNL     1     -12.366  10.239  70.550  1.00  0.00    -0.371 C  
BRANCH  23  24
HETATM   24  C   UNL     1     -11.669  10.975  69.399  1.00  0.00    -0.323 C  
HETATM   25  O   UNL     1     -12.148  10.488  68.146  1.00  0.00    -0.756 OA 
HETATM   26  H   UNL     1     -11.717  10.944  67.433  1.00  0.00     0.000 HD 
BRANCH  24  27
HETATM   27  C   UNL     1     -11.961  12.483  69.441  1.00  0.00    -0.315 C  
BRANCH  27  28
HETATM   28  C   UNL     1     -11.677  13.181  68.111  1.00  0.00    -0.391 C  
BRANCH  28  29
HETATM   29  C   UNL     1     -10.931  14.475  68.293  1.00  0.00    -0.258 A  
HETATM   30  C   UNL     1      -9.564  14.545  67.993  1.00  0.00    -0.217 A  
HETATM   31  C   UNL     1      -8.868  15.742  68.155  1.00  0.00    -0.178 A  
HETATM   32  C   UNL     1      -9.531  16.874  68.623  1.00  0.00    -0.268 A  
HETATM   33  C   UNL     1     -10.888  16.811  68.934  1.00  0.00    -0.301 A  
HETATM   34  C   UNL     1     -11.587  15.613  68.772  1.00  0.00    -0.393 A  
ENDBRANCH  28  29
ENDBRANCH  27  28
ENDBRANCH  24  27
ENDBRANCH  23  24
ENDBRANCH  22  23
ENDBRANCH  19  22
ENDBRANCH  12  13
ENDBRANCH  11  12
ENDBRANCH   9  10
ENDBRANCH   8   9
ENDBRANCH   7   8
ENDBRANCH   5   7
ENDBRANCH   4   5
ENDBRANCH   2   4
TORSDOF 14
ENDMDL
MODEL      279
REMARK 921   NORMALIZED FREE ENERGY PREDICTED BY IDOCK:   -3.44 KCAL/MOL
REMARK 922        TOTAL FREE ENERGY PREDICTED BY IDOCK:   -9.56 KCAL/MOL
REMARK 923 INTER-LIGAND FREE ENERGY PREDICTED BY IDOCK:   -8.35 KCAL/MOL
REMARK 924 INTRA-LIGAND FREE ENERGY PREDICTED BY IDOCK:   -1.21 KCAL/MOL
REMARK 927      BINDING AFFINITY PREDICTED BY RF-SCORE:    0.00 PKD
ROOT
HETATM    1  C   UNL     1     -10.428   2.058  72.522  1.00  0.00    -0.211 C  
HETATM    2  C   UNL     1     -10.018   2.555  73.903  1.00  0.00    -0.102 C  
HETATM    3  C   UNL     1      -9.050   1.581  74.563  1.00  0.00    -0.068 C  
ENDROOT
BRANCH   2   4
HETATM    4  O   UNL     1      -9.340   3.819  73.776  1.00  0.00    -0.096 OA 
BRANCH   4   5
HETATM    5  C   UNL     1      -8.065   3.747  73.295  1.00  0.00    -0.087 C  
HETATM    6  O   UNL     1      -7.730   3.189  72.257  1.00  0.00    -0.055 OA 
BRANCH   5   7
HETATM    7  C   UNL     1      -7.123   4.440  74.246  1.00  0.00    -0.071 C  
BRANCH   7   8
HETATM    8  C   UNL     1      -6.142   5.335  73.485  1.00  0.00    -0.047 C  
BRANCH   8   9
HETATM    9  C   UNL     1      -6.831   6.444  72.693  1.00  0.00    -0.069 C  
BRANCH   9  10
HETATM   10  C   UNL     1      -7.208   7.614  73.557  1.00  0.00    -0.116 C  
HETATM   11  C   UNL     1      -8.445   7.943  73.966  1.00  0.00    -0.321 C  
BRANCH  11  12
HETATM   12  C   UNL     1      -9.716   7.200  73.671  1.00  0.00    -0.311 C  
BRANCH  12  13
HETATM   13  C   UNL     1     -10.225   7.280  72.221  1.00  0.00    -0.225 C  
HETATM   14  C   UNL     1     -10.961   5.987  71.825  1.00  0.00    -0.269 C  
HETATM   15  C   UNL     1     -11.680   6.375  70.547  1.00  0.00    -0.385 C  
HETATM   16  O   UNL     1     -11.949   5.626  72.791  1.00  0.00    -0.518 OA 
HETATM   17  C   UNL     1     -12.208   7.773  70.854  1.00  0.00    -0.145 C  
HETATM   18  H   UNL     1     -12.403   4.828  72.547  1.00  0.00     0.000 HD 
HETATM   19  C   UNL     1     -11.275   8.383  71.934  1.00  0.00    -0.379 C  
HETATM   20  O   UNL     1     -13.532   7.692  71.379  1.00  0.00    -0.455 OA 
HETATM   21  H   UNL     1     -13.861   8.563  71.570  1.00  0.00     0.000 HD 
BRANCH  19  22
HETATM   22  C   UNL     1     -10.648   9.703  71.448  1.00  0.00    -0.185 C  
BRANCH  22  23
HETATM   23  C   UNL     1     -11.623  10.469  70.549  1.00  0.00    -0.441 C  
BRANCH  23  24
HETATM   24  C   UNL     1     -10.952  11.385  69.519  1.00  0.00    -0.166 C  
HETATM   25  O   UNL     1      -9.585  11.010  69.348  1.00  0.00    -0.417 OA 
HETATM   26  H   UNL     1      -9.169  11.577  68.709  1.00  0.00     0.000 HD 
BRANCH  24  27
HETATM   27  C   UNL     1     -11.629  11.273  68.144  1.00  0.00    -0.359 C  
BRANCH  27  28
HETATM   28  C   UNL     1     -11.665  12.602  67.389  1.00  0.00    -0.432 C  
BRANCH  28  29
HETATM   29  C   UNL     1     -11.585  12.413  65.899  1.00  0.00    -0.449 A  
HETATM   30  C   UNL     1     -12.641  12.835  65.080  1.00  0.00    -0.538 A  
HETATM   31  C   UNL     1     -12.571  12.668  63.697  1.00  0.00    -0.437 A  
HETATM   32  C   UNL     1     -11.450  12.072  63.124  1.00  0.00    -0.254 A  
HETATM   33  C   UNL     1     -10.399  11.640  63.933  1.00  0.00    -0.417 A  
HETATM   34  C   UNL     1     -10.467  11.807  65.316  1.00  0.00    -0.320 A  
ENDBRANCH  28  29
ENDBRANCH  27  28
ENDBRANCH  24  27
ENDBRANCH  23  24
ENDBRANCH  22  23
ENDBRANCH  19  22
ENDBRANCH  12  13
ENDBRANCH  11  12
ENDBRANCH   9  10
ENDBRANCH   8   9
ENDBRANCH   7   8
ENDBRANCH   5   7
ENDBRANCH   4   5
ENDBRANCH   2   4
TORSDOF 14
ENDMDL
MODEL      280
REMARK 921   NORMALIZED FREE ENERGY PREDICTED BY IDOCK:   -3.44 KCAL/MOL
REMARK 922        TOTAL FREE ENERGY PREDICTED BY IDOCK:   -9.54 KCAL/MOL
REMARK 923 INTER-LIGAND FREE ENERGY PREDICTED BY IDOCK:   -6.96 KCAL/MOL
REMARK 924 INTRA-LIGAND FREE ENERGY PREDICTED BY IDOCK:   -2.58 KCAL/MOL
REMARK 927      BINDING AFFINITY PREDICTED BY RF-SCORE:    0.00 PKD
ROOT
HETATM    1  C   UNL     1      -6.366   6.078  72.511  1.00  0.00    -0.054 C  
HETATM    2  C   UNL     1      -7.881   5.939  72.605  1.00  0.00    -0.101 C  
HETATM    3  C   UNL     1      -8.427   6.750  73.773  1.00  0.00    -0.145 C  
ENDROOT
BRANCH   2   4
HETATM    4  O   UNL     1      -8.485   6.451  71.403  1.00  0.00    -0.125 OA 
BRANCH   4   5
HETATM    5  C   UNL     1      -9.520   5.709  70.912  1.00  0.00    -0.166 C  
HETATM    6  O   UNL     1     -10.623   6.146  70.611  1.00  0.00    -0.221 OA 
BRANCH   5   7
HETATM    7  C   UNL     1      -9.108   4.262  70.818  1.00  0.00    -0.173 C  
BRANCH   7   8
HETATM    8  C   UNL     1      -9.667   3.619  69.547  1.00  0.00    -0.114 C  
BRANCH   8   9
HETATM    9  C   UNL     1      -9.044   4.174  68.269  1.00  0.00    -0.176 C  
BRANCH   9  10
HETATM   10  C   UNL     1     -10.058   4.839  67.381  1.00  0.00    -0.177 C  
HETATM   11  C   UNL     1      -9.831   5.840  66.514  1.00  0.00    -0.193 C  
BRANCH  11  12
HETATM   12  C   UNL     1      -8.512   6.497  66.226  1.00  0.00    -0.129 C  
BRANCH  12  13
HETATM   13  C   UNL     1      -8.436   8.009  66.497  1.00  0.00    -0.137 C  
HETATM   14  C   UNL     1      -8.049   8.777  65.219  1.00  0.00    -0.129 C  
HETATM   15  C   UNL     1      -8.370  10.218  65.571  1.00  0.00    -0.165 C  
HETATM   16  O   UNL     1      -8.868   8.404  64.111  1.00  0.00    -0.400 OA 
HETATM   17  C   UNL     1      -9.701  10.110  66.308  1.00  0.00    -0.218 C  
HETATM   18  H   UNL     1      -8.630   8.878  63.323  1.00  0.00     0.000 HD 
HETATM   19  C   UNL     1      -9.763   8.687  66.924  1.00  0.00    -0.278 C  
HETATM   20  O   UNL     1     -10.783  10.265  65.392  1.00  0.00    -0.051 OA 
HETATM   21  H   UNL     1     -11.612  10.198  65.851  1.00  0.00     0.000 HD 
BRANCH  19  22
HETATM   22  C   UNL     1      -9.947   8.747  68.452  1.00  0.00    -0.200 C  
BRANCH  22  23
HETATM   23  C   UNL     1     -10.047  10.199  68.930  1.00  0.00    -0.211 C  
BRANCH  23  24
HETATM   24  C   UNL     1     -11.396  10.570  69.556  1.00  0.00    -0.278 C  
HETATM   25  O   UNL     1     -11.323  10.456  70.978  1.00  0.00    -0.306 OA 
HETATM   26  H   UNL     1     -12.158  10.686  71.366  1.00  0.00     0.000 HD 
BRANCH  24  27
HETATM   27  C   UNL     1     -11.781  12.023  69.237  1.00  0.00    -0.389 C  
BRANCH  27  28
HETATM   28  C   UNL     1     -10.632  12.821  68.621  1.00  0.00    -0.256 C  
BRANCH  28  29
HETATM   29  C   UNL     1     -10.918  13.226  67.200  1.00  0.00    -0.288 A  
HETATM   30  C   UNL     1      -9.892  13.743  66.398  1.00  0.00    -0.305 A  
HETATM   31  C   UNL     1     -10.148  14.116  65.079  1.00  0.00    -0.326 A  
HETATM   32  C   UNL     1     -11.431  13.980  64.555  1.00  0.00    -0.380 A  
HETATM   33  C   UNL     1     -12.460  13.475  65.349  1.00  0.00    -0.540 A  
HETATM   34  C   UNL     1     -12.205  13.101  66.669  1.00  0.00    -0.331 A  
ENDBRANCH  28  29
ENDBRANCH  27  28
ENDBRANCH  24  27
ENDBRANCH  23  24
ENDBRANCH  22  23
ENDBRANCH  19  22
ENDBRANCH  12  13
ENDBRANCH  11  12
ENDBRANCH   9  10
ENDBRANCH   8   9
ENDBRANCH   7   8
ENDBRANCH   5   7
ENDBRANCH   4   5
ENDBRANCH   2   4
TORSDOF 14
ENDMDL
MODEL      281
REMARK 921   NORMALIZED FREE ENERGY PREDICTED BY IDOCK:   -3.43 KCAL/MOL
REMARK 922        TOTAL FREE ENERGY PREDICTED BY IDOCK:   -9.52 KCAL/MOL
REMARK 923 INTER-LIGAND FREE ENERGY PREDICTED BY IDOCK:   -7.87 KCAL/MOL
REMARK 924 INTRA-LIGAND FREE ENERGY PREDICTED BY IDOCK:   -1.66 KCAL/MOL
REMARK 927      BINDING AFFINITY PREDICTED BY RF-SCORE:    0.00 PKD
ROOT
HETATM    1  C   UNL     1     -13.615   8.495  72.522  1.00  0.00    -0.266 C  
HETATM    2  C   UNL     1     -13.443   9.390  71.300  1.00  0.00    -0.265 C  
HETATM    3  C   UNL     1     -13.148  10.825  71.718  1.00  0.00    -0.573 C  
ENDROOT
BRANCH   2   4
HETATM    4  O   UNL     1     -12.325   8.927  70.521  1.00  0.00     0.012 OA 
BRANCH   4   5
HETATM    5  C   UNL     1     -11.177   8.711  71.226  1.00  0.00    -0.276 C  
HETATM    6  O   UNL     1     -10.477   9.584  71.724  1.00  0.00    -0.182 OA 
BRANCH   5   7
HETATM    7  C   UNL     1     -10.885   7.233  71.280  1.00  0.00    -0.255 C  
BRANCH   7   8
HETATM    8  C   UNL     1     -11.686   6.481  70.216  1.00  0.00    -0.430 C  
BRANCH   8   9
HETATM    9  C   UNL     1     -10.806   5.824  69.155  1.00  0.00    -0.355 C  
BRANCH   9  10
HETATM   10  C   UNL     1     -11.082   6.352  67.775  1.00  0.00    -0.376 C  
HETATM   11  C   UNL     1     -10.492   7.406  67.186  1.00  0.00    -0.403 C  
BRANCH  11  12
HETATM   12  C   UNL     1      -9.410   8.270  67.768  1.00  0.00    -0.153 C  
BRANCH  12  13
HETATM   13  C   UNL     1      -9.350   9.717  67.250  1.00  0.00    -0.161 C  
HETATM   14  C   UNL     1      -8.466   9.815  65.993  1.00  0.00    -0.124 C  
HETATM   15  C   UNL     1      -8.807  11.183  65.434  1.00  0.00    -0.110 C  
HETATM   16  O   UNL     1      -8.829   8.839  65.015  1.00  0.00    -0.301 OA 
HETATM   17  C   UNL     1     -10.321  11.261  65.599  1.00  0.00    -0.256 C  
HETATM   18  H   UNL     1      -8.283   8.899  64.240  1.00  0.00     0.000 HD 
HETATM   19  C   UNL     1     -10.696  10.323  66.778  1.00  0.00    -0.216 C  
HETATM   20  O   UNL     1     -10.968  10.798  64.416  1.00  0.00    -0.250 OA 
HETATM   21  H   UNL     1     -11.911  10.847  64.519  1.00  0.00     0.000 HD 
BRANCH  19  22
HETATM   22  C   UNL     1     -11.437  11.091  67.888  1.00  0.00    -0.358 C  
BRANCH  22  23
HETATM   23  C   UNL     1     -10.512  12.117  68.549  1.00  0.00    -0.248 C  
BRANCH  23  24
HETATM   24  C   UNL     1     -11.208  13.411  68.986  1.00  0.00    -0.275 C  
HETATM   25  O   UNL     1     -11.510  13.356  70.381  1.00  0.00    -0.512 OA 
HETATM   26  H   UNL     1     -11.941  14.158  70.652  1.00  0.00     0.000 HD 
BRANCH  24  27
HETATM   27  C   UNL     1     -10.306  14.635  68.765  1.00  0.00    -0.248 C  
BRANCH  27  28
HETATM   28  C   UNL     1      -9.181  14.371  67.764  1.00  0.00    -0.192 C  
BRANCH  28  29
HETATM   29  C   UNL     1      -8.111  15.428  67.818  1.00  0.00    -0.152 A  
HETATM   30  C   UNL     1      -8.460  16.771  68.011  1.00  0.00    -0.205 A  
HETATM   31  C   UNL     1      -7.474  17.754  68.067  1.00  0.00    -0.226 A  
HETATM   32  C   UNL     1      -6.133  17.404  67.925  1.00  0.00    -0.148 A  
HETATM   33  C   UNL     1      -5.777  16.071  67.723  1.00  0.00    -0.161 A  
HETATM   34  C   UNL     1      -6.764  15.085  67.667  1.00  0.00    -0.201 A  
ENDBRANCH  28  29
ENDBRANCH  27  28
ENDBRANCH  24  27
ENDBRANCH  23  24
ENDBRANCH  22  23
ENDBRANCH  19  22
ENDBRANCH  12  13
ENDBRANCH  11  12
ENDBRANCH   9  10
ENDBRANCH   8   9
ENDBRANCH   7   8
ENDBRANCH   5   7
ENDBRANCH   4   5
ENDBRANCH   2   4
TORSDOF 14
ENDMDL
MODEL      282
REMARK 921   NORMALIZED FREE ENERGY PREDICTED BY IDOCK:   -3.42 KCAL/MOL
REMARK 922        TOTAL FREE ENERGY PREDICTED BY IDOCK:   -9.51 KCAL/MOL
REMARK 923 INTER-LIGAND FREE ENERGY PREDICTED BY IDOCK:   -7.99 KCAL/MOL
REMARK 924 INTRA-LIGAND FREE ENERGY PREDICTED BY IDOCK:   -1.52 KCAL/MOL
REMARK 927      BINDING AFFINITY PREDICTED BY RF-SCORE:    0.00 PKD
ROOT
HETATM    1  C   UNL     1      -7.433  13.703  67.570  1.00  0.00    -0.181 C  
HETATM    2  C   UNL     1      -8.099  15.063  67.399  1.00  0.00    -0.193 C  
HETATM    3  C   UNL     1      -7.102  16.093  66.884  1.00  0.00    -0.222 C  
ENDROOT
BRANCH   2   4
HETATM    4  O   UNL     1      -9.156  14.961  66.427  1.00  0.00    -0.278 OA 
BRANCH   4   5
HETATM    5  C   UNL     1      -9.982  16.044  66.352  1.00  0.00    -0.295 C  
HETATM    6  O   UNL     1     -10.323  16.605  65.318  1.00  0.00    -0.609 OA 
BRANCH   5   7
HETATM    7  C   UNL     1     -10.397  16.464  67.740  1.00  0.00    -0.287 C  
BRANCH   7   8
HETATM    8  C   UNL     1     -11.388  15.464  68.337  1.00  0.00    -0.345 C  
BRANCH   8   9
HETATM    9  C   UNL     1     -11.799  14.367  67.358  1.00  0.00    -0.430 C  
BRANCH   9  10
HETATM   10  C   UNL     1     -11.982  13.037  68.032  1.00  0.00    -0.335 C  
HETATM   11  C   UNL     1     -11.434  11.867  67.662  1.00  0.00    -0.387 C  
BRANCH  11  12
HETATM   12  C   UNL     1     -10.498  11.639  66.509  1.00  0.00    -0.276 C  
BRANCH  12  13
HETATM   13  C   UNL     1      -9.955  10.208  66.352  1.00  0.00    -0.295 C  
HETATM   14  C   UNL     1      -9.452   9.966  64.917  1.00  0.00    -0.291 C  
HETATM   15  C   UNL     1      -8.651   8.684  65.044  1.00  0.00    -0.185 C  
HETATM   16  O   UNL     1      -8.564  10.998  64.489  1.00  0.00    -0.367 OA 
HETATM   17  C   UNL     1      -7.889   8.875  66.351  1.00  0.00    -0.103 C  
HETATM   18  H   UNL     1      -8.253  10.848  63.603  1.00  0.00     0.000 HD 
HETATM   19  C   UNL     1      -8.721   9.855  67.220  1.00  0.00    -0.131 C  
HETATM   20  O   UNL     1      -6.612   9.454  66.094  1.00  0.00    -0.068 OA 
HETATM   21  H   UNL     1      -6.137   9.573  66.909  1.00  0.00     0.000 HD 
BRANCH  19  22
HETATM   22  C   UNL     1      -9.094   9.222  68.574  1.00  0.00    -0.132 C  
BRANCH  22  23
HETATM   23  C   UNL     1     -10.129   8.109  68.386  1.00  0.00    -0.226 C  
BRANCH  23  24
HETATM   24  C   UNL     1     -10.642   7.491  69.693  1.00  0.00    -0.239 C  
HETATM   25  O   UNL     1     -11.830   6.740  69.444  1.00  0.00    -0.628 OA 
HETATM   26  H   UNL     1     -12.147   6.357  70.253  1.00  0.00     0.000 HD 
BRANCH  24  27
HETATM   27  C   UNL     1      -9.612   6.525  70.298  1.00  0.00    -0.172 C  
BRANCH  27  28
HETATM   28  C   UNL     1     -10.140   5.096  70.425  1.00  0.00    -0.333 C  
BRANCH  28  29
HETATM   29  C   UNL     1      -9.561   4.180  69.382  1.00  0.00    -0.265 A  
HETATM   30  C   UNL     1      -9.401   2.815  69.657  1.00  0.00    -0.198 A  
HETATM   31  C   UNL     1      -8.871   1.959  68.693  1.00  0.00    -0.136 A  
HETATM   32  C   UNL     1      -8.492   2.461  67.450  1.00  0.00    -0.109 A  
HETATM   33  C   UNL     1      -8.638   3.820  67.171  1.00  0.00    -0.112 A  
HETATM   34  C   UNL     1      -9.170   4.678  68.135  1.00  0.00    -0.162 A  
ENDBRANCH  28  29
ENDBRANCH  27  28
ENDBRANCH  24  27
ENDBRANCH  23  24
ENDBRANCH  22  23
ENDBRANCH  19  22
ENDBRANCH  12  13
ENDBRANCH  11  12
ENDBRANCH   9  10
ENDBRANCH   8   9
ENDBRANCH   7   8
ENDBRANCH   5   7
ENDBRANCH   4   5
ENDBRANCH   2   4
TORSDOF 14
ENDMDL
MODEL      283
REMARK 921   NORMALIZED FREE ENERGY PREDICTED BY IDOCK:   -3.41 KCAL/MOL
REMARK 922        TOTAL FREE ENERGY PREDICTED BY IDOCK:   -9.49 KCAL/MOL
REMARK 923 INTER-LIGAND FREE ENERGY PREDICTED BY IDOCK:   -7.99 KCAL/MOL
REMARK 924 INTRA-LIGAND FREE ENERGY PREDICTED BY IDOCK:   -1.50 KCAL/MOL
REMARK 927      BINDING AFFINITY PREDICTED BY RF-SCORE:    0.00 PKD
ROOT
HETATM    1  C   UNL     1      -7.364  13.768  67.577  1.00  0.00    -0.176 C  
HETATM    2  C   UNL     1      -7.859  15.197  67.385  1.00  0.00    -0.198 C  
HETATM    3  C   UNL     1      -6.789  16.056  66.723  1.00  0.00     0.043 C  
ENDROOT
BRANCH   2   4
HETATM    4  O   UNL     1      -9.009  15.194  66.519  1.00  0.00    -0.268 OA 
BRANCH   4   5
HETATM    5  C   UNL     1      -9.673  16.383  66.432  1.00  0.00    -0.287 C  
HETATM    6  O   UNL     1     -10.148  16.854  65.407  1.00  0.00    -0.586 OA 
BRANCH   5   7
HETATM    7  C   UNL     1      -9.713  17.043  67.786  1.00  0.00    -0.258 C  
BRANCH   7   8
HETATM    8  C   UNL     1     -10.679  16.311  68.720  1.00  0.00    -0.309 C  
BRANCH   8   9
HETATM    9  C   UNL     1     -11.544  15.279  68.001  1.00  0.00    -0.325 C  
BRANCH   9  10
HETATM   10  C   UNL     1     -12.116  14.256  68.941  1.00  0.00    -0.314 C  
HETATM   11  C   UNL     1     -11.817  12.947  68.980  1.00  0.00    -0.352 C  
BRANCH  11  12
HETATM   12  C   UNL     1     -10.828  12.225  68.110  1.00  0.00    -0.258 C  
BRANCH  12  13
HETATM   13  C   UNL     1     -10.791  10.694  68.255  1.00  0.00    -0.287 C  
HETATM   14  C   UNL     1     -10.375  10.026  66.932  1.00  0.00    -0.234 C  
HETATM   15  C   UNL     1     -10.050   8.605  67.348  1.00  0.00    -0.292 C  
HETATM   16  O   UNL     1      -9.186  10.610  66.398  1.00  0.00    -0.162 OA 
HETATM   17  C   UNL     1      -9.289   8.789  68.657  1.00  0.00    -0.141 C  
HETATM   18  H   UNL     1      -8.929  10.198  65.581  1.00  0.00     0.000 HD 
HETATM   19  C   UNL     1      -9.760  10.136  69.268  1.00  0.00    -0.238 C  
HETATM   20  O   UNL     1      -7.888   8.860  68.404  1.00  0.00    -0.101 OA 
HETATM   21  H   UNL     1      -7.414   8.975  69.220  1.00  0.00     0.000 HD 
BRANCH  19  22
HETATM   22  C   UNL     1     -10.345   9.934  70.679  1.00  0.00    -0.258 C  
BRANCH  22  23
HETATM   23  C   UNL     1     -11.692   9.209  70.610  1.00  0.00    -0.256 C  
BRANCH  23  24
HETATM   24  C   UNL     1     -12.306   8.879  71.976  1.00  0.00    -0.390 C  
HETATM   25  O   UNL     1     -13.582   8.263  71.801  1.00  0.00    -0.342 OA 
HETATM   26  H   UNL     1     -13.963   8.057  72.647  1.00  0.00     0.000 HD 
BRANCH  24  27
HETATM   27  C   UNL     1     -11.429   7.891  72.760  1.00  0.00    -0.428 C  
BRANCH  27  28
HETATM   28  C   UNL     1     -11.841   6.433  72.549  1.00  0.00    -0.174 C  
BRANCH  28  29
HETATM   29  C   UNL     1     -10.814   5.658  71.769  1.00  0.00    -0.301 A  
HETATM   30  C   UNL     1     -10.242   4.502  72.317  1.00  0.00    -0.257 A  
HETATM   31  C   UNL     1      -9.294   3.776  71.598  1.00  0.00    -0.198 A  
HETATM   32  C   UNL     1      -8.906   4.202  70.330  1.00  0.00    -0.137 A  
HETATM   33  C   UNL     1      -9.463   5.357  69.781  1.00  0.00    -0.202 A  
HETATM   34  C   UNL     1     -10.413   6.085  70.499  1.00  0.00    -0.303 A  
ENDBRANCH  28  29
ENDBRANCH  27  28
ENDBRANCH  24  27
ENDBRANCH  23  24
ENDBRANCH  22  23
ENDBRANCH  19  22
ENDBRANCH  12  13
ENDBRANCH  11  12
ENDBRANCH   9  10
ENDBRANCH   8   9
ENDBRANCH   7   8
ENDBRANCH   5   7
ENDBRANCH   4   5
ENDBRANCH   2   4
TORSDOF 14
ENDMDL
MODEL      284
REMARK 921   NORMALIZED FREE ENERGY PREDICTED BY IDOCK:   -3.39 KCAL/MOL
REMARK 922        TOTAL FREE ENERGY PREDICTED BY IDOCK:   -9.46 KCAL/MOL
REMARK 923 INTER-LIGAND FREE ENERGY PREDICTED BY IDOCK:   -7.61 KCAL/MOL
REMARK 924 INTRA-LIGAND FREE ENERGY PREDICTED BY IDOCK:   -1.86 KCAL/MOL
REMARK 927      BINDING AFFINITY PREDICTED BY RF-SCORE:    0.00 PKD
ROOT
HETATM    1  C   UNL     1      -7.855   4.242  69.236  1.00  0.00    -0.057 C  
HETATM    2  C   UNL     1      -7.226   2.981  69.818  1.00  0.00    -0.041 C  
HETATM    3  C   UNL     1      -5.775   3.230  70.206  1.00  0.00    -0.017 C  
ENDROOT
BRANCH   2   4
HETATM    4  O   UNL     1      -7.935   2.599  71.011  1.00  0.00    -0.049 OA 
BRANCH   4   5
HETATM    5  C   UNL     1      -8.362   3.636  71.789  1.00  0.00    -0.074 C  
HETATM    6  O   UNL     1      -7.646   4.514  72.254  1.00  0.00    -0.078 OA 
BRANCH   5   7
HETATM    7  C   UNL     1      -9.849   3.526  72.009  1.00  0.00    -0.238 C  
BRANCH   7   8
HETATM    8  C   UNL     1     -10.201   3.771  73.478  1.00  0.00    -0.213 C  
BRANCH   8   9
HETATM    9  C   UNL     1     -10.969   5.071  73.703  1.00  0.00    -0.379 C  
BRANCH   9  10
HETATM   10  C   UNL     1     -10.073   6.197  74.134  1.00  0.00    -0.304 C  
HETATM   11  C   UNL     1      -9.912   7.377  73.512  1.00  0.00    -0.377 C  
BRANCH  11  12
HETATM   12  C   UNL     1     -10.610   7.838  72.265  1.00  0.00    -0.315 C  
BRANCH  12  13
HETATM   13  C   UNL     1     -10.142   7.191  70.951  1.00  0.00    -0.200 C  
HETATM   14  C   UNL     1     -11.270   6.357  70.316  1.00  0.00    -0.382 C  
HETATM   15  C   UNL     1     -10.767   6.108  68.907  1.00  0.00    -0.376 C  
HETATM   16  O   UNL     1     -12.486   7.099  70.223  1.00  0.00    -0.592 OA 
HETATM   17  C   UNL     1     -10.173   7.454  68.506  1.00  0.00    -0.183 C  
HETATM   18  H   UNL     1     -13.183   6.584  69.832  1.00  0.00     0.000 HD 
HETATM   19  C   UNL     1      -9.752   8.172  69.816  1.00  0.00    -0.173 C  
HETATM   20  O   UNL     1     -11.155   8.244  67.839  1.00  0.00    -0.469 OA 
HETATM   21  H   UNL     1     -10.784   9.083  67.589  1.00  0.00     0.000 HD 
BRANCH  19  22
HETATM   22  C   UNL     1      -8.252   8.520  69.805  1.00  0.00    -0.121 C  
BRANCH  22  23
HETATM   23  C   UNL     1      -8.047  10.037  69.762  1.00  0.00    -0.188 C  
BRANCH  23  24
HETATM   24  C   UNL     1      -7.624  10.583  68.393  1.00  0.00    -0.097 C  
HETATM   25  O   UNL     1      -7.885   9.613  67.378  1.00  0.00    -0.095 OA 
HETATM   26  H   UNL     1      -7.624   9.951  66.530  1.00  0.00     0.000 HD 
BRANCH  24  27
HETATM   27  C   UNL     1      -8.415  11.848  68.025  1.00  0.00    -0.162 C  
BRANCH  27  28
HETATM   28  C   UNL     1      -9.927  11.625  68.028  1.00  0.00    -0.194 C  
BRANCH  28  29
HETATM   29  C   UNL     1     -10.585  12.164  66.787  1.00  0.00    -0.256 A  
HETATM   30  C   UNL     1      -9.888  12.174  65.571  1.00  0.00    -0.240 A  
HETATM   31  C   UNL     1     -10.493  12.667  64.416  1.00  0.00    -0.398 A  
HETATM   32  C   UNL     1     -11.796  13.159  64.469  1.00  0.00    -0.427 A  
HETATM   33  C   UNL     1     -12.493  13.162  65.676  1.00  0.00    -0.485 A  
HETATM   34  C   UNL     1     -11.889  12.668  66.833  1.00  0.00    -0.425 A  
ENDBRANCH  28  29
ENDBRANCH  27  28
ENDBRANCH  24  27
ENDBRANCH  23  24
ENDBRANCH  22  23
ENDBRANCH  19  22
ENDBRANCH  12  13
ENDBRANCH  11  12
ENDBRANCH   9  10
ENDBRANCH   8   9
ENDBRANCH   7   8
ENDBRANCH   5   7
ENDBRANCH   4   5
ENDBRANCH   2   4
TORSDOF 14
ENDMDL
MODEL      285
REMARK 921   NORMALIZED FREE ENERGY PREDICTED BY IDOCK:   -3.39 KCAL/MOL
REMARK 922        TOTAL FREE ENERGY PREDICTED BY IDOCK:   -9.46 KCAL/MOL
REMARK 923 INTER-LIGAND FREE ENERGY PREDICTED BY IDOCK:   -8.14 KCAL/MOL
REMARK 924 INTRA-LIGAND FREE ENERGY PREDICTED BY IDOCK:   -1.32 KCAL/MOL
REMARK 927      BINDING AFFINITY PREDICTED BY RF-SCORE:    0.00 PKD
ROOT
HETATM    1  C   UNL     1      -9.487  14.036  66.794  1.00  0.00    -0.292 C  
HETATM    2  C   UNL     1     -10.263  15.340  66.939  1.00  0.00    -0.268 C  
HETATM    3  C   UNL     1     -10.171  16.169  65.665  1.00  0.00    -0.390 C  
ENDROOT
BRANCH   2   4
HETATM    4  O   UNL     1     -11.655  15.046  67.165  1.00  0.00    -0.342 OA 
BRANCH   4   5
HETATM    5  C   UNL     1     -12.058  13.806  66.763  1.00  0.00    -0.418 C  
HETATM    6  O   UNL     1     -11.781  12.755  67.326  1.00  0.00    -0.348 OA 
BRANCH   5   7
HETATM    7  C   UNL     1     -12.882  13.923  65.506  1.00  0.00    -0.471 C  
BRANCH   7   8
HETATM    8  C   UNL     1     -12.073  13.489  64.283  1.00  0.00    -0.482 C  
BRANCH   8   9
HETATM    9  C   UNL     1     -12.267  12.017  63.926  1.00  0.00    -0.555 C  
BRANCH   9  10
HETATM   10  C   UNL     1     -11.106  11.458  63.151  1.00  0.00    -0.077 C  
HETATM   11  C   UNL     1      -9.902  11.122  63.642  1.00  0.00    -0.387 C  
BRANCH  11  12
HETATM   12  C   UNL     1      -9.460  11.207  65.075  1.00  0.00    -0.259 C  
BRANCH  12  13
HETATM   13  C   UNL     1      -8.744   9.966  65.636  1.00  0.00    -0.168 C  
HETATM   14  C   UNL     1      -7.261   9.953  65.222  1.00  0.00    -0.131 C  
HETATM   15  C   UNL     1      -6.657   8.900  66.131  1.00  0.00    -0.065 C  
HETATM   16  O   UNL     1      -6.623  11.198  65.508  1.00  0.00    -0.369 OA 
HETATM   17  C   UNL     1      -7.317   9.180  67.477  1.00  0.00    -0.084 C  
HETATM   18  H   UNL     1      -5.708  11.190  65.253  1.00  0.00     0.000 HD 
HETATM   19  C   UNL     1      -8.677   9.865  67.181  1.00  0.00    -0.136 C  
HETATM   20  O   UNL     1      -6.508  10.069  68.244  1.00  0.00    -0.054 OA 
HETATM   21  H   UNL     1      -6.919  10.244  69.082  1.00  0.00     0.000 HD 
BRANCH  19  22
HETATM   22  C   UNL     1      -9.847   9.068  67.787  1.00  0.00    -0.209 C  
BRANCH  22  23
HETATM   23  C   UNL     1     -10.535   8.214  66.717  1.00  0.00    -0.316 C  
BRANCH  23  24
HETATM   24  C   UNL     1     -10.922   6.805  67.182  1.00  0.00    -0.388 C  
HETATM   25  O   UNL     1     -10.991   5.923  66.061  1.00  0.00    -0.586 OA 
HETATM   26  H   UNL     1     -11.231   5.050  66.348  1.00  0.00     0.000 HD 
BRANCH  24  27
HETATM   27  C   UNL     1      -9.879   6.228  68.150  1.00  0.00    -0.133 C  
BRANCH  27  28
HETATM   28  C   UNL     1     -10.504   5.401  69.274  1.00  0.00    -0.309 C  
BRANCH  28  29
HETATM   29  C   UNL     1      -9.549   5.175  70.414  1.00  0.00    -0.252 A  
HETATM   30  C   UNL     1      -9.369   3.886  70.934  1.00  0.00    -0.222 A  
HETATM   31  C   UNL     1      -8.482   3.668  71.987  1.00  0.00    -0.095 A  
HETATM   32  C   UNL     1      -7.772   4.736  72.531  1.00  0.00    -0.092 A  
HETATM   33  C   UNL     1      -7.952   6.024  72.026  1.00  0.00    -0.107 A  
HETATM   34  C   UNL     1      -8.839   6.243  70.972  1.00  0.00    -0.136 A  
ENDBRANCH  28  29
ENDBRANCH  27  28
ENDBRANCH  24  27
ENDBRANCH  23  24
ENDBRANCH  22  23
ENDBRANCH  19  22
ENDBRANCH  12  13
ENDBRANCH  11  12
ENDBRANCH   9  10
ENDBRANCH   8   9
ENDBRANCH   7   8
ENDBRANCH   5   7
ENDBRANCH   4   5
ENDBRANCH   2   4
TORSDOF 14
ENDMDL
MODEL      286
REMARK 921   NORMALIZED FREE ENERGY PREDICTED BY IDOCK:   -3.39 KCAL/MOL
REMARK 922        TOTAL FREE ENERGY PREDICTED BY IDOCK:   -9.46 KCAL/MOL
REMARK 923 INTER-LIGAND FREE ENERGY PREDICTED BY IDOCK:   -6.12 KCAL/MOL
REMARK 924 INTRA-LIGAND FREE ENERGY PREDICTED BY IDOCK:   -3.33 KCAL/MOL
REMARK 927      BINDING AFFINITY PREDICTED BY RF-SCORE:    0.00 PKD
ROOT
HETATM    1  C   UNL     1     -10.183   2.240  72.684  1.00  0.00    -0.229 C  
HETATM    2  C   UNL     1      -9.436   2.706  73.928  1.00  0.00    -0.083 C  
HETATM    3  C   UNL     1      -8.297   1.752  74.263  1.00  0.00    -0.053 C  
ENDROOT
BRANCH   2   4
HETATM    4  O   UNL     1      -8.857   4.001  73.683  1.00  0.00    -0.093 OA 
BRANCH   4   5
HETATM    5  C   UNL     1      -7.622   3.985  73.104  1.00  0.00    -0.075 C  
HETATM    6  O   UNL     1      -7.350   3.461  72.031  1.00  0.00    -0.048 OA 
BRANCH   5   7
HETATM    7  C   UNL     1      -6.633   4.691  73.996  1.00  0.00    -0.059 C  
BRANCH   7   8
HETATM    8  C   UNL     1      -5.918   5.810  73.238  1.00  0.00    -0.047 C  
BRANCH   8   9
HETATM    9  C   UNL     1      -6.876   6.763  72.528  1.00  0.00    -0.063 C  
BRANCH   9  10
HETATM   10  C   UNL     1      -7.235   7.950  73.375  1.00  0.00    -0.136 C  
HETATM   11  C   UNL     1      -8.438   8.220  73.910  1.00  0.00    -0.247 C  
BRANCH  11  12
HETATM   12  C   UNL     1      -9.678   7.381  73.799  1.00  0.00    -0.330 C  
BRANCH  12  13
HETATM   13  C   UNL     1     -10.374   7.382  72.427  1.00  0.00    -0.263 C  
HETATM   14  C   UNL     1     -10.893   5.976  72.073  1.00  0.00    -0.252 C  
HETATM   15  C   UNL     1     -11.830   6.236  70.909  1.00  0.00    -0.215 C  
HETATM   16  O   UNL     1     -11.662   5.415  73.138  1.00  0.00    -0.526 OA 
HETATM   17  C   UNL     1     -12.573   7.498  71.333  1.00  0.00    -0.351 C  
HETATM   18  H   UNL     1     -11.982   4.547  72.920  1.00  0.00     0.000 HD 
HETATM   19  C   UNL     1     -11.644   8.263  72.313  1.00  0.00    -0.449 C  
HETATM   20  O   UNL     1     -13.779   7.153  72.013  1.00  0.00    -0.533 OA 
HETATM   21  H   UNL     1     -14.241   7.940  72.276  1.00  0.00     0.000 HD 
BRANCH  19  22
HETATM   22  C   UNL     1     -11.349   9.687  71.806  1.00  0.00    -0.200 C  
BRANCH  22  23
HETATM   23  C   UNL     1     -12.161   9.994  70.545  1.00  0.00    -0.308 C  
BRANCH  23  24
HETATM   24  C   UNL     1     -11.322  10.434  69.340  1.00  0.00    -0.250 C  
HETATM   25  O   UNL     1     -10.468  11.518  69.708  1.00  0.00    -0.411 OA 
HETATM   26  H   UNL     1      -9.948  11.790  68.962  1.00  0.00     0.000 HD 
BRANCH  24  27
HETATM   27  C   UNL     1     -10.420   9.296  68.839  1.00  0.00    -0.235 C  
BRANCH  27  28
HETATM   28  C   UNL     1      -8.951   9.494  69.212  1.00  0.00    -0.160 C  
BRANCH  28  29
HETATM   29  C   UNL     1      -8.167   8.211  69.141  1.00  0.00    -0.123 A  
HETATM   30  C   UNL     1      -6.779   8.246  68.951  1.00  0.00    -0.053 A  
HETATM   31  C   UNL     1      -6.046   7.062  68.890  1.00  0.00    -0.027 A  
HETATM   32  C   UNL     1      -6.695   5.835  69.012  1.00  0.00    -0.060 A  
HETATM   33  C   UNL     1      -8.077   5.790  69.191  1.00  0.00    -0.101 A  
HETATM   34  C   UNL     1      -8.812   6.975  69.254  1.00  0.00    -0.139 A  
ENDBRANCH  28  29
ENDBRANCH  27  28
ENDBRANCH  24  27
ENDBRANCH  23  24
ENDBRANCH  22  23
ENDBRANCH  19  22
ENDBRANCH  12  13
ENDBRANCH  11  12
ENDBRANCH   9  10
ENDBRANCH   8   9
ENDBRANCH   7   8
ENDBRANCH   5   7
ENDBRANCH   4   5
ENDBRANCH   2   4
TORSDOF 14
ENDMDL
MODEL      287
REMARK 921   NORMALIZED FREE ENERGY PREDICTED BY IDOCK:   -3.36 KCAL/MOL
REMARK 922        TOTAL FREE ENERGY PREDICTED BY IDOCK:   -9.40 KCAL/MOL
REMARK 923 INTER-LIGAND FREE ENERGY PREDICTED BY IDOCK:   -7.62 KCAL/MOL
REMARK 924 INTRA-LIGAND FREE ENERGY PREDICTED BY IDOCK:   -1.78 KCAL/MOL
REMARK 927      BINDING AFFINITY PREDICTED BY RF-SCORE:    0.00 PKD
ROOT
HETATM    1  C   UNL     1     -13.005  10.314  71.963  1.00  0.00    -0.503 C  
HETATM    2  C   UNL     1     -12.595  10.462  70.502  1.00  0.00    -0.302 C  
HETATM    3  C   UNL     1     -11.857  11.776  70.277  1.00  0.00    -0.382 C  
ENDROOT
BRANCH   2   4
HETATM    4  O   UNL     1     -11.696   9.395  70.146  1.00  0.00    -0.163 OA 
BRANCH   4   5
HETATM    5  C   UNL     1     -11.027   8.828  71.191  1.00  0.00    -0.268 C  
HETATM    6  O   UNL     1     -10.006   9.271  71.702  1.00  0.00    -0.294 OA 
BRANCH   5   7
HETATM    7  C   UNL     1     -11.722   7.557  71.610  1.00  0.00    -0.313 C  
BRANCH   7   8
HETATM    8  C   UNL     1     -12.031   6.680  70.395  1.00  0.00    -0.342 C  
BRANCH   8   9
HETATM    9  C   UNL     1     -10.785   6.286  69.606  1.00  0.00    -0.367 C  
BRANCH   9  10
HETATM   10  C   UNL     1     -10.943   6.524  68.131  1.00  0.00    -0.365 C  
HETATM   11  C   UNL     1      -9.957   6.723  67.240  1.00  0.00    -0.206 C  
BRANCH  11  12
HETATM   12  C   UNL     1      -8.481   6.726  67.520  1.00  0.00    -0.121 C  
BRANCH  12  13
HETATM   13  C   UNL     1      -7.573   7.149  66.352  1.00  0.00    -0.092 C  
HETATM   14  C   UNL     1      -7.542   6.064  65.259  1.00  0.00    -0.088 C  
HETATM   15  C   UNL     1      -6.920   6.781  64.076  1.00  0.00    -0.052 C  
HETATM   16  O   UNL     1      -8.858   5.656  64.883  1.00  0.00    -0.315 OA 
HETATM   17  C   UNL     1      -7.591   8.150  64.106  1.00  0.00    -0.128 C  
HETATM   18  H   UNL     1      -8.838   4.986  64.209  1.00  0.00     0.000 HD 
HETATM   19  C   UNL     1      -8.017   8.414  65.575  1.00  0.00    -0.115 C  
HETATM   20  O   UNL     1      -8.754   8.145  63.280  1.00  0.00    -0.407 OA 
HETATM   21  H   UNL     1      -9.172   8.998  63.299  1.00  0.00     0.000 HD 
BRANCH  19  22
HETATM   22  C   UNL     1      -7.384   9.710  66.115  1.00  0.00    -0.098 C  
BRANCH  22  23
HETATM   23  C   UNL     1      -8.465  10.726  66.495  1.00  0.00    -0.147 C  
BRANCH  23  24
HETATM   24  C   UNL     1      -9.728  10.111  67.109  1.00  0.00    -0.173 C  
HETATM   25  O   UNL     1      -9.521   9.856  68.499  1.00  0.00    -0.142 OA 
HETATM   26  H   UNL     1     -10.303   9.476  68.880  1.00  0.00     0.000 HD 
BRANCH  24  27
HETATM   27  C   UNL     1     -10.927  11.064  66.996  1.00  0.00    -0.333 C  
BRANCH  27  28
HETATM   28  C   UNL     1     -10.563  12.406  66.360  1.00  0.00    -0.271 C  
BRANCH  28  29
HETATM   29  C   UNL     1     -10.534  13.525  67.366  1.00  0.00    -0.247 A  
HETATM   30  C   UNL     1      -9.377  13.763  68.118  1.00  0.00    -0.211 A  
HETATM   31  C   UNL     1      -9.342  14.801  69.048  1.00  0.00    -0.160 A  
HETATM   32  C   UNL     1     -10.464  15.604  69.237  1.00  0.00    -0.247 A  
HETATM   33  C   UNL     1     -11.624  15.368  68.499  1.00  0.00    -0.373 A  
HETATM   34  C   UNL     1     -11.660  14.329  67.567  1.00  0.00    -0.390 A  
ENDBRANCH  28  29
ENDBRANCH  27  28
ENDBRANCH  24  27
ENDBRANCH  23  24
ENDBRANCH  22  23
ENDBRANCH  19  22
ENDBRANCH  12  13
ENDBRANCH  11  12
ENDBRANCH   9  10
ENDBRANCH   8   9
ENDBRANCH   7   8
ENDBRANCH   5   7
ENDBRANCH   4   5
ENDBRANCH   2   4
TORSDOF 14
ENDMDL
MODEL      288
REMARK 921   NORMALIZED FREE ENERGY PREDICTED BY IDOCK:   -3.34 KCAL/MOL
REMARK 922        TOTAL FREE ENERGY PREDICTED BY IDOCK:   -9.36 KCAL/MOL
REMARK 923 INTER-LIGAND FREE ENERGY PREDICTED BY IDOCK:   -7.84 KCAL/MOL
REMARK 924 INTRA-LIGAND FREE ENERGY PREDICTED BY IDOCK:   -1.52 KCAL/MOL
REMARK 927      BINDING AFFINITY PREDICTED BY RF-SCORE:    0.00 PKD
ROOT
HETATM    1  C   UNL     1      -7.396  14.565  67.689  1.00  0.00    -0.201 C  
HETATM    2  C   UNL     1      -7.834  15.923  67.154  1.00  0.00    -0.214 C  
HETATM    3  C   UNL     1      -6.664  16.651  66.503  1.00  0.00    -0.086 C  
ENDROOT
BRANCH   2   4
HETATM    4  O   UNL     1      -8.844  15.738  66.145  1.00  0.00    -0.326 OA 
BRANCH   4   5
HETATM    5  C   UNL     1      -9.862  16.646  66.171  1.00  0.00    -0.318 C  
HETATM    6  O   UNL     1     -10.456  17.072  65.188  1.00  0.00    -0.667 OA 
BRANCH   5   7
HETATM    7  C   UNL     1     -10.133  17.065  67.593  1.00  0.00    -0.298 C  
BRANCH   7   8
HETATM    8  C   UNL     1     -10.988  16.021  68.315  1.00  0.00    -0.335 C  
BRANCH   8   9
HETATM    9  C   UNL     1     -11.566  14.965  67.376  1.00  0.00    -0.347 C  
BRANCH   9  10
HETATM   10  C   UNL     1     -12.024  13.737  68.110  1.00  0.00    -0.394 C  
HETATM   11  C   UNL     1     -11.640  12.471  67.874  1.00  0.00    -0.403 C  
BRANCH  11  12
HETATM   12  C   UNL     1     -10.650  12.010  66.843  1.00  0.00    -0.260 C  
BRANCH  12  13
HETATM   13  C   UNL     1     -10.157  10.559  66.981  1.00  0.00    -0.259 C  
HETATM   14  C   UNL     1      -9.283  10.159  65.778  1.00  0.00    -0.178 C  
HETATM   15  C   UNL     1      -8.615   8.880  66.245  1.00  0.00    -0.145 C  
HETATM   16  O   UNL     1      -8.260  11.122  65.527  1.00  0.00    -0.351 OA 
HETATM   17  C   UNL     1      -8.244   9.188  67.692  1.00  0.00    -0.108 C  
HETATM   18  H   UNL     1      -7.721  10.876  64.784  1.00  0.00     0.000 HD 
HETATM   19  C   UNL     1      -9.236  10.271  68.194  1.00  0.00    -0.137 C  
HETATM   20  O   UNL     1      -6.918   9.710  67.757  1.00  0.00    -0.077 OA 
HETATM   21  H   UNL     1      -6.687   9.902  68.659  1.00  0.00     0.000 HD 
BRANCH  19  22
HETATM   22  C   UNL     1     -10.006   9.789  69.437  1.00  0.00    -0.217 C  
BRANCH  22  23
HETATM   23  C   UNL     1      -9.915   8.266  69.576  1.00  0.00    -0.187 C  
BRANCH  23  24
HETATM   24  C   UNL     1     -11.221   7.521  69.274  1.00  0.00     0.163 C  
HETATM   25  O   UNL     1     -11.162   6.941  67.971  1.00  0.00    -0.515 OA 
HETATM   26  H   UNL     1     -11.970   6.479  67.783  1.00  0.00     0.000 HD 
BRANCH  24  27
HETATM   27  C   UNL     1     -11.455   6.375  70.270  1.00  0.00    -0.468 C  
BRANCH  27  28
HETATM   28  C   UNL     1     -10.308   5.366  70.296  1.00  0.00    -0.357 C  
BRANCH  28  29
HETATM   29  C   UNL     1      -9.838   5.073  71.695  1.00  0.00    -0.239 A  
HETATM   30  C   UNL     1     -10.726   5.189  72.773  1.00  0.00    -0.294 A  
HETATM   31  C   UNL     1     -10.299   4.915  74.071  1.00  0.00    -0.298 A  
HETATM   32  C   UNL     1      -8.981   4.528  74.303  1.00  0.00    -0.108 A  
HETATM   33  C   UNL     1      -8.088   4.420  73.238  1.00  0.00    -0.095 A  
HETATM   34  C   UNL     1      -8.514   4.694  71.937  1.00  0.00    -0.120 A  
ENDBRANCH  28  29
ENDBRANCH  27  28
ENDBRANCH  24  27
ENDBRANCH  23  24
ENDBRANCH  22  23
ENDBRANCH  19  22
ENDBRANCH  12  13
ENDBRANCH  11  12
ENDBRANCH   9  10
ENDBRANCH   8   9
ENDBRANCH   7   8
ENDBRANCH   5   7
ENDBRANCH   4   5
ENDBRANCH   2   4
TORSDOF 14
ENDMDL
MODEL      289
REMARK 921   NORMALIZED FREE ENERGY PREDICTED BY IDOCK:   -3.34 KCAL/MOL
REMARK 922        TOTAL FREE ENERGY PREDICTED BY IDOCK:   -9.36 KCAL/MOL
REMARK 923 INTER-LIGAND FREE ENERGY PREDICTED BY IDOCK:   -7.81 KCAL/MOL
REMARK 924 INTRA-LIGAND FREE ENERGY PREDICTED BY IDOCK:   -1.55 KCAL/MOL
REMARK 927      BINDING AFFINITY PREDICTED BY RF-SCORE:    0.00 PKD
ROOT
HETATM    1  C   UNL     1      -9.511  10.877  62.935  1.00  0.00    -0.377 C  
HETATM    2  C   UNL     1     -10.148  12.031  63.701  1.00  0.00    -0.415 C  
HETATM    3  C   UNL     1     -11.666  11.992  63.576  1.00  0.00    -0.566 C  
ENDROOT
BRANCH   2   4
HETATM    4  O   UNL     1      -9.826  11.914  65.099  1.00  0.00    -0.245 OA 
BRANCH   4   5
HETATM    5  C   UNL     1      -9.029  10.855  65.424  1.00  0.00    -0.193 C  
HETATM    6  O   UNL     1      -7.816  10.905  65.585  1.00  0.00    -0.118 OA 
BRANCH   5   7
HETATM    7  C   UNL     1      -9.865   9.606  65.533  1.00  0.00    -0.352 C  
BRANCH   7   8
HETATM    8  C   UNL     1     -10.261   9.341  66.987  1.00  0.00    -0.331 C  
BRANCH   8   9
HETATM    9  C   UNL     1     -10.709  10.599  67.726  1.00  0.00    -0.302 C  
BRANCH   9  10
HETATM   10  C   UNL     1     -11.306  10.291  69.070  1.00  0.00    -0.237 C  
HETATM   11  C   UNL     1     -10.654   9.835  70.153  1.00  0.00    -0.337 C  
BRANCH  11  12
HETATM   12  C   UNL     1      -9.182   9.557  70.263  1.00  0.00    -0.303 C  
BRANCH  12  13
HETATM   13  C   UNL     1      -8.783   8.383  71.174  1.00  0.00    -0.194 C  
HETATM   14  C   UNL     1      -7.251   8.256  71.266  1.00  0.00    -0.073 C  
HETATM   15  C   UNL     1      -7.052   7.322  72.445  1.00  0.00    -0.067 C  
HETATM   16  O   UNL     1      -6.636   9.504  71.586  1.00  0.00    -0.299 OA 
HETATM   17  C   UNL     1      -8.076   7.817  73.461  1.00  0.00    -0.171 C  
HETATM   18  H   UNL     1      -5.691   9.425  71.643  1.00  0.00     0.000 HD 
HETATM   19  C   UNL     1      -9.214   8.504  72.658  1.00  0.00    -0.269 C  
HETATM   20  O   UNL     1      -7.480   8.777  74.331  1.00  0.00    -0.403 OA 
HETATM   21  H   UNL     1      -8.118   9.085  74.963  1.00  0.00     0.000 HD 
BRANCH  19  22
HETATM   22  C   UNL     1     -10.576   7.846  72.948  1.00  0.00    -0.434 C  
BRANCH  22  23
HETATM   23  C   UNL     1     -10.745   6.563  72.131  1.00  0.00    -0.249 C  
BRANCH  23  24
HETATM   24  C   UNL     1     -10.676   5.271  72.954  1.00  0.00    -0.253 C  
HETATM   25  O   UNL     1     -11.984   4.894  73.383  1.00  0.00    -0.428 OA 
HETATM   26  H   UNL     1     -11.942   4.094  73.893  1.00  0.00     0.000 HD 
BRANCH  24  27
HETATM   27  C   UNL     1     -10.118   4.106  72.123  1.00  0.00    -0.248 C  
BRANCH  27  28
HETATM   28  C   UNL     1      -8.678   4.338  71.665  1.00  0.00    -0.136 C  
BRANCH  28  29
HETATM   29  C   UNL     1      -8.584   4.589  70.184  1.00  0.00    -0.104 A  
HETATM   30  C   UNL     1      -9.703   4.385  69.366  1.00  0.00    -0.267 A  
HETATM   31  C   UNL     1      -9.625   4.620  67.994  1.00  0.00    -0.207 A  
HETATM   32  C   UNL     1      -8.428   5.054  67.429  1.00  0.00    -0.105 A  
HETATM   33  C   UNL     1      -7.306   5.249  68.235  1.00  0.00    -0.072 A  
HETATM   34  C   UNL     1      -7.383   5.015  69.609  1.00  0.00    -0.056 A  
ENDBRANCH  28  29
ENDBRANCH  27  28
ENDBRANCH  24  27
ENDBRANCH  23  24
ENDBRANCH  22  23
ENDBRANCH  19  22
ENDBRANCH  12  13
ENDBRANCH  11  12
ENDBRANCH   9  10
ENDBRANCH   8   9
ENDBRANCH   7   8
ENDBRANCH   5   7
ENDBRANCH   4   5
ENDBRANCH   2   4
TORSDOF 14
ENDMDL
MODEL      290
REMARK 921   NORMALIZED FREE ENERGY PREDICTED BY IDOCK:   -3.33 KCAL/MOL
REMARK 922        TOTAL FREE ENERGY PREDICTED BY IDOCK:   -9.34 KCAL/MOL
REMARK 923 INTER-LIGAND FREE ENERGY PREDICTED BY IDOCK:   -7.29 KCAL/MOL
REMARK 924 INTRA-LIGAND FREE ENERGY PREDICTED BY IDOCK:   -2.06 KCAL/MOL
REMARK 927      BINDING AFFINITY PREDICTED BY RF-SCORE:    0.00 PKD
ROOT
HETATM    1  C   UNL     1     -10.065   6.722  74.096  1.00  0.00    -0.381 C  
HETATM    2  C   UNL     1      -9.161   6.574  72.877  1.00  0.00    -0.135 C  
HETATM    3  C   UNL     1      -7.835   7.290  73.097  1.00  0.00    -0.114 C  
ENDROOT
BRANCH   2   4
HETATM    4  O   UNL     1      -8.871   5.180  72.663  1.00  0.00    -0.122 OA 
BRANCH   4   5
HETATM    5  C   UNL     1      -9.876   4.461  72.085  1.00  0.00    -0.176 C  
HETATM    6  O   UNL     1     -10.514   3.570  72.633  1.00  0.00    -0.162 OA 
BRANCH   5   7
HETATM    7  C   UNL     1     -10.070   4.912  70.660  1.00  0.00    -0.306 C  
BRANCH   7   8
HETATM    8  C   UNL     1      -9.510   3.878  69.681  1.00  0.00    -0.263 C  
BRANCH   8   9
HETATM    9  C   UNL     1      -9.118   4.479  68.333  1.00  0.00    -0.161 C  
BRANCH   9  10
HETATM   10  C   UNL     1      -8.364   5.770  68.479  1.00  0.00    -0.107 C  
HETATM   11  C   UNL     1      -7.987   6.595  67.488  1.00  0.00    -0.115 C  
BRANCH  11  12
HETATM   12  C   UNL     1      -8.258   6.420  66.022  1.00  0.00    -0.126 C  
BRANCH  12  13
HETATM   13  C   UNL     1      -7.632   7.471  65.089  1.00  0.00    -0.096 C  
HETATM   14  C   UNL     1      -7.537   6.939  63.647  1.00  0.00    -0.101 C  
HETATM   15  C   UNL     1      -7.250   8.187  62.835  1.00  0.00    -0.097 C  
HETATM   16  O   UNL     1      -8.782   6.401  63.200  1.00  0.00    -0.321 OA 
HETATM   17  C   UNL     1      -8.174   9.229  63.457  1.00  0.00    -0.173 C  
HETATM   18  H   UNL     1      -8.724   6.073  62.310  1.00  0.00     0.000 HD 
HETATM   19  C   UNL     1      -8.430   8.789  64.923  1.00  0.00    -0.189 C  
HETATM   20  O   UNL     1      -9.418   9.260  62.759  1.00  0.00    -0.528 OA 
HETATM   21  H   UNL     1      -9.993   9.909  63.147  1.00  0.00     0.000 HD 
BRANCH  19  22
HETATM   22  C   UNL     1      -8.003   9.885  65.917  1.00  0.00    -0.115 C  
BRANCH  22  23
HETATM   23  C   UNL     1      -9.221  10.656  66.433  1.00  0.00    -0.190 C  
BRANCH  23  24
HETATM   24  C   UNL     1      -9.361  10.677  67.959  1.00  0.00    -0.147 C  
HETATM   25  O   UNL     1      -9.055  11.979  68.460  1.00  0.00    -0.277 OA 
HETATM   26  H   UNL     1      -9.142  11.993  69.406  1.00  0.00     0.000 HD 
BRANCH  24  27
HETATM   27  C   UNL     1     -10.797  10.349  68.395  1.00  0.00    -0.289 C  
BRANCH  27  28
HETATM   28  C   UNL     1     -11.155  10.942  69.758  1.00  0.00    -0.328 C  
BRANCH  28  29
HETATM   29  C   UNL     1     -11.872   9.955  70.639  1.00  0.00    -0.386 A  
HETATM   30  C   UNL     1     -11.501   8.604  70.625  1.00  0.00    -0.256 A  
HETATM   31  C   UNL     1     -12.157   7.685  71.442  1.00  0.00    -0.342 A  
HETATM   32  C   UNL     1     -13.191   8.108  72.274  1.00  0.00    -0.189 A  
HETATM   33  C   UNL     1     -13.573   9.448  72.287  1.00  0.00    -0.532 A  
HETATM   34  C   UNL     1     -12.917  10.370  71.470  1.00  0.00    -0.562 A  
ENDBRANCH  28  29
ENDBRANCH  27  28
ENDBRANCH  24  27
ENDBRANCH  23  24
ENDBRANCH  22  23
ENDBRANCH  19  22
ENDBRANCH  12  13
ENDBRANCH  11  12
ENDBRANCH   9  10
ENDBRANCH   8   9
ENDBRANCH   7   8
ENDBRANCH   5   7
ENDBRANCH   4   5
ENDBRANCH   2   4
TORSDOF 14
ENDMDL
MODEL      291
REMARK 921   NORMALIZED FREE ENERGY PREDICTED BY IDOCK:   -3.32 KCAL/MOL
REMARK 922        TOTAL FREE ENERGY PREDICTED BY IDOCK:   -9.34 KCAL/MOL
REMARK 923 INTER-LIGAND FREE ENERGY PREDICTED BY IDOCK:   -8.09 KCAL/MOL
REMARK 924 INTRA-LIGAND FREE ENERGY PREDICTED BY IDOCK:   -1.25 KCAL/MOL
REMARK 927      BINDING AFFINITY PREDICTED BY RF-SCORE:    0.00 PKD
ROOT
HETATM    1  C   UNL     1     -12.649  10.642  70.462  1.00  0.00    -0.433 C  
HETATM    2  C   UNL     1     -11.773   9.707  71.287  1.00  0.00    -0.382 C  
HETATM    3  C   UNL     1     -12.614   8.626  71.954  1.00  0.00    -0.411 C  
ENDROOT
BRANCH   2   4
HETATM    4  O   UNL     1     -10.828   9.048  70.423  1.00  0.00    -0.229 OA 
BRANCH   4   5
HETATM    5  C   UNL     1     -10.781   7.690  70.544  1.00  0.00    -0.236 C  
HETATM    6  O   UNL     1     -11.601   6.909  70.079  1.00  0.00    -0.299 OA 
BRANCH   5   7
HETATM    7  C   UNL     1      -9.575   7.295  71.357  1.00  0.00    -0.165 C  
BRANCH   7   8
HETATM    8  C   UNL     1      -8.657   6.370  70.555  1.00  0.00    -0.143 C  
BRANCH   8   9
HETATM    9  C   UNL     1      -8.105   7.022  69.290  1.00  0.00    -0.120 C  
BRANCH   9  10
HETATM   10  C   UNL     1      -7.465   8.353  69.564  1.00  0.00    -0.088 C  
HETATM   11  C   UNL     1      -6.954   9.200  68.654  1.00  0.00    -0.063 C  
BRANCH  11  12
HETATM   12  C   UNL     1      -6.933   9.012  67.165  1.00  0.00    -0.078 C  
BRANCH  12  13
HETATM   13  C   UNL     1      -7.714  10.051  66.342  1.00  0.00    -0.103 C  
HETATM   14  C   UNL     1      -8.247   9.431  65.037  1.00  0.00    -0.138 C  
HETATM   15  C   UNL     1      -9.258  10.454  64.555  1.00  0.00    -0.287 C  
HETATM   16  O   UNL     1      -8.943   8.208  65.280  1.00  0.00    -0.381 OA 
HETATM   17  C   UNL     1      -9.979  10.863  65.835  1.00  0.00    -0.243 C  
HETATM   18  H   UNL     1      -9.272   7.826  64.475  1.00  0.00     0.000 HD 
HETATM   19  C   UNL     1      -8.994  10.618  67.008  1.00  0.00    -0.145 C  
HETATM   20  O   UNL     1     -11.137  10.053  66.025  1.00  0.00     0.329 OA 
HETATM   21  H   UNL     1     -11.586  10.308  66.823  1.00  0.00     0.000 HD 
BRANCH  19  22
HETATM   22  C   UNL     1      -8.740  11.911  67.804  1.00  0.00    -0.158 C  
BRANCH  22  23
HETATM   23  C   UNL     1     -10.058  12.509  68.304  1.00  0.00    -0.228 C  
BRANCH  23  24
HETATM   24  C   UNL     1     -10.362  13.914  67.771  1.00  0.00    -0.240 C  
HETATM   25  O   UNL     1     -11.589  13.905  67.040  1.00  0.00    -0.331 OA 
HETATM   26  H   UNL     1     -11.777  14.776  66.711  1.00  0.00     0.000 HD 
BRANCH  24  27
HETATM   27  C   UNL     1     -10.524  14.925  68.917  1.00  0.00    -0.242 C  
BRANCH  27  28
HETATM   28  C   UNL     1     -11.978  15.338  69.144  1.00  0.00    -0.308 C  
BRANCH  28  29
HETATM   29  C   UNL     1     -12.384  15.224  70.589  1.00  0.00    -0.427 A  
HETATM   30  C   UNL     1     -13.545  14.522  70.939  1.00  0.00    -0.196 A  
HETATM   31  C   UNL     1     -13.923  14.408  72.276  1.00  0.00    -0.610 A  
HETATM   32  C   UNL     1     -13.149  15.000  73.271  1.00  0.00    -0.607 A  
HETATM   33  C   UNL     1     -11.997  15.709  72.931  1.00  0.00    -0.588 A  
HETATM   34  C   UNL     1     -11.616  15.823  71.593  1.00  0.00    -0.537 A  
ENDBRANCH  28  29
ENDBRANCH  27  28
ENDBRANCH  24  27
ENDBRANCH  23  24
ENDBRANCH  22  23
ENDBRANCH  19  22
ENDBRANCH  12  13
ENDBRANCH  11  12
ENDBRANCH   9  10
ENDBRANCH   8   9
ENDBRANCH   7   8
ENDBRANCH   5   7
ENDBRANCH   4   5
ENDBRANCH   2   4
TORSDOF 14
ENDMDL
MODEL      292
REMARK 921   NORMALIZED FREE ENERGY PREDICTED BY IDOCK:   -3.28 KCAL/MOL
REMARK 922        TOTAL FREE ENERGY PREDICTED BY IDOCK:   -9.26 KCAL/MOL
REMARK 923 INTER-LIGAND FREE ENERGY PREDICTED BY IDOCK:   -7.27 KCAL/MOL
REMARK 924 INTRA-LIGAND FREE ENERGY PREDICTED BY IDOCK:   -1.98 KCAL/MOL
REMARK 927      BINDING AFFINITY PREDICTED BY RF-SCORE:    0.00 PKD
ROOT
HETATM    1  C   UNL     1     -10.847   4.813  65.813  1.00  0.00    -0.123 C  
HETATM    2  C   UNL     1      -9.850   4.372  66.879  1.00  0.00    -0.207 C  
HETATM    3  C   UNL     1      -8.512   4.009  66.250  1.00  0.00    -0.109 C  
ENDROOT
BRANCH   2   4
HETATM    4  O   UNL     1      -9.617   5.458  67.795  1.00  0.00    -0.119 OA 
BRANCH   4   5
HETATM    5  C   UNL     1     -10.225   5.331  69.011  1.00  0.00    -0.199 C  
HETATM    6  O   UNL     1      -9.973   4.467  69.841  1.00  0.00    -0.219 OA 
BRANCH   5   7
HETATM    7  C   UNL     1     -11.272   6.403  69.169  1.00  0.00    -0.421 C  
BRANCH   7   8
HETATM    8  C   UNL     1     -11.099   7.142  70.497  1.00  0.00    -0.299 C  
BRANCH   8   9
HETATM    9  C   UNL     1     -10.252   8.406  70.375  1.00  0.00    -0.212 C  
BRANCH   9  10
HETATM   10  C   UNL     1     -10.770   9.342  69.320  1.00  0.00    -0.228 C  
HETATM   11  C   UNL     1     -10.039  10.156  68.540  1.00  0.00    -0.186 C  
BRANCH  11  12
HETATM   12  C   UNL     1      -8.543  10.290  68.535  1.00  0.00    -0.126 C  
BRANCH  12  13
HETATM   13  C   UNL     1      -7.832   9.868  67.238  1.00  0.00    -0.102 C  
HETATM   14  C   UNL     1      -7.072   8.543  67.434  1.00  0.00    -0.080 C  
HETATM   15  C   UNL     1      -6.753   8.113  66.015  1.00  0.00    -0.053 C  
HETATM   16  O   UNL     1      -7.903   7.540  68.020  1.00  0.00    -0.117 OA 
HETATM   17  C   UNL     1      -8.039   8.425  65.258  1.00  0.00    -0.140 C  
HETATM   18  H   UNL     1      -7.434   6.723  68.141  1.00  0.00     0.000 HD 
HETATM   19  C   UNL     1      -8.754   9.566  66.029  1.00  0.00    -0.166 C  
HETATM   20  O   UNL     1      -8.887   7.278  65.239  1.00  0.00    -0.364 OA 
HETATM   21  H   UNL     1      -9.688   7.472  64.767  1.00  0.00     0.000 HD 
BRANCH  19  22
HETATM   22  C   UNL     1      -8.985  10.791  65.124  1.00  0.00    -0.215 C  
BRANCH  22  23
HETATM   23  C   UNL     1      -9.966  11.770  65.776  1.00  0.00    -0.269 C  
BRANCH  23  24
HETATM   24  C   UNL     1     -11.195  12.102  64.923  1.00  0.00    -0.323 C  
HETATM   25  O   UNL     1     -12.372  12.082  65.732  1.00  0.00    -0.469 OA 
HETATM   26  H   UNL     1     -13.134  12.287  65.204  1.00  0.00     0.000 HD 
BRANCH  24  27
HETATM   27  C   UNL     1     -11.090  13.506  64.310  1.00  0.00    -0.371 C  
BRANCH  27  28
HETATM   28  C   UNL     1     -11.897  14.553  65.079  1.00  0.00    -0.399 C  
BRANCH  28  29
HETATM   29  C   UNL     1     -11.086  15.217  66.158  1.00  0.00    -0.311 A  
HETATM   30  C   UNL     1     -10.209  16.261  65.835  1.00  0.00    -0.384 A  
HETATM   31  C   UNL     1      -9.458  16.884  66.831  1.00  0.00    -0.261 A  
HETATM   32  C   UNL     1      -9.575  16.466  68.155  1.00  0.00    -0.227 A  
HETATM   33  C   UNL     1     -10.438  15.422  68.484  1.00  0.00    -0.234 A  
HETATM   34  C   UNL     1     -11.191  14.797  67.488  1.00  0.00    -0.339 A  
ENDBRANCH  28  29
ENDBRANCH  27  28
ENDBRANCH  24  27
ENDBRANCH  23  24
ENDBRANCH  22  23
ENDBRANCH  19  22
ENDBRANCH  12  13
ENDBRANCH  11  12
ENDBRANCH   9  10
ENDBRANCH   8   9
ENDBRANCH   7   8
ENDBRANCH   5   7
ENDBRANCH   4   5
ENDBRANCH   2   4
TORSDOF 14
ENDMDL
MODEL      293
REMARK 921   NORMALIZED FREE ENERGY PREDICTED BY IDOCK:   -3.28 KCAL/MOL
REMARK 922        TOTAL FREE ENERGY PREDICTED BY IDOCK:   -9.25 KCAL/MOL
REMARK 923 INTER-LIGAND FREE ENERGY PREDICTED BY IDOCK:   -7.05 KCAL/MOL
REMARK 924 INTRA-LIGAND FREE ENERGY PREDICTED BY IDOCK:   -2.20 KCAL/MOL
REMARK 927      BINDING AFFINITY PREDICTED BY RF-SCORE:    0.00 PKD
ROOT
HETATM    1  C   UNL     1      -6.328   6.355  72.670  1.00  0.00    -0.058 C  
HETATM    2  C   UNL     1      -7.845   6.394  72.807  1.00  0.00    -0.103 C  
HETATM    3  C   UNL     1      -8.251   6.883  74.191  1.00  0.00    -0.153 C  
ENDROOT
BRANCH   2   4
HETATM    4  O   UNL     1      -8.390   7.315  71.845  1.00  0.00    -0.106 OA 
BRANCH   4   5
HETATM    5  C   UNL     1      -9.593   6.953  71.311  1.00  0.00    -0.165 C  
HETATM    6  O   UNL     1     -10.538   7.707  71.120  1.00  0.00    -0.220 OA 
BRANCH   5   7
HETATM    7  C   UNL     1      -9.591   5.476  71.012  1.00  0.00    -0.217 C  
BRANCH   7   8
HETATM    8  C   UNL     1     -10.432   5.171  69.770  1.00  0.00    -0.274 C  
BRANCH   8   9
HETATM    9  C   UNL     1      -9.878   5.809  68.499  1.00  0.00    -0.177 C  
BRANCH   9  10
HETATM   10  C   UNL     1     -10.953   6.447  67.664  1.00  0.00    -0.441 C  
HETATM   11  C   UNL     1     -10.819   7.521  66.867  1.00  0.00    -0.174 C  
BRANCH  11  12
HETATM   12  C   UNL     1      -9.561   8.302  66.618  1.00  0.00    -0.299 C  
BRANCH  12  13
HETATM   13  C   UNL     1      -9.639   9.813  66.894  1.00  0.00    -0.228 C  
HETATM   14  C   UNL     1      -9.268  10.622  65.637  1.00  0.00    -0.196 C  
HETATM   15  C   UNL     1      -9.737  12.024  65.977  1.00  0.00    -0.256 C  
HETATM   16  O   UNL     1      -9.997  10.181  64.492  1.00  0.00    -0.326 OA 
HETATM   17  C   UNL     1     -11.084  11.789  66.652  1.00  0.00    -0.310 C  
HETATM   18  H   UNL     1      -9.767  10.679  63.717  1.00  0.00     0.000 HD 
HETATM   19  C   UNL     1     -11.041  10.362  67.261  1.00  0.00    -0.251 C  
HETATM   20  O   UNL     1     -12.133  11.849  65.687  1.00  0.00    -0.439 OA 
HETATM   21  H   UNL     1     -12.972  11.702  66.108  1.00  0.00     0.000 HD 
BRANCH  19  22
HETATM   22  C   UNL     1     -11.300  10.396  68.779  1.00  0.00    -0.275 C  
BRANCH  22  23
HETATM   23  C   UNL     1     -11.172  11.823  69.320  1.00  0.00    -0.318 C  
BRANCH  23  24
HETATM   24  C   UNL     1     -12.508  12.499  69.653  1.00  0.00     0.188 C  
HETATM   25  O   UNL     1     -13.014  11.998  70.890  1.00  0.00    -0.167 OA 
HETATM   26  H   UNL     1     -13.841  12.416  71.097  1.00  0.00     0.000 HD 
BRANCH  24  27
HETATM   27  C   UNL     1     -12.343  14.018  69.812  1.00  0.00    -0.344 C  
BRANCH  27  28
HETATM   28  C   UNL     1     -10.880  14.461  69.802  1.00  0.00    -0.087 C  
BRANCH  28  29
HETATM   29  C   UNL     1     -10.421  14.882  68.432  1.00  0.00    -0.243 A  
HETATM   30  C   UNL     1      -9.052  14.991  68.154  1.00  0.00    -0.178 A  
HETATM   31  C   UNL     1      -8.620  15.375  66.885  1.00  0.00    -0.291 A  
HETATM   32  C   UNL     1      -9.551  15.658  65.889  1.00  0.00    -0.385 A  
HETATM   33  C   UNL     1     -10.915  15.562  66.160  1.00  0.00    -0.247 A  
HETATM   34  C   UNL     1     -11.350  15.177  67.429  1.00  0.00    -0.309 A  
ENDBRANCH  28  29
ENDBRANCH  27  28
ENDBRANCH  24  27
ENDBRANCH  23  24
ENDBRANCH  22  23
ENDBRANCH  19  22
ENDBRANCH  12  13
ENDBRANCH  11  12
ENDBRANCH   9  10
ENDBRANCH   8   9
ENDBRANCH   7   8
ENDBRANCH   5   7
ENDBRANCH   4   5
ENDBRANCH   2   4
TORSDOF 14
ENDMDL
MODEL      294
REMARK 921   NORMALIZED FREE ENERGY PREDICTED BY IDOCK:   -3.26 KCAL/MOL
REMARK 922        TOTAL FREE ENERGY PREDICTED BY IDOCK:   -9.22 KCAL/MOL
REMARK 923 INTER-LIGAND FREE ENERGY PREDICTED BY IDOCK:   -7.12 KCAL/MOL
REMARK 924 INTRA-LIGAND FREE ENERGY PREDICTED BY IDOCK:   -2.11 KCAL/MOL
REMARK 927      BINDING AFFINITY PREDICTED BY RF-SCORE:    0.00 PKD
ROOT
HETATM    1  C   UNL     1     -11.400   8.971  71.872  1.00  0.00    -0.438 C  
HETATM    2  C   UNL     1     -11.542   7.456  71.774  1.00  0.00    -0.272 C  
HETATM    3  C   UNL     1     -12.980   7.067  71.458  1.00  0.00    -0.411 C  
ENDROOT
BRANCH   2   4
HETATM    4  O   UNL     1     -10.715   6.965  70.703  1.00  0.00    -0.224 OA 
BRANCH   4   5
HETATM    5  C   UNL     1      -9.437   6.644  71.057  1.00  0.00    -0.164 C  
HETATM    6  O   UNL     1      -8.456   7.359  70.895  1.00  0.00    -0.121 OA 
BRANCH   5   7
HETATM    7  C   UNL     1      -9.409   5.263  71.660  1.00  0.00    -0.178 C  
BRANCH   7   8
HETATM    8  C   UNL     1      -9.733   4.202  70.607  1.00  0.00    -0.273 C  
BRANCH   8   9
HETATM    9  C   UNL     1      -8.512   3.757  69.807  1.00  0.00    -0.092 C  
BRANCH   9  10
HETATM   10  C   UNL     1      -8.709   2.416  69.158  1.00  0.00    -0.131 C  
HETATM   11  C   UNL     1      -9.166   2.185  67.916  1.00  0.00    -0.233 C  
BRANCH  11  12
HETATM   12  C   UNL     1      -9.555   3.217  66.896  1.00  0.00    -0.063 C  
BRANCH  12  13
HETATM   13  C   UNL     1      -8.612   4.426  66.765  1.00  0.00    -0.107 C  
HETATM   14  C   UNL     1      -7.466   4.126  65.782  1.00  0.00    -0.081 C  
HETATM   15  C   UNL     1      -6.874   5.496  65.510  1.00  0.00    -0.063 C  
HETATM   16  O   UNL     1      -7.955   3.606  64.545  1.00  0.00    -0.085 OA 
HETATM   17  C   UNL     1      -8.104   6.386  65.370  1.00  0.00    -0.128 C  
HETATM   18  H   UNL     1      -7.248   3.421  63.938  1.00  0.00     0.000 HD 
HETATM   19  C   UNL     1      -9.244   5.716  66.183  1.00  0.00    -0.169 C  
HETATM   20  O   UNL     1      -8.497   6.467  64.001  1.00  0.00    -0.334 OA 
HETATM   21  H   UNL     1      -9.264   7.022  63.914  1.00  0.00     0.000 HD 
BRANCH  19  22
HETATM   22  C   UNL     1      -9.790   6.665  67.266  1.00  0.00    -0.184 C  
BRANCH  22  23
HETATM   23  C   UNL     1      -8.816   7.819  67.518  1.00  0.00    -0.124 C  
BRANCH  23  24
HETATM   24  C   UNL     1      -9.339   9.197  67.094  1.00  0.00    -0.143 C  
HETATM   25  O   UNL     1     -10.189   9.067  65.955  1.00  0.00    -0.381 OA 
HETATM   26  H   UNL     1     -10.514   9.921  65.693  1.00  0.00     0.000 HD 
BRANCH  24  27
HETATM   27  C   UNL     1     -10.171   9.847  68.210  1.00  0.00    -0.204 C  
BRANCH  27  28
HETATM   28  C   UNL     1     -11.389  10.603  67.680  1.00  0.00    -0.284 C  
BRANCH  28  29
HETATM   29  C   UNL     1     -11.755  11.776  68.549  1.00  0.00    -0.390 A  
HETATM   30  C   UNL     1     -12.080  11.576  69.897  1.00  0.00    -0.389 A  
HETATM   31  C   UNL     1     -12.415  12.658  70.709  1.00  0.00    -0.357 A  
HETATM   32  C   UNL     1     -12.434  13.946  70.179  1.00  0.00    -0.355 A  
HETATM   33  C   UNL     1     -12.122  14.153  68.836  1.00  0.00    -0.339 A  
HETATM   34  C   UNL     1     -11.786  13.071  68.022  1.00  0.00    -0.397 A  
ENDBRANCH  28  29
ENDBRANCH  27  28
ENDBRANCH  24  27
ENDBRANCH  23  24
ENDBRANCH  22  23
ENDBRANCH  19  22
ENDBRANCH  12  13
ENDBRANCH  11  12
ENDBRANCH   9  10
ENDBRANCH   8   9
ENDBRANCH   7   8
ENDBRANCH   5   7
ENDBRANCH   4   5
ENDBRANCH   2   4
TORSDOF 14
ENDMDL
MODEL      295
REMARK 921   NORMALIZED FREE ENERGY PREDICTED BY IDOCK:   -3.25 KCAL/MOL
REMARK 922        TOTAL FREE ENERGY PREDICTED BY IDOCK:   -9.21 KCAL/MOL
REMARK 923 INTER-LIGAND FREE ENERGY PREDICTED BY IDOCK:   -7.20 KCAL/MOL
REMARK 924 INTRA-LIGAND FREE ENERGY PREDICTED BY IDOCK:   -2.01 KCAL/MOL
REMARK 927      BINDING AFFINITY PREDICTED BY RF-SCORE:    0.00 PKD
ROOT
HETATM    1  C   UNL     1     -10.397   5.621  67.798  1.00  0.00    -0.260 C  
HETATM    2  C   UNL     1      -8.971   5.606  67.259  1.00  0.00    -0.111 C  
HETATM    3  C   UNL     1      -8.530   4.183  66.939  1.00  0.00    -0.100 C  
ENDROOT
BRANCH   2   4
HETATM    4  O   UNL     1      -8.912   6.363  66.037  1.00  0.00    -0.157 OA 
BRANCH   4   5
HETATM    5  C   UNL     1      -8.669   7.697  66.191  1.00  0.00    -0.156 C  
HETATM    6  O   UNL     1      -9.524   8.557  66.359  1.00  0.00    -0.197 OA 
BRANCH   5   7
HETATM    7  C   UNL     1      -7.187   7.956  66.103  1.00  0.00    -0.073 C  
BRANCH   7   8
HETATM    8  C   UNL     1      -6.898   9.459  66.078  1.00  0.00    -0.089 C  
BRANCH   8   9
HETATM    9  C   UNL     1      -6.343   9.985  67.399  1.00  0.00    -0.067 C  
BRANCH   9  10
HETATM   10  C   UNL     1      -6.473   8.985  68.513  1.00  0.00    -0.054 C  
HETATM   11  C   UNL     1      -7.375   9.007  69.510  1.00  0.00    -0.071 C  
BRANCH  11  12
HETATM   12  C   UNL     1      -8.464  10.021  69.713  1.00  0.00    -0.189 C  
BRANCH  12  13
HETATM   13  C   UNL     1      -9.901   9.472  69.735  1.00  0.00    -0.236 C  
HETATM   14  C   UNL     1     -10.101   8.501  70.913  1.00  0.00    -0.201 C  
HETATM   15  C   UNL     1     -11.609   8.354  70.989  1.00  0.00    -0.307 C  
HETATM   16  O   UNL     1      -9.653   9.067  72.145  1.00  0.00    -0.312 OA 
HETATM   17  C   UNL     1     -12.110   9.777  70.772  1.00  0.00    -0.279 C  
HETATM   18  H   UNL     1      -9.775   8.468  72.872  1.00  0.00     0.000 HD 
HETATM   19  C   UNL     1     -11.022  10.521  69.953  1.00  0.00    -0.359 C  
HETATM   20  O   UNL     1     -12.277  10.436  72.026  1.00  0.00    -0.132 OA 
HETATM   21  H   UNL     1     -12.589  11.322  71.890  1.00  0.00     0.000 HD 
BRANCH  19  22
HETATM   22  C   UNL     1     -11.596  11.076  68.636  1.00  0.00    -0.385 C  
BRANCH  22  23
HETATM   23  C   UNL     1     -11.106  12.506  68.390  1.00  0.00    -0.293 C  
BRANCH  23  24
HETATM   24  C   UNL     1     -11.962  13.594  69.049  1.00  0.00    -0.353 C  
HETATM   25  O   UNL     1     -11.388  13.976  70.299  1.00  0.00    -0.474 OA 
HETATM   26  H   UNL     1     -11.918  14.650  70.708  1.00  0.00     0.000 HD 
BRANCH  24  27
HETATM   27  C   UNL     1     -12.032  14.857  68.177  1.00  0.00    -0.234 C  
BRANCH  27  28
HETATM   28  C   UNL     1     -10.771  15.072  67.340  1.00  0.00    -0.289 C  
BRANCH  28  29
HETATM   29  C   UNL     1      -9.982  16.269  67.795  1.00  0.00    -0.246 A  
HETATM   30  C   UNL     1      -8.639  16.123  68.169  1.00  0.00    -0.177 A  
HETATM   31  C   UNL     1      -7.900  17.229  68.587  1.00  0.00    -0.272 A  
HETATM   32  C   UNL     1      -8.498  18.486  68.641  1.00  0.00    -0.326 A  
HETATM   33  C   UNL     1      -9.837  18.638  68.281  1.00  0.00    -0.410 A  
HETATM   34  C   UNL     1     -10.578  17.532  67.861  1.00  0.00    -0.390 A  
ENDBRANCH  28  29
ENDBRANCH  27  28
ENDBRANCH  24  27
ENDBRANCH  23  24
ENDBRANCH  22  23
ENDBRANCH  19  22
ENDBRANCH  12  13
ENDBRANCH  11  12
ENDBRANCH   9  10
ENDBRANCH   8   9
ENDBRANCH   7   8
ENDBRANCH   5   7
ENDBRANCH   4   5
ENDBRANCH   2   4
TORSDOF 14
ENDMDL
MODEL      296
REMARK 921   NORMALIZED FREE ENERGY PREDICTED BY IDOCK:   -3.25 KCAL/MOL
REMARK 922        TOTAL FREE ENERGY PREDICTED BY IDOCK:   -9.20 KCAL/MOL
REMARK 923 INTER-LIGAND FREE ENERGY PREDICTED BY IDOCK:   -6.37 KCAL/MOL
REMARK 924 INTRA-LIGAND FREE ENERGY PREDICTED BY IDOCK:   -2.83 KCAL/MOL
REMARK 927      BINDING AFFINITY PREDICTED BY RF-SCORE:    0.00 PKD
ROOT
HETATM    1  C   UNL     1     -13.133  11.386  71.754  1.00  0.00    -0.523 C  
HETATM    2  C   UNL     1     -12.712   9.930  71.916  1.00  0.00    -0.409 C  
HETATM    3  C   UNL     1     -13.926   9.037  72.134  1.00  0.00    -0.499 C  
ENDROOT
BRANCH   2   4
HETATM    4  O   UNL     1     -12.057   9.484  70.714  1.00  0.00    -0.285 OA 
BRANCH   4   5
HETATM    5  C   UNL     1     -10.695   9.570  70.729  1.00  0.00    -0.321 C  
HETATM    6  O   UNL     1     -10.025  10.314  70.024  1.00  0.00    -0.208 OA 
BRANCH   5   7
HETATM    7  C   UNL     1     -10.136   8.593  71.731  1.00  0.00    -0.380 C  
BRANCH   7   8
HETATM    8  C   UNL     1     -10.584   7.166  71.409  1.00  0.00    -0.234 C  
BRANCH   8   9
HETATM    9  C   UNL     1      -9.500   6.335  70.727  1.00  0.00    -0.185 C  
BRANCH   9  10
HETATM   10  C   UNL     1     -10.055   5.109  70.058  1.00  0.00    -0.345 C  
HETATM   11  C   UNL     1     -10.207   4.916  68.737  1.00  0.00    -0.119 C  
BRANCH  11  12
HETATM   12  C   UNL     1      -9.834   5.871  67.640  1.00  0.00    -0.133 C  
BRANCH  12  13
HETATM   13  C   UNL     1      -8.776   5.372  66.641  1.00  0.00    -0.115 C  
HETATM   14  C   UNL     1      -9.141   3.974  66.107  1.00  0.00    -0.141 C  
HETATM   15  C   UNL     1      -8.221   3.809  64.912  1.00  0.00    -0.093 C  
HETATM   16  O   UNL     1     -10.487   3.925  65.635  1.00  0.00    -0.447 OA 
HETATM   17  C   UNL     1      -8.269   5.178  64.242  1.00  0.00    -0.131 C  
HETATM   18  H   UNL     1     -10.712   3.062  65.306  1.00  0.00     0.000 HD 
HETATM   19  C   UNL     1      -8.620   6.210  65.347  1.00  0.00    -0.111 C  
HETATM   20  O   UNL     1      -9.289   5.201  63.246  1.00  0.00    -0.349 OA 
HETATM   21  H   UNL     1      -9.318   6.054  62.829  1.00  0.00     0.000 HD 
BRANCH  19  22
HETATM   22  C   UNL     1      -7.537   7.299  65.458  1.00  0.00    -0.097 C  
BRANCH  22  23
HETATM   23  C   UNL     1      -7.707   8.350  64.357  1.00  0.00    -0.133 C  
BRANCH  23  24
HETATM   24  C   UNL     1      -7.674   9.801  64.852  1.00  0.00    -0.127 C  
HETATM   25  O   UNL     1      -8.437  10.633  63.978  1.00  0.00    -0.276 OA 
HETATM   26  H   UNL     1      -8.416  11.532  64.285  1.00  0.00     0.000 HD 
BRANCH  24  27
HETATM   27  C   UNL     1      -8.291   9.929  66.253  1.00  0.00    -0.125 C  
BRANCH  27  28
HETATM   28  C   UNL     1      -7.545  10.924  67.143  1.00  0.00    -0.109 C  
BRANCH  28  29
HETATM   29  C   UNL     1      -7.099  10.305  68.440  1.00  0.00    -0.078 A  
HETATM   30  C   UNL     1      -7.232   8.925  68.642  1.00  0.00    -0.072 A  
HETATM   31  C   UNL     1      -6.816   8.344  69.839  1.00  0.00    -0.043 A  
HETATM   32  C   UNL     1      -6.270   9.139  70.845  1.00  0.00    -0.062 A  
HETATM   33  C   UNL     1      -6.144  10.515  70.657  1.00  0.00    -0.089 A  
HETATM   34  C   UNL     1      -6.559  11.097  69.458  1.00  0.00    -0.126 A  
ENDBRANCH  28  29
ENDBRANCH  27  28
ENDBRANCH  24  27
ENDBRANCH  23  24
ENDBRANCH  22  23
ENDBRANCH  19  22
ENDBRANCH  12  13
ENDBRANCH  11  12
ENDBRANCH   9  10
ENDBRANCH   8   9
ENDBRANCH   7   8
ENDBRANCH   5   7
ENDBRANCH   4   5
ENDBRANCH   2   4
TORSDOF 14
ENDMDL
MODEL      297
REMARK 921   NORMALIZED FREE ENERGY PREDICTED BY IDOCK:   -3.24 KCAL/MOL
REMARK 922        TOTAL FREE ENERGY PREDICTED BY IDOCK:   -9.19 KCAL/MOL
REMARK 923 INTER-LIGAND FREE ENERGY PREDICTED BY IDOCK:   -9.00 KCAL/MOL
REMARK 924 INTRA-LIGAND FREE ENERGY PREDICTED BY IDOCK:   -0.19 KCAL/MOL
REMARK 927      BINDING AFFINITY PREDICTED BY RF-SCORE:    0.00 PKD
ROOT
HETATM    1  C   UNL     1     -10.801  18.354  66.968  1.00  0.00    -0.222 C  
HETATM    2  C   UNL     1      -9.448  18.949  67.338  1.00  0.00    -0.297 C  
HETATM    3  C   UNL     1      -9.546  20.462  67.490  1.00  0.00    -0.560 C  
ENDROOT
BRANCH   2   4
HETATM    4  O   UNL     1      -9.019  18.414  68.604  1.00  0.00    -0.317 OA 
BRANCH   4   5
HETATM    5  C   UNL     1      -7.670  18.262  68.742  1.00  0.00    -0.269 C  
HETATM    6  O   UNL     1      -6.891  19.140  69.090  1.00  0.00    -0.309 OA 
BRANCH   5   7
HETATM    7  C   UNL     1      -7.277  16.853  68.378  1.00  0.00    -0.195 C  
BRANCH   7   8
HETATM    8  C   UNL     1      -8.059  15.837  69.213  1.00  0.00    -0.241 C  
BRANCH   8   9
HETATM    9  C   UNL     1      -8.959  14.934  68.373  1.00  0.00    -0.183 C  
BRANCH   9  10
HETATM   10  C   UNL     1      -8.776  15.157  66.898  1.00  0.00    -0.289 C  
HETATM   11  C   UNL     1      -9.729  15.091  65.952  1.00  0.00    -0.376 C  
BRANCH  11  12
HETATM   12  C   UNL     1     -11.187  14.804  66.166  1.00  0.00    -0.337 C  
BRANCH  12  13
HETATM   13  C   UNL     1     -11.674  13.413  65.721  1.00  0.00    -0.380 C  
HETATM   14  C   UNL     1     -12.618  13.524  64.509  1.00  0.00    -0.206 C  
HETATM   15  C   UNL     1     -12.700  12.096  64.004  1.00  0.00    -0.452 C  
HETATM   16  O   UNL     1     -12.052  14.325  63.472  1.00  0.00    -0.904 OA 
HETATM   17  C   UNL     1     -11.260  11.605  64.108  1.00  0.00    -0.345 C  
HETATM   18  H   UNL     1     -12.634  14.393  62.724  1.00  0.00     0.000 HD 
HETATM   19  C   UNL     1     -10.576  12.441  65.222  1.00  0.00    -0.322 C  
HETATM   20  O   UNL     1     -10.576  11.827  62.876  1.00  0.00    -0.662 OA 
HETATM   21  H   UNL     1      -9.679  11.521  62.942  1.00  0.00     0.000 HD 
BRANCH  19  22
HETATM   22  C   UNL     1     -10.017  11.535  66.336  1.00  0.00    -0.241 C  
BRANCH  22  23
HETATM   23  C   UNL     1      -8.668  12.058  66.836  1.00  0.00    -0.193 C  
BRANCH  23  24
HETATM   24  C   UNL     1      -8.602  12.303  68.348  1.00  0.00    -0.136 C  
HETATM   25  O   UNL     1      -9.873  12.039  68.942  1.00  0.00    -0.400 OA 
HETATM   26  H   UNL     1      -9.833  12.190  69.879  1.00  0.00     0.000 HD 
BRANCH  24  27
HETATM   27  C   UNL     1      -7.584  11.371  69.023  1.00  0.00    -0.084 C  
BRANCH  27  28
HETATM   28  C   UNL     1      -8.069   9.924  69.109  1.00  0.00    -0.118 C  
BRANCH  28  29
HETATM   29  C   UNL     1      -7.808   9.316  70.461  1.00  0.00    -0.169 A  
HETATM   30  C   UNL     1      -6.496   9.025  70.858  1.00  0.00    -0.064 A  
HETATM   31  C   UNL     1      -6.247   8.466  72.110  1.00  0.00    -0.066 A  
HETATM   32  C   UNL     1      -7.306   8.188  72.972  1.00  0.00    -0.161 A  
HETATM   33  C   UNL     1      -8.615   8.465  72.581  1.00  0.00    -0.241 A  
HETATM   34  C   UNL     1      -8.866   9.026  71.327  1.00  0.00    -0.259 A  
ENDBRANCH  28  29
ENDBRANCH  27  28
ENDBRANCH  24  27
ENDBRANCH  23  24
ENDBRANCH  22  23
ENDBRANCH  19  22
ENDBRANCH  12  13
ENDBRANCH  11  12
ENDBRANCH   9  10
ENDBRANCH   8   9
ENDBRANCH   7   8
ENDBRANCH   5   7
ENDBRANCH   4   5
ENDBRANCH   2   4
TORSDOF 14
ENDMDL
MODEL      298
REMARK 921   NORMALIZED FREE ENERGY PREDICTED BY IDOCK:   -3.23 KCAL/MOL
REMARK 922        TOTAL FREE ENERGY PREDICTED BY IDOCK:   -9.16 KCAL/MOL
REMARK 923 INTER-LIGAND FREE ENERGY PREDICTED BY IDOCK:   -7.15 KCAL/MOL
REMARK 924 INTRA-LIGAND FREE ENERGY PREDICTED BY IDOCK:   -2.01 KCAL/MOL
REMARK 927      BINDING AFFINITY PREDICTED BY RF-SCORE:    0.00 PKD
ROOT
HETATM    1  C   UNL     1      -6.854   4.338  73.140  1.00  0.00    -0.057 C  
HETATM    2  C   UNL     1      -6.928   5.856  73.022  1.00  0.00    -0.077 C  
HETATM    3  C   UNL     1      -6.611   6.519  74.356  1.00  0.00    -0.081 C  
ENDROOT
BRANCH   2   4
HETATM    4  O   UNL     1      -5.950   6.311  72.069  1.00  0.00    -0.036 OA 
BRANCH   4   5
HETATM    5  C   UNL     1      -6.419   7.176  71.124  1.00  0.00    -0.044 C  
HETATM    6  O   UNL     1      -6.697   8.353  71.317  1.00  0.00    -0.048 OA 
BRANCH   5   7
HETATM    7  C   UNL     1      -6.568   6.457  69.807  1.00  0.00    -0.048 C  
BRANCH   7   8
HETATM    8  C   UNL     1      -8.015   6.011  69.591  1.00  0.00    -0.106 C  
BRANCH   8   9
HETATM    9  C   UNL     1      -8.262   5.424  68.203  1.00  0.00    -0.099 C  
BRANCH   9  10
HETATM   10  C   UNL     1      -9.476   6.012  67.541  1.00  0.00    -0.113 C  
HETATM   11  C   UNL     1     -10.701   6.140  68.080  1.00  0.00    -0.370 C  
BRANCH  11  12
HETATM   12  C   UNL     1     -11.117   5.748  69.469  1.00  0.00    -0.287 C  
BRANCH  12  13
HETATM   13  C   UNL     1     -11.549   6.898  70.395  1.00  0.00    -0.385 C  
HETATM   14  C   UNL     1     -11.717   6.403  71.843  1.00  0.00    -0.328 C  
HETATM   15  C   UNL     1     -11.782   7.691  72.643  1.00  0.00    -0.323 C  
HETATM   16  O   UNL     1     -10.574   5.670  72.286  1.00  0.00    -0.205 OA 
HETATM   17  C   UNL     1     -10.703   8.557  72.001  1.00  0.00    -0.340 C  
HETATM   18  H   UNL     1     -10.678   5.365  73.180  1.00  0.00     0.000 HD 
HETATM   19  C   UNL     1     -10.539   8.065  70.538  1.00  0.00    -0.222 C  
HETATM   20  O   UNL     1      -9.465   8.387  72.688  1.00  0.00    -0.269 OA 
HETATM   21  H   UNL     1      -8.793   8.926  72.288  1.00  0.00     0.000 HD 
BRANCH  19  22
HETATM   22  C   UNL     1     -10.788   9.207  69.535  1.00  0.00    -0.194 C  
BRANCH  22  23
HETATM   23  C   UNL     1      -9.548  10.097  69.407  1.00  0.00    -0.249 C  
BRANCH  23  24
HETATM   24  C   UNL     1      -9.834  11.517  68.904  1.00  0.00    -0.075 C  
HETATM   25  O   UNL     1      -8.821  11.922  67.982  1.00  0.00    -0.163 OA 
HETATM   26  H   UNL     1      -8.998  12.801  67.670  1.00  0.00     0.000 HD 
BRANCH  24  27
HETATM   27  C   UNL     1     -11.177  11.588  68.161  1.00  0.00    -0.335 C  
BRANCH  27  28
HETATM   28  C   UNL     1     -11.304  12.830  67.278  1.00  0.00    -0.364 C  
BRANCH  28  29
HETATM   29  C   UNL     1     -11.446  12.481  65.822  1.00  0.00    -0.407 A  
HETATM   30  C   UNL     1     -10.608  11.517  65.245  1.00  0.00    -0.339 A  
HETATM   31  C   UNL     1     -10.738  11.185  63.898  1.00  0.00    -0.407 A  
HETATM   32  C   UNL     1     -11.702  11.817  63.115  1.00  0.00    -0.189 A  
HETATM   33  C   UNL     1     -12.534  12.785  63.678  1.00  0.00    -0.482 A  
HETATM   34  C   UNL     1     -12.405  13.118  65.027  1.00  0.00    -0.511 A  
ENDBRANCH  28  29
ENDBRANCH  27  28
ENDBRANCH  24  27
ENDBRANCH  23  24
ENDBRANCH  22  23
ENDBRANCH  19  22
ENDBRANCH  12  13
ENDBRANCH  11  12
ENDBRANCH   9  10
ENDBRANCH   8   9
ENDBRANCH   7   8
ENDBRANCH   5   7
ENDBRANCH   4   5
ENDBRANCH   2   4
TORSDOF 14
ENDMDL
MODEL      299
REMARK 921   NORMALIZED FREE ENERGY PREDICTED BY IDOCK:   -3.22 KCAL/MOL
REMARK 922        TOTAL FREE ENERGY PREDICTED BY IDOCK:   -9.15 KCAL/MOL
REMARK 923 INTER-LIGAND FREE ENERGY PREDICTED BY IDOCK:   -6.97 KCAL/MOL
REMARK 924 INTRA-LIGAND FREE ENERGY PREDICTED BY IDOCK:   -2.17 KCAL/MOL
REMARK 927      BINDING AFFINITY PREDICTED BY RF-SCORE:    0.00 PKD
ROOT
HETATM    1  C   UNL     1      -8.108   4.181  68.837  1.00  0.00    -0.074 C  
HETATM    2  C   UNL     1      -6.618   3.858  68.837  1.00  0.00    -0.041 C  
HETATM    3  C   UNL     1      -5.822   4.976  68.174  1.00  0.00    -0.018 C  
ENDROOT
BRANCH   2   4
HETATM    4  O   UNL     1      -6.153   3.742  70.194  1.00  0.00    -0.021 OA 
BRANCH   4   5
HETATM    5  C   UNL     1      -6.548   4.746  71.031  1.00  0.00    -0.031 C  
HETATM    6  O   UNL     1      -6.321   5.937  70.862  1.00  0.00    -0.036 OA 
BRANCH   5   7
HETATM    7  C   UNL     1      -7.287   4.164  72.208  1.00  0.00    -0.062 C  
BRANCH   7   8
HETATM    8  C   UNL     1      -6.604   4.547  73.523  1.00  0.00    -0.057 C  
BRANCH   8   9
HETATM    9  C   UNL     1      -7.348   5.637  74.290  1.00  0.00    -0.085 C  
BRANCH   9  10
HETATM   10  C   UNL     1      -6.764   7.002  74.056  1.00  0.00    -0.081 C  
HETATM   11  C   UNL     1      -7.404   8.073  73.558  1.00  0.00    -0.181 C  
BRANCH  11  12
HETATM   12  C   UNL     1      -8.847   8.148  73.150  1.00  0.00    -0.325 C  
BRANCH  12  13
HETATM   13  C   UNL     1      -9.259   7.264  71.960  1.00  0.00    -0.149 C  
HETATM   14  C   UNL     1     -10.359   6.268  72.371  1.00  0.00    -0.191 C  
HETATM   15  C   UNL     1     -10.877   5.756  71.040  1.00  0.00    -0.316 C  
HETATM   16  O   UNL     1     -11.439   6.921  73.039  1.00  0.00    -0.501 OA 
HETATM   17  C   UNL     1     -10.938   7.014  70.181  1.00  0.00    -0.272 C  
HETATM   18  H   UNL     1     -12.118   6.306  73.293  1.00  0.00     0.000 HD 
HETATM   19  C   UNL     1      -9.891   8.006  70.754  1.00  0.00    -0.197 C  
HETATM   20  O   UNL     1     -12.233   7.606  70.269  1.00  0.00    -0.457 OA 
HETATM   21  H   UNL     1     -12.271   8.390  69.734  1.00  0.00     0.000 HD 
BRANCH  19  22
HETATM   22  C   UNL     1      -8.860   8.409  69.684  1.00  0.00    -0.141 C  
BRANCH  22  23
HETATM   23  C   UNL     1      -8.639   9.925  69.687  1.00  0.00    -0.207 C  
BRANCH  23  24
HETATM   24  C   UNL     1      -8.852  10.601  68.327  1.00  0.00    -0.139 C  
HETATM   25  O   UNL     1      -9.268   9.635  67.361  1.00  0.00    -0.130 OA 
HETATM   26  H   UNL     1      -9.400  10.054  66.519  1.00  0.00     0.000 HD 
BRANCH  24  27
HETATM   27  C   UNL     1      -9.951  11.672  68.400  1.00  0.00    -0.201 C  
BRANCH  27  28
HETATM   28  C   UNL     1     -11.329  11.089  68.712  1.00  0.00    -0.349 C  
BRANCH  28  29
HETATM   29  C   UNL     1     -11.992  11.781  69.872  1.00  0.00    -0.405 A  
HETATM   30  C   UNL     1     -12.666  11.031  70.845  1.00  0.00    -0.452 A  
HETATM   31  C   UNL     1     -13.278  11.666  71.925  1.00  0.00    -0.475 A  
HETATM   32  C   UNL     1     -13.225  13.053  72.037  1.00  0.00    -0.543 A  
HETATM   33  C   UNL     1     -12.565  13.808  71.068  1.00  0.00    -0.446 A  
HETATM   34  C   UNL     1     -11.952  13.174  69.987  1.00  0.00    -0.391 A  
ENDBRANCH  28  29
ENDBRANCH  27  28
ENDBRANCH  24  27
ENDBRANCH  23  24
ENDBRANCH  22  23
ENDBRANCH  19  22
ENDBRANCH  12  13
ENDBRANCH  11  12
ENDBRANCH   9  10
ENDBRANCH   8   9
ENDBRANCH   7   8
ENDBRANCH   5   7
ENDBRANCH   4   5
ENDBRANCH   2   4
TORSDOF 14
ENDMDL
MODEL      300
REMARK 921   NORMALIZED FREE ENERGY PREDICTED BY IDOCK:   -3.22 KCAL/MOL
REMARK 922        TOTAL FREE ENERGY PREDICTED BY IDOCK:   -9.14 KCAL/MOL
REMARK 923 INTER-LIGAND FREE ENERGY PREDICTED BY IDOCK:   -6.82 KCAL/MOL
REMARK 924 INTRA-LIGAND FREE ENERGY PREDICTED BY IDOCK:   -2.33 KCAL/MOL
REMARK 927      BINDING AFFINITY PREDICTED BY RF-SCORE:    0.00 PKD
ROOT
HETATM    1  C   UNL     1     -10.084  12.443  67.418  1.00  0.00    -0.205 C  
HETATM    2  C   UNL     1     -11.128  12.598  66.318  1.00  0.00    -0.293 C  
HETATM    3  C   UNL     1     -12.050  13.775  66.609  1.00  0.00    -0.471 C  
ENDROOT
BRANCH   2   4
HETATM    4  O   UNL     1     -10.469  12.864  65.066  1.00  0.00    -0.298 OA 
BRANCH   4   5
HETATM    5  C   UNL     1     -10.856  12.069  64.026  1.00  0.00    -0.378 C  
HETATM    6  O   UNL     1     -11.983  11.618  63.862  1.00  0.00    -0.345 OA 
BRANCH   5   7
HETATM    7  C   UNL     1      -9.680  11.809  63.120  1.00  0.00    -0.321 C  
BRANCH   7   8
HETATM    8  C   UNL     1      -9.300  10.327  63.133  1.00  0.00    -0.343 C  
BRANCH   8   9
HETATM    9  C   UNL     1      -8.601   9.897  64.421  1.00  0.00    -0.197 C  
BRANCH   9  10
HETATM   10  C   UNL     1      -7.105   9.984  64.316  1.00  0.00    -0.130 C  
HETATM   11  C   UNL     1      -6.269  10.547  65.205  1.00  0.00    -0.095 C  
BRANCH  11  12
HETATM   12  C   UNL     1      -6.646  11.188  66.510  1.00  0.00    -0.124 C  
BRANCH  12  13
HETATM   13  C   UNL     1      -6.557  10.289  67.755  1.00  0.00    -0.066 C  
HETATM   14  C   UNL     1      -6.110  11.098  68.987  1.00  0.00    -0.044 C  
HETATM   15  C   UNL     1      -6.422  10.169  70.144  1.00  0.00    -0.118 C  
HETATM   16  O   UNL     1      -6.892  12.282  69.152  1.00  0.00    -0.108 OA 
HETATM   17  C   UNL     1      -7.781   9.588  69.770  1.00  0.00    -0.123 C  
HETATM   18  H   UNL     1      -6.616  12.781  69.912  1.00  0.00     0.000 HD 
HETATM   19  C   UNL     1      -7.889   9.648  68.222  1.00  0.00    -0.085 C  
HETATM   20  O   UNL     1      -8.825  10.376  70.337  1.00  0.00    -0.230 OA 
HETATM   21  H   UNL     1      -9.671  10.014  70.104  1.00  0.00     0.000 HD 
BRANCH  19  22
HETATM   22  C   UNL     1      -8.130   8.250  67.624  1.00  0.00    -0.126 C  
BRANCH  22  23
HETATM   23  C   UNL     1      -7.992   7.168  68.700  1.00  0.00    -0.123 C  
BRANCH  23  24
HETATM   24  C   UNL     1      -7.724   5.760  68.154  1.00  0.00    -0.096 C  
HETATM   25  O   UNL     1      -6.409   5.693  67.602  1.00  0.00    -0.038 OA 
HETATM   26  H   UNL     1      -6.243   4.821  67.264  1.00  0.00     0.000 HD 
BRANCH  24  27
HETATM   27  C   UNL     1      -7.803   4.704  69.267  1.00  0.00    -0.063 C  
BRANCH  27  28
HETATM   28  C   UNL     1      -9.192   4.078  69.395  1.00  0.00    -0.216 C  
BRANCH  28  29
HETATM   29  C   UNL     1     -10.097   4.878  70.293  1.00  0.00    -0.322 A  
HETATM   30  C   UNL     1     -10.925   5.870  69.751  1.00  0.00    -0.452 A  
HETATM   31  C   UNL     1     -11.769   6.612  70.577  1.00  0.00    -0.453 A  
HETATM   32  C   UNL     1     -11.788   6.371  71.949  1.00  0.00    -0.380 A  
HETATM   33  C   UNL     1     -10.960   5.392  72.498  1.00  0.00    -0.312 A  
HETATM   34  C   UNL     1     -10.115   4.649  71.672  1.00  0.00    -0.258 A  
ENDBRANCH  28  29
ENDBRANCH  27  28
ENDBRANCH  24  27
ENDBRANCH  23  24
ENDBRANCH  22  23
ENDBRANCH  19  22
ENDBRANCH  12  13
ENDBRANCH  11  12
ENDBRANCH   9  10
ENDBRANCH   8   9
ENDBRANCH   7   8
ENDBRANCH   5   7
ENDBRANCH   4   5
ENDBRANCH   2   4
TORSDOF 14
ENDMDL
MODEL      301
REMARK 921   NORMALIZED FREE ENERGY PREDICTED BY IDOCK:   -3.20 KCAL/MOL
REMARK 922        TOTAL FREE ENERGY PREDICTED BY IDOCK:   -9.11 KCAL/MOL
REMARK 923 INTER-LIGAND FREE ENERGY PREDICTED BY IDOCK:   -8.53 KCAL/MOL
REMARK 924 INTRA-LIGAND FREE ENERGY PREDICTED BY IDOCK:   -0.58 KCAL/MOL
REMARK 927      BINDING AFFINITY PREDICTED BY RF-SCORE:    0.00 PKD
ROOT
HETATM    1  C   UNL     1      -7.294  20.875  67.166  1.00  0.00    -0.369 C  
HETATM    2  C   UNL     1      -5.804  20.973  67.473  1.00  0.00    -0.295 C  
HETATM    3  C   UNL     1      -5.567  21.099  68.972  1.00  0.00    -0.278 C  
ENDROOT
BRANCH   2   4
HETATM    4  O   UNL     1      -5.143  19.773  67.029  1.00  0.00    -0.158 OA 
BRANCH   4   5
HETATM    5  C   UNL     1      -5.963  18.826  66.489  1.00  0.00    -0.158 C  
HETATM    6  O   UNL     1      -6.217  18.705  65.297  1.00  0.00    -0.255 OA 
BRANCH   5   7
HETATM    7  C   UNL     1      -6.530  17.960  67.585  1.00  0.00    -0.187 C  
BRANCH   7   8
HETATM    8  C   UNL     1      -6.917  16.582  67.045  1.00  0.00    -0.250 C  
BRANCH   8   9
HETATM    9  C   UNL     1      -8.176  16.606  66.182  1.00  0.00    -0.295 C  
BRANCH   9  10
HETATM   10  C   UNL     1      -9.427  16.754  67.000  1.00  0.00    -0.240 C  
HETATM   11  C   UNL     1     -10.188  15.761  67.489  1.00  0.00    -0.265 C  
BRANCH  11  12
HETATM   12  C   UNL     1      -9.941  14.286  67.347  1.00  0.00    -0.242 C  
BRANCH  12  13
HETATM   13  C   UNL     1     -10.255  13.426  68.583  1.00  0.00    -0.187 C  
HETATM   14  C   UNL     1     -11.679  13.705  69.099  1.00  0.00    -0.329 C  
HETATM   15  C   UNL     1     -11.934  12.552  70.052  1.00  0.00    -0.372 C  
HETATM   16  O   UNL     1     -12.644  13.628  68.050  1.00  0.00    -0.193 OA 
HETATM   17  C   UNL     1     -11.357  11.351  69.310  1.00  0.00    -0.289 C  
HETATM   18  H   UNL     1     -13.523  13.800  68.368  1.00  0.00     0.000 HD 
HETATM   19  C   UNL     1     -10.259  11.893  68.356  1.00  0.00    -0.205 C  
HETATM   20  O   UNL     1     -12.373  10.719  68.535  1.00  0.00    -0.825 OA 
HETATM   21  H   UNL     1     -12.014   9.971  68.073  1.00  0.00     0.000 HD 
BRANCH  19  22
HETATM   22  C   UNL     1      -8.897  11.235  68.641  1.00  0.00    -0.141 C  
BRANCH  22  23
HETATM   23  C   UNL     1      -8.751   9.925  67.861  1.00  0.00    -0.129 C  
BRANCH  23  24
HETATM   24  C   UNL     1      -9.307   8.691  68.581  1.00  0.00    -0.142 C  
HETATM   25  O   UNL     1      -8.658   7.512  68.102  1.00  0.00    -0.123 OA 
HETATM   26  H   UNL     1      -9.001   6.748  68.549  1.00  0.00     0.000 HD 
BRANCH  24  27
HETATM   27  C   UNL     1      -9.054   8.765  70.095  1.00  0.00    -0.176 C  
BRANCH  27  28
HETATM   28  C   UNL     1      -9.619   7.562  70.851  1.00  0.00    -0.165 C  
BRANCH  28  29
HETATM   29  C   UNL     1     -11.060   7.757  71.238  1.00  0.00    -0.271 A  
HETATM   30  C   UNL     1     -11.493   8.996  71.730  1.00  0.00    -0.442 A  
HETATM   31  C   UNL     1     -12.827   9.185  72.086  1.00  0.00    -0.486 A  
HETATM   32  C   UNL     1     -13.737   8.138  71.957  1.00  0.00    -0.347 A  
HETATM   33  C   UNL     1     -13.313   6.899  71.477  1.00  0.00    -0.303 A  
HETATM   34  C   UNL     1     -11.977   6.708  71.120  1.00  0.00    -0.412 A  
ENDBRANCH  28  29
ENDBRANCH  27  28
ENDBRANCH  24  27
ENDBRANCH  23  24
ENDBRANCH  22  23
ENDBRANCH  19  22
ENDBRANCH  12  13
ENDBRANCH  11  12
ENDBRANCH   9  10
ENDBRANCH   8   9
ENDBRANCH   7   8
ENDBRANCH   5   7
ENDBRANCH   4   5
ENDBRANCH   2   4
TORSDOF 14
ENDMDL
MODEL      302
REMARK 921   NORMALIZED FREE ENERGY PREDICTED BY IDOCK:   -3.18 KCAL/MOL
REMARK 922        TOTAL FREE ENERGY PREDICTED BY IDOCK:   -9.08 KCAL/MOL
REMARK 923 INTER-LIGAND FREE ENERGY PREDICTED BY IDOCK:   -7.40 KCAL/MOL
REMARK 924 INTRA-LIGAND FREE ENERGY PREDICTED BY IDOCK:   -1.68 KCAL/MOL
REMARK 927      BINDING AFFINITY PREDICTED BY RF-SCORE:    0.00 PKD
ROOT
HETATM    1  C   UNL     1     -11.306  14.099  65.165  1.00  0.00    -0.336 C  
HETATM    2  C   UNL     1     -12.428  13.076  65.028  1.00  0.00    -0.477 C  
HETATM    3  C   UNL     1     -12.430  12.459  63.635  1.00  0.00    -0.610 C  
ENDROOT
BRANCH   2   4
HETATM    4  O   UNL     1     -12.222  12.009  65.973  1.00  0.00    -0.546 OA 
BRANCH   4   5
HETATM    5  C   UNL     1     -10.930  11.832  66.375  1.00  0.00    -0.294 C  
HETATM    6  O   UNL     1     -10.377  12.453  67.274  1.00  0.00    -0.214 OA 
BRANCH   5   7
HETATM    7  C   UNL     1     -10.276  10.770  65.529  1.00  0.00    -0.330 C  
BRANCH   7   8
HETATM    8  C   UNL     1      -9.863   9.570  66.383  1.00  0.00    -0.320 C  
BRANCH   8   9
HETATM    9  C   UNL     1      -8.357   9.493  66.622  1.00  0.00    -0.116 C  
BRANCH   9  10
HETATM   10  C   UNL     1      -7.585   9.299  65.348  1.00  0.00    -0.098 C  
HETATM   11  C   UNL     1      -6.993   8.165  64.933  1.00  0.00    -0.074 C  
BRANCH  11  12
HETATM   12  C   UNL     1      -6.996   6.841  65.640  1.00  0.00    -0.063 C  
BRANCH  12  13
HETATM   13  C   UNL     1      -7.918   5.761  65.048  1.00  0.00    -0.121 C  
HETATM   14  C   UNL     1      -7.162   4.895  64.023  1.00  0.00    -0.050 C  
HETATM   15  C   UNL     1      -8.084   3.706  63.827  1.00  0.00    -0.089 C  
HETATM   16  O   UNL     1      -5.927   4.410  64.551  1.00  0.00    -0.017 OA 
HETATM   17  C   UNL     1      -8.558   3.394  65.242  1.00  0.00    -0.110 C  
HETATM   18  H   UNL     1      -5.461   3.876  63.918  1.00  0.00     0.000 HD 
HETATM   19  C   UNL     1      -8.466   4.715  66.052  1.00  0.00    -0.115 C  
HETATM   20  O   UNL     1      -7.703   2.423  65.842  1.00  0.00    -0.074 OA 
HETATM   21  H   UNL     1      -7.999   2.229  66.724  1.00  0.00     0.000 HD 
BRANCH  19  22
HETATM   22  C   UNL     1      -9.834   5.103  66.644  1.00  0.00    -0.208 C  
BRANCH  22  23
HETATM   23  C   UNL     1      -9.670   6.147  67.752  1.00  0.00    -0.118 C  
BRANCH  23  24
HETATM   24  C   UNL     1      -8.975   5.629  69.016  1.00  0.00    -0.112 C  
HETATM   25  O   UNL     1      -7.797   6.393  69.275  1.00  0.00    -0.102 OA 
HETATM   26  H   UNL     1      -7.367   6.073  70.058  1.00  0.00     0.000 HD 
BRANCH  24  27
HETATM   27  C   UNL     1      -9.882   5.762  70.249  1.00  0.00    -0.244 C  
BRANCH  27  28
HETATM   28  C   UNL     1     -11.299   6.219  69.898  1.00  0.00    -0.504 C  
BRANCH  28  29
HETATM   29  C   UNL     1     -11.608   7.586  70.444  1.00  0.00    -0.172 A  
HETATM   30  C   UNL     1     -11.010   8.720  69.879  1.00  0.00    -0.184 A  
HETATM   31  C   UNL     1     -11.296   9.990  70.376  1.00  0.00    -0.392 A  
HETATM   32  C   UNL     1     -12.177  10.136  71.446  1.00  0.00    -0.492 A  
HETATM   33  C   UNL     1     -12.769   9.013  72.021  1.00  0.00    -0.467 A  
HETATM   34  C   UNL     1     -12.484   7.740  71.523  1.00  0.00    -0.348 A  
ENDBRANCH  28  29
ENDBRANCH  27  28
ENDBRANCH  24  27
ENDBRANCH  23  24
ENDBRANCH  22  23
ENDBRANCH  19  22
ENDBRANCH  12  13
ENDBRANCH  11  12
ENDBRANCH   9  10
ENDBRANCH   8   9
ENDBRANCH   7   8
ENDBRANCH   5   7
ENDBRANCH   4   5
ENDBRANCH   2   4
TORSDOF 14
ENDMDL
MODEL      303
REMARK 921   NORMALIZED FREE ENERGY PREDICTED BY IDOCK:   -3.17 KCAL/MOL
REMARK 922        TOTAL FREE ENERGY PREDICTED BY IDOCK:   -9.06 KCAL/MOL
REMARK 923 INTER-LIGAND FREE ENERGY PREDICTED BY IDOCK:   -6.58 KCAL/MOL
REMARK 924 INTRA-LIGAND FREE ENERGY PREDICTED BY IDOCK:   -2.47 KCAL/MOL
REMARK 927      BINDING AFFINITY PREDICTED BY RF-SCORE:    0.00 PKD
ROOT
HETATM    1  C   UNL     1     -11.002  14.226  65.216  1.00  0.00    -0.347 C  
HETATM    2  C   UNL     1     -12.207  13.435  64.717  1.00  0.00    -0.409 C  
HETATM    3  C   UNL     1     -11.926  12.830  63.348  1.00  0.00    -0.613 C  
ENDROOT
BRANCH   2   4
HETATM    4  O   UNL     1     -12.477  12.350  65.624  1.00  0.00    -0.640 OA 
BRANCH   4   5
HETATM    5  C   UNL     1     -11.579  12.208  66.641  1.00  0.00    -0.350 C  
HETATM    6  O   UNL     1     -11.596  12.834  67.693  1.00  0.00    -0.315 OA 
BRANCH   5   7
HETATM    7  C   UNL     1     -10.546  11.176  66.266  1.00  0.00    -0.309 C  
BRANCH   7   8
HETATM    8  C   UNL     1     -10.627   9.962  67.194  1.00  0.00    -0.295 C  
BRANCH   8   9
HETATM    9  C   UNL     1      -9.318   9.675  67.924  1.00  0.00    -0.141 C  
BRANCH   9  10
HETATM   10  C   UNL     1      -8.133   9.686  66.999  1.00  0.00    -0.113 C  
HETATM   11  C   UNL     1      -7.440   8.617  66.571  1.00  0.00    -0.088 C  
BRANCH  11  12
HETATM   12  C   UNL     1      -7.713   7.178  66.902  1.00  0.00    -0.106 C  
BRANCH  12  13
HETATM   13  C   UNL     1      -8.821   6.495  66.082  1.00  0.00    -0.160 C  
HETATM   14  C   UNL     1      -8.219   5.610  64.975  1.00  0.00    -0.137 C  
HETATM   15  C   UNL     1      -9.397   4.766  64.526  1.00  0.00    -0.018 C  
HETATM   16  O   UNL     1      -7.219   4.730  65.488  1.00  0.00    -0.069 OA 
HETATM   17  C   UNL     1     -10.082   4.398  65.838  1.00  0.00    -0.243 C  
HETATM   18  H   UNL     1      -6.847   4.184  64.805  1.00  0.00     0.000 HD 
HETATM   19  C   UNL     1      -9.729   5.510  66.862  1.00  0.00    -0.163 C  
HETATM   20  O   UNL     1      -9.583   3.151  66.318  1.00  0.00    -0.378 OA 
HETATM   21  H   UNL     1     -10.010   2.922  67.136  1.00  0.00     0.000 HD 
BRANCH  19  22
HETATM   22  C   UNL     1     -10.999   6.174  67.425  1.00  0.00    -0.409 C  
BRANCH  22  23
HETATM   23  C   UNL     1     -11.147   5.880  68.921  1.00  0.00    -0.254 C  
BRANCH  23  24
HETATM   24  C   UNL     1     -11.595   7.081  69.763  1.00  0.00    -0.074 C  
HETATM   25  O   UNL     1     -12.965   6.932  70.136  1.00  0.00    -0.118 OA 
HETATM   26  H   UNL     1     -13.243   7.676  70.658  1.00  0.00     0.000 HD 
BRANCH  24  27
HETATM   27  C   UNL     1     -10.780   7.191  71.060  1.00  0.00    -0.252 C  
BRANCH  27  28
HETATM   28  C   UNL     1      -9.525   8.050  70.904  1.00  0.00    -0.178 C  
BRANCH  28  29
HETATM   29  C   UNL     1      -8.263   7.236  70.996  1.00  0.00    -0.107 A  
HETATM   30  C   UNL     1      -7.098   7.674  70.352  1.00  0.00    -0.058 A  
HETATM   31  C   UNL     1      -5.923   6.928  70.437  1.00  0.00    -0.024 A  
HETATM   32  C   UNL     1      -5.906   5.737  71.161  1.00  0.00    -0.025 A  
HETATM   33  C   UNL     1      -7.063   5.290  71.796  1.00  0.00    -0.075 A  
HETATM   34  C   UNL     1      -8.240   6.036  71.713  1.00  0.00    -0.118 A  
ENDBRANCH  28  29
ENDBRANCH  27  28
ENDBRANCH  24  27
ENDBRANCH  23  24
ENDBRANCH  22  23
ENDBRANCH  19  22
ENDBRANCH  12  13
ENDBRANCH  11  12
ENDBRANCH   9  10
ENDBRANCH   8   9
ENDBRANCH   7   8
ENDBRANCH   5   7
ENDBRANCH   4   5
ENDBRANCH   2   4
TORSDOF 14
ENDMDL
MODEL      304
REMARK 921   NORMALIZED FREE ENERGY PREDICTED BY IDOCK:   -3.17 KCAL/MOL
REMARK 922        TOTAL FREE ENERGY PREDICTED BY IDOCK:   -9.05 KCAL/MOL
REMARK 923 INTER-LIGAND FREE ENERGY PREDICTED BY IDOCK:   -7.55 KCAL/MOL
REMARK 924 INTRA-LIGAND FREE ENERGY PREDICTED BY IDOCK:   -1.50 KCAL/MOL
REMARK 927      BINDING AFFINITY PREDICTED BY RF-SCORE:    0.00 PKD
ROOT
HETATM    1  C   UNL     1      -7.569  10.879  66.262  1.00  0.00    -0.136 C  
HETATM    2  C   UNL     1      -6.820  10.225  67.418  1.00  0.00    -0.077 C  
HETATM    3  C   UNL     1      -5.542   9.559  66.926  1.00  0.00    -0.047 C  
ENDROOT
BRANCH   2   4
HETATM    4  O   UNL     1      -6.443  11.232  68.375  1.00  0.00    -0.055 OA 
BRANCH   4   5
HETATM    5  C   UNL     1      -6.233  12.476  67.856  1.00  0.00    -0.100 C  
HETATM    6  O   UNL     1      -5.351  12.771  67.059  1.00  0.00    -0.343 OA 
BRANCH   5   7
HETATM    7  C   UNL     1      -7.238  13.442  68.429  1.00  0.00    -0.110 C  
BRANCH   7   8
HETATM    8  C   UNL     1      -7.040  14.843  67.847  1.00  0.00    -0.168 C  
BRANCH   8   9
HETATM    9  C   UNL     1      -8.327  15.662  67.801  1.00  0.00    -0.157 C  
BRANCH   9  10
HETATM   10  C   UNL     1      -8.808  15.895  66.397  1.00  0.00    -0.368 C  
HETATM   11  C   UNL     1     -10.069  15.773  65.950  1.00  0.00    -0.381 C  
BRANCH  11  12
HETATM   12  C   UNL     1     -11.277  15.402  66.761  1.00  0.00    -0.197 C  
BRANCH  12  13
HETATM   13  C   UNL     1     -11.800  13.967  66.577  1.00  0.00    -0.440 C  
HETATM   14  C   UNL     1     -12.393  13.775  65.169  1.00  0.00    -0.448 C  
HETATM   15  C   UNL     1     -12.517  12.268  65.047  1.00  0.00    -0.257 C  
HETATM   16  O   UNL     1     -11.497  14.225  64.153  1.00  0.00    -0.606 OA 
HETATM   17  C   UNL     1     -11.216  11.760  65.662  1.00  0.00    -0.267 C  
HETATM   18  H   UNL     1     -11.863  14.107  63.284  1.00  0.00     0.000 HD 
HETATM   19  C   UNL     1     -10.736  12.843  66.664  1.00  0.00    -0.280 C  
HETATM   20  O   UNL     1     -10.227  11.596  64.648  1.00  0.00    -0.253 OA 
HETATM   21  H   UNL     1      -9.417  11.280  65.031  1.00  0.00     0.000 HD 
BRANCH  19  22
HETATM   22  C   UNL     1     -10.583  12.263  68.082  1.00  0.00    -0.232 C  
BRANCH  22  23
HETATM   23  C   UNL     1     -11.315  10.924  68.203  1.00  0.00    -0.383 C  
BRANCH  23  24
HETATM   24  C   UNL     1     -11.823  10.602  69.613  1.00  0.00    -0.286 C  
HETATM   25  O   UNL     1     -13.249  10.530  69.614  1.00  0.00    -0.499 OA 
HETATM   26  H   UNL     1     -13.564  10.330  70.488  1.00  0.00     0.000 HD 
BRANCH  24  27
HETATM   27  C   UNL     1     -11.300   9.242  70.100  1.00  0.00    -0.193 C  
BRANCH  27  28
HETATM   28  C   UNL     1      -9.875   8.950  69.631  1.00  0.00    -0.182 C  
BRANCH  28  29
HETATM   29  C   UNL     1      -8.933   8.720  70.782  1.00  0.00    -0.231 A  
HETATM   30  C   UNL     1      -7.573   9.032  70.649  1.00  0.00    -0.125 A  
HETATM   31  C   UNL     1      -6.695   8.826  71.712  1.00  0.00    -0.076 A  
HETATM   32  C   UNL     1      -7.168   8.301  72.913  1.00  0.00    -0.139 A  
HETATM   33  C   UNL     1      -8.517   7.978  73.050  1.00  0.00    -0.252 A  
HETATM   34  C   UNL     1      -9.398   8.184  71.987  1.00  0.00    -0.266 A  
ENDBRANCH  28  29
ENDBRANCH  27  28
ENDBRANCH  24  27
ENDBRANCH  23  24
ENDBRANCH  22  23
ENDBRANCH  19  22
ENDBRANCH  12  13
ENDBRANCH  11  12
ENDBRANCH   9  10
ENDBRANCH   8   9
ENDBRANCH   7   8
ENDBRANCH   5   7
ENDBRANCH   4   5
ENDBRANCH   2   4
TORSDOF 14
ENDMDL
MODEL      305
REMARK 921   NORMALIZED FREE ENERGY PREDICTED BY IDOCK:   -3.16 KCAL/MOL
REMARK 922        TOTAL FREE ENERGY PREDICTED BY IDOCK:   -9.03 KCAL/MOL
REMARK 923 INTER-LIGAND FREE ENERGY PREDICTED BY IDOCK:   -7.15 KCAL/MOL
REMARK 924 INTRA-LIGAND FREE ENERGY PREDICTED BY IDOCK:   -1.89 KCAL/MOL
REMARK 927      BINDING AFFINITY PREDICTED BY RF-SCORE:    0.00 PKD
ROOT
HETATM    1  C   UNL     1      -6.867   4.336  73.106  1.00  0.00    -0.057 C  
HETATM    2  C   UNL     1      -6.899   5.844  72.887  1.00  0.00    -0.075 C  
HETATM    3  C   UNL     1      -6.587   6.585  74.181  1.00  0.00    -0.073 C  
ENDROOT
BRANCH   2   4
HETATM    4  O   UNL     1      -5.893   6.210  71.925  1.00  0.00    -0.030 OA 
BRANCH   4   5
HETATM    5  C   UNL     1      -6.303   7.083  70.960  1.00  0.00    -0.040 C  
HETATM    6  O   UNL     1      -6.463   8.287  71.116  1.00  0.00    -0.037 OA 
BRANCH   5   7
HETATM    7  C   UNL     1      -6.554   6.338  69.674  1.00  0.00    -0.047 C  
BRANCH   7   8
HETATM    8  C   UNL     1      -8.050   6.090  69.471  1.00  0.00    -0.107 C  
BRANCH   8   9
HETATM    9  C   UNL     1      -8.379   5.488  68.107  1.00  0.00    -0.099 C  
BRANCH   9  10
HETATM   10  C   UNL     1      -9.614   6.090  67.499  1.00  0.00    -0.116 C  
HETATM   11  C   UNL     1     -10.798   6.277  68.106  1.00  0.00    -0.401 C  
BRANCH  11  12
HETATM   12  C   UNL     1     -11.138   5.949  69.532  1.00  0.00    -0.403 C  
BRANCH  12  13
HETATM   13  C   UNL     1     -11.494   7.144  70.434  1.00  0.00    -0.317 C  
HETATM   14  C   UNL     1     -11.485   6.733  71.918  1.00  0.00    -0.282 C  
HETATM   15  C   UNL     1     -11.494   8.064  72.645  1.00  0.00    -0.465 C  
HETATM   16  O   UNL     1     -10.281   6.050  72.269  1.00  0.00    -0.183 OA 
HETATM   17  C   UNL     1     -10.517   8.911  71.837  1.00  0.00    -0.345 C  
HETATM   18  H   UNL     1     -10.276   5.797  73.185  1.00  0.00     0.000 HD 
HETATM   19  C   UNL     1     -10.506   8.337  70.395  1.00  0.00    -0.223 C  
HETATM   20  O   UNL     1      -9.206   8.807  72.387  1.00  0.00    -0.361 OA 
HETATM   21  H   UNL     1      -8.597   9.335  71.883  1.00  0.00     0.000 HD 
BRANCH  19  22
HETATM   22  C   UNL     1     -10.895   9.412  69.363  1.00  0.00    -0.208 C  
BRANCH  22  23
HETATM   23  C   UNL     1      -9.678  10.255  68.971  1.00  0.00    -0.213 C  
BRANCH  23  24
HETATM   24  C   UNL     1     -10.008  11.500  68.140  1.00  0.00    -0.192 C  
HETATM   25  O   UNL     1     -10.049  11.165  66.752  1.00  0.00    -0.205 OA 
HETATM   26  H   UNL     1     -10.254  11.936  66.238  1.00  0.00     0.000 HD 
BRANCH  24  27
HETATM   27  C   UNL     1     -11.386  12.071  68.509  1.00  0.00    -0.323 C  
BRANCH  27  28
HETATM   28  C   UNL     1     -11.972  12.965  67.416  1.00  0.00    -0.360 C  
BRANCH  28  29
HETATM   29  C   UNL     1     -11.407  14.359  67.456  1.00  0.00    -0.345 A  
HETATM   30  C   UNL     1     -10.780  14.895  66.324  1.00  0.00    -0.320 A  
HETATM   31  C   UNL     1     -10.259  16.188  66.352  1.00  0.00    -0.315 A  
HETATM   32  C   UNL     1     -10.356  16.951  67.513  1.00  0.00    -0.318 A  
HETATM   33  C   UNL     1     -10.970  16.422  68.648  1.00  0.00    -0.345 A  
HETATM   34  C   UNL     1     -11.493  15.128  68.621  1.00  0.00    -0.341 A  
ENDBRANCH  28  29
ENDBRANCH  27  28
ENDBRANCH  24  27
ENDBRANCH  23  24
ENDBRANCH  22  23
ENDBRANCH  19  22
ENDBRANCH  12  13
ENDBRANCH  11  12
ENDBRANCH   9  10
ENDBRANCH   8   9
ENDBRANCH   7   8
ENDBRANCH   5   7
ENDBRANCH   4   5
ENDBRANCH   2   4
TORSDOF 14
ENDMDL
MODEL      306
REMARK 921   NORMALIZED FREE ENERGY PREDICTED BY IDOCK:   -3.15 KCAL/MOL
REMARK 922        TOTAL FREE ENERGY PREDICTED BY IDOCK:   -9.02 KCAL/MOL
REMARK 923 INTER-LIGAND FREE ENERGY PREDICTED BY IDOCK:   -6.29 KCAL/MOL
REMARK 924 INTRA-LIGAND FREE ENERGY PREDICTED BY IDOCK:   -2.73 KCAL/MOL
REMARK 927      BINDING AFFINITY PREDICTED BY RF-SCORE:    0.00 PKD
ROOT
HETATM    1  C   UNL     1      -8.027   9.380  65.455  1.00  0.00    -0.111 C  
HETATM    2  C   UNL     1      -7.407   8.870  66.752  1.00  0.00    -0.082 C  
HETATM    3  C   UNL     1      -6.389   7.773  66.470  1.00  0.00    -0.046 C  
ENDROOT
BRANCH   2   4
HETATM    4  O   UNL     1      -6.712   9.948  67.406  1.00  0.00    -0.072 OA 
BRANCH   4   5
HETATM    5  C   UNL     1      -6.292  10.952  66.583  1.00  0.00    -0.113 C  
HETATM    6  O   UNL     1      -5.484  10.828  65.671  1.00  0.00    -0.117 OA 
BRANCH   5   7
HETATM    7  C   UNL     1      -6.956  12.245  66.980  1.00  0.00    -0.036 C  
BRANCH   7   8
HETATM    8  C   UNL     1      -6.920  12.433  68.498  1.00  0.00    -0.092 C  
BRANCH   8   9
HETATM    9  C   UNL     1      -5.617  13.053  68.996  1.00  0.00    -0.070 C  
BRANCH   9  10
HETATM   10  C   UNL     1      -5.802  13.822  70.274  1.00  0.00    -0.152 C  
HETATM   11  C   UNL     1      -5.953  15.152  70.396  1.00  0.00    -0.115 C  
BRANCH  11  12
HETATM   12  C   UNL     1      -5.996  16.156  69.281  1.00  0.00    -0.135 C  
BRANCH  12  13
HETATM   13  C   UNL     1      -7.337  16.883  69.078  1.00  0.00    -0.231 C  
HETATM   14  C   UNL     1      -7.123  18.255  68.412  1.00  0.00    -0.257 C  
HETATM   15  C   UNL     1      -8.521  18.649  67.975  1.00  0.00    -0.314 C  
HETATM   16  O   UNL     1      -6.310  18.153  67.243  1.00  0.00    -0.168 OA 
HETATM   17  C   UNL     1      -9.094  17.349  67.422  1.00  0.00    -0.236 C  
HETATM   18  H   UNL     1      -6.177  19.000  66.833  1.00  0.00     0.000 HD 
HETATM   19  C   UNL     1      -8.346  16.188  68.129  1.00  0.00    -0.166 C  
HETATM   20  O   UNL     1      -8.856  17.266  66.018  1.00  0.00    -0.495 OA 
HETATM   21  H   UNL     1      -9.213  16.456  65.674  1.00  0.00     0.000 HD 
BRANCH  19  22
HETATM   22  C   UNL     1      -9.328  15.258  68.866  1.00  0.00    -0.213 C  
BRANCH  22  23
HETATM   23  C   UNL     1     -10.359  14.677  67.894  1.00  0.00    -0.237 C  
BRANCH  23  24
HETATM   24  C   UNL     1     -11.419  13.784  68.550  1.00  0.00    -0.307 C  
HETATM   25  O   UNL     1     -12.617  14.529  68.769  1.00  0.00    -0.555 OA 
HETATM   26  H   UNL     1     -13.274  13.976  69.175  1.00  0.00     0.000 HD 
BRANCH  24  27
HETATM   27  C   UNL     1     -11.782  12.592  67.652  1.00  0.00    -0.420 C  
BRANCH  27  28
HETATM   28  C   UNL     1     -10.559  11.796  67.197  1.00  0.00    -0.267 C  
BRANCH  28  29
HETATM   29  C   UNL     1     -10.359  10.546  68.009  1.00  0.00    -0.212 A  
HETATM   30  C   UNL     1     -10.756   9.303  67.496  1.00  0.00    -0.272 A  
HETATM   31  C   UNL     1     -10.569   8.140  68.241  1.00  0.00    -0.153 A  
HETATM   32  C   UNL     1      -9.990   8.210  69.506  1.00  0.00    -0.187 A  
HETATM   33  C   UNL     1      -9.601   9.443  70.029  1.00  0.00    -0.256 A  
HETATM   34  C   UNL     1      -9.787  10.608  69.284  1.00  0.00    -0.201 A  
ENDBRANCH  28  29
ENDBRANCH  27  28
ENDBRANCH  24  27
ENDBRANCH  23  24
ENDBRANCH  22  23
ENDBRANCH  19  22
ENDBRANCH  12  13
ENDBRANCH  11  12
ENDBRANCH   9  10
ENDBRANCH   8   9
ENDBRANCH   7   8
ENDBRANCH   5   7
ENDBRANCH   4   5
ENDBRANCH   2   4
TORSDOF 14
ENDMDL
MODEL      307
REMARK 921   NORMALIZED FREE ENERGY PREDICTED BY IDOCK:   -3.14 KCAL/MOL
REMARK 922        TOTAL FREE ENERGY PREDICTED BY IDOCK:   -9.00 KCAL/MOL
REMARK 923 INTER-LIGAND FREE ENERGY PREDICTED BY IDOCK:   -6.00 KCAL/MOL
REMARK 924 INTRA-LIGAND FREE ENERGY PREDICTED BY IDOCK:   -3.00 KCAL/MOL
REMARK 927      BINDING AFFINITY PREDICTED BY RF-SCORE:    0.00 PKD
ROOT
HETATM    1  C   UNL     1      -9.779   4.349  67.365  1.00  0.00    -0.217 C  
HETATM    2  C   UNL     1      -9.076   3.365  68.293  1.00  0.00    -0.155 C  
HETATM    3  C   UNL     1      -7.797   2.840  67.656  1.00  0.00    -0.068 C  
ENDROOT
BRANCH   2   4
HETATM    4  O   UNL     1      -8.708   4.037  69.512  1.00  0.00    -0.074 OA 
BRANCH   4   5
HETATM    5  C   UNL     1      -9.270   3.527  70.647  1.00  0.00    -0.137 C  
HETATM    6  O   UNL     1      -9.192   2.361  71.014  1.00  0.00    -0.104 OA 
BRANCH   5   7
HETATM    7  C   UNL     1     -10.023   4.613  71.372  1.00  0.00    -0.267 C  
BRANCH   7   8
HETATM    8  C   UNL     1     -10.377   4.174  72.794  1.00  0.00    -0.243 C  
BRANCH   8   9
HETATM    9  C   UNL     1     -10.496   5.341  73.771  1.00  0.00    -0.304 C  
BRANCH   9  10
HETATM   10  C   UNL     1     -10.988   6.595  73.106  1.00  0.00    -0.263 C  
HETATM   11  C   UNL     1     -10.310   7.748  72.967  1.00  0.00    -0.410 C  
BRANCH  11  12
HETATM   12  C   UNL     1      -8.907   8.025  73.423  1.00  0.00    -0.334 C  
BRANCH  12  13
HETATM   13  C   UNL     1      -7.886   8.336  72.315  1.00  0.00    -0.176 C  
HETATM   14  C   UNL     1      -6.731   7.317  72.330  1.00  0.00    -0.059 C  
HETATM   15  C   UNL     1      -6.045   7.551  70.998  1.00  0.00    -0.035 C  
HETATM   16  O   UNL     1      -7.214   5.973  72.345  1.00  0.00    -0.083 OA 
HETATM   17  C   UNL     1      -7.211   7.726  70.031  1.00  0.00    -0.067 C  
HETATM   18  H   UNL     1      -6.502   5.345  72.355  1.00  0.00     0.000 HD 
HETATM   19  C   UNL     1      -8.416   8.242  70.862  1.00  0.00    -0.144 C  
HETATM   20  O   UNL     1      -7.556   6.471  69.446  1.00  0.00    -0.091 OA 
HETATM   21  H   UNL     1      -8.282   6.581  68.844  1.00  0.00     0.000 HD 
BRANCH  19  22
HETATM   22  C   UNL     1      -8.934   9.587  70.318  1.00  0.00    -0.288 C  
BRANCH  22  23
HETATM   23  C   UNL     1     -10.236   9.392  69.536  1.00  0.00    -0.219 C  
BRANCH  23  24
HETATM   24  C   UNL     1     -10.346   8.045  68.811  1.00  0.00    -0.206 C  
HETATM   25  O   UNL     1     -11.497   7.336  69.270  1.00  0.00    -0.468 OA 
HETATM   26  H   UNL     1     -11.566   6.502  68.820  1.00  0.00     0.000 HD 
BRANCH  24  27
HETATM   27  C   UNL     1     -10.505   8.236  67.295  1.00  0.00    -0.373 C  
BRANCH  27  28
HETATM   28  C   UNL     1     -10.257   9.677  66.849  1.00  0.00    -0.304 C  
BRANCH  28  29
HETATM   29  C   UNL     1      -8.955   9.829  66.109  1.00  0.00    -0.181 A  
HETATM   30  C   UNL     1      -8.940   9.832  64.708  1.00  0.00    -0.266 A  
HETATM   31  C   UNL     1      -7.738   9.977  64.016  1.00  0.00    -0.143 A  
HETATM   32  C   UNL     1      -6.543  10.114  64.719  1.00  0.00    -0.124 A  
HETATM   33  C   UNL     1      -6.548  10.102  66.113  1.00  0.00    -0.098 A  
HETATM   34  C   UNL     1      -7.750   9.958  66.807  1.00  0.00    -0.099 A  
ENDBRANCH  28  29
ENDBRANCH  27  28
ENDBRANCH  24  27
ENDBRANCH  23  24
ENDBRANCH  22  23
ENDBRANCH  19  22
ENDBRANCH  12  13
ENDBRANCH  11  12
ENDBRANCH   9  10
ENDBRANCH   8   9
ENDBRANCH   7   8
ENDBRANCH   5   7
ENDBRANCH   4   5
ENDBRANCH   2   4
TORSDOF 14
ENDMDL
MODEL      308
REMARK 921   NORMALIZED FREE ENERGY PREDICTED BY IDOCK:   -3.13 KCAL/MOL
REMARK 922        TOTAL FREE ENERGY PREDICTED BY IDOCK:   -8.98 KCAL/MOL
REMARK 923 INTER-LIGAND FREE ENERGY PREDICTED BY IDOCK:   -6.64 KCAL/MOL
REMARK 924 INTRA-LIGAND FREE ENERGY PREDICTED BY IDOCK:   -2.34 KCAL/MOL
REMARK 927      BINDING AFFINITY PREDICTED BY RF-SCORE:    0.00 PKD
ROOT
HETATM    1  C   UNL     1     -11.034   6.389  67.264  1.00  0.00    -0.474 C  
HETATM    2  C   UNL     1      -9.707   6.959  66.776  1.00  0.00    -0.177 C  
HETATM    3  C   UNL     1      -8.739   7.146  67.936  1.00  0.00    -0.126 C  
ENDROOT
BRANCH   2   4
HETATM    4  O   UNL     1      -9.101   6.037  65.851  1.00  0.00    -0.155 OA 
BRANCH   4   5
HETATM    5  C   UNL     1      -9.627   4.777  65.860  1.00  0.00    -0.180 C  
HETATM    6  O   UNL     1     -10.733   4.469  65.434  1.00  0.00    -0.270 OA 
BRANCH   5   7
HETATM    7  C   UNL     1      -8.648   3.823  66.495  1.00  0.00    -0.113 C  
BRANCH   7   8
HETATM    8  C   UNL     1      -9.226   3.225  67.779  1.00  0.00    -0.240 C  
BRANCH   8   9
HETATM    9  C   UNL     1      -8.191   3.073  68.890  1.00  0.00    -0.077 C  
BRANCH   9  10
HETATM   10  C   UNL     1      -8.755   2.400  70.110  1.00  0.00    -0.121 C  
HETATM   11  C   UNL     1      -9.316   3.002  71.171  1.00  0.00    -0.212 C  
BRANCH  11  12
HETATM   12  C   UNL     1      -9.525   4.477  71.360  1.00  0.00    -0.219 C  
BRANCH  12  13
HETATM   13  C   UNL     1      -9.124   5.046  72.732  1.00  0.00    -0.137 C  
HETATM   14  C   UNL     1      -7.630   4.798  73.014  1.00  0.00    -0.092 C  
HETATM   15  C   UNL     1      -7.344   5.711  74.191  1.00  0.00    -0.089 C  
HETATM   16  O   UNL     1      -6.811   5.219  71.923  1.00  0.00    -0.060 OA 
HETATM   17  C   UNL     1      -8.095   6.989  73.833  1.00  0.00    -0.117 C  
HETATM   18  H   UNL     1      -5.889   5.066  72.097  1.00  0.00     0.000 HD 
HETATM   19  C   UNL     1      -9.260   6.582  72.892  1.00  0.00    -0.143 C  
HETATM   20  O   UNL     1      -7.231   7.887  73.138  1.00  0.00    -0.087 OA 
HETATM   21  H   UNL     1      -7.699   8.683  72.916  1.00  0.00     0.000 HD 
BRANCH  19  22
HETATM   22  C   UNL     1     -10.621   7.012  73.470  1.00  0.00    -0.405 C  
BRANCH  22  23
HETATM   23  C   UNL     1     -11.272   8.081  72.588  1.00  0.00    -0.462 C  
BRANCH  23  24
HETATM   24  C   UNL     1     -10.743   8.127  71.149  1.00  0.00    -0.221 C  
HETATM   25  O   UNL     1     -11.818   7.949  70.227  1.00  0.00    -0.482 OA 
HETATM   26  H   UNL     1     -11.490   7.978  69.336  1.00  0.00     0.000 HD 
BRANCH  24  27
HETATM   27  C   UNL     1     -10.095   9.484  70.834  1.00  0.00    -0.330 C  
BRANCH  27  28
HETATM   28  C   UNL     1     -10.957  10.356  69.920  1.00  0.00    -0.364 C  
BRANCH  28  29
HETATM   29  C   UNL     1     -10.300  10.610  68.590  1.00  0.00    -0.202 A  
HETATM   30  C   UNL     1     -11.038  10.476  67.406  1.00  0.00    -0.322 A  
HETATM   31  C   UNL     1     -10.437  10.714  66.171  1.00  0.00    -0.260 A  
HETATM   32  C   UNL     1      -9.095  11.082  66.109  1.00  0.00    -0.208 A  
HETATM   33  C   UNL     1      -8.351  11.207  67.282  1.00  0.00    -0.135 A  
HETATM   34  C   UNL     1      -8.951  10.970  68.519  1.00  0.00    -0.163 A  
ENDBRANCH  28  29
ENDBRANCH  27  28
ENDBRANCH  24  27
ENDBRANCH  23  24
ENDBRANCH  22  23
ENDBRANCH  19  22
ENDBRANCH  12  13
ENDBRANCH  11  12
ENDBRANCH   9  10
ENDBRANCH   8   9
ENDBRANCH   7   8
ENDBRANCH   5   7
ENDBRANCH   4   5
ENDBRANCH   2   4
TORSDOF 14
ENDMDL
MODEL      309
REMARK 921   NORMALIZED FREE ENERGY PREDICTED BY IDOCK:   -3.13 KCAL/MOL
REMARK 922        TOTAL FREE ENERGY PREDICTED BY IDOCK:   -8.98 KCAL/MOL
REMARK 923 INTER-LIGAND FREE ENERGY PREDICTED BY IDOCK:   -8.09 KCAL/MOL
REMARK 924 INTRA-LIGAND FREE ENERGY PREDICTED BY IDOCK:   -0.89 KCAL/MOL
REMARK 927      BINDING AFFINITY PREDICTED BY RF-SCORE:    0.00 PKD
ROOT
HETATM    1  C   UNL     1      -8.927   2.784  71.533  1.00  0.00    -0.145 C  
HETATM    2  C   UNL     1      -9.649   3.812  72.397  1.00  0.00    -0.139 C  
HETATM    3  C   UNL     1      -8.799   4.199  73.600  1.00  0.00    -0.093 C  
ENDROOT
BRANCH   2   4
HETATM    4  O   UNL     1      -9.881   5.007  71.628  1.00  0.00    -0.166 OA 
BRANCH   4   5
HETATM    5  C   UNL     1      -9.190   5.084  70.454  1.00  0.00    -0.148 C  
HETATM    6  O   UNL     1      -7.977   5.213  70.353  1.00  0.00    -0.082 OA 
BRANCH   5   7
HETATM    7  C   UNL     1     -10.151   5.008  69.294  1.00  0.00    -0.270 C  
BRANCH   7   8
HETATM    8  C   UNL     1      -9.423   4.611  68.009  1.00  0.00    -0.191 C  
BRANCH   8   9
HETATM    9  C   UNL     1     -10.160   5.042  66.743  1.00  0.00    -0.270 C  
BRANCH   9  10
HETATM   10  C   UNL     1     -10.868   6.356  66.913  1.00  0.00    -0.428 C  
HETATM   11  C   UNL     1     -10.371   7.575  66.643  1.00  0.00    -0.252 C  
BRANCH  11  12
HETATM   12  C   UNL     1      -9.010   7.888  66.091  1.00  0.00    -0.214 C  
BRANCH  12  13
HETATM   13  C   UNL     1      -8.807   9.321  65.567  1.00  0.00    -0.224 C  
HETATM   14  C   UNL     1      -8.213   9.307  64.146  1.00  0.00    -0.159 C  
HETATM   15  C   UNL     1      -8.418  10.733  63.671  1.00  0.00    -0.005 C  
HETATM   16  O   UNL     1      -8.948   8.445  63.276  1.00  0.00    -0.307 OA 
HETATM   17  C   UNL     1      -9.822  11.068  64.165  1.00  0.00    -0.308 C  
HETATM   18  H   UNL     1      -8.581   8.437  62.400  1.00  0.00     0.000 HD 
HETATM   19  C   UNL     1     -10.094  10.168  65.400  1.00  0.00    -0.342 C  
HETATM   20  O   UNL     1     -10.782  10.768  63.154  1.00  0.00    -0.671 OA 
HETATM   21  H   UNL     1     -11.656  10.977  63.462  1.00  0.00     0.000 HD 
BRANCH  19  22
HETATM   22  C   UNL     1     -10.427  11.014  66.644  1.00  0.00    -0.307 C  
BRANCH  22  23
HETATM   23  C   UNL     1     -10.283  12.508  66.340  1.00  0.00    -0.260 C  
BRANCH  23  24
HETATM   24  C   UNL     1     -11.595  13.299  66.404  1.00  0.00    -0.347 C  
HETATM   25  O   UNL     1     -12.651  12.542  65.812  1.00  0.00    -0.569 OA 
HETATM   26  H   UNL     1     -13.464  13.032  65.852  1.00  0.00     0.000 HD 
BRANCH  24  27
HETATM   27  C   UNL     1     -12.003  13.590  67.856  1.00  0.00    -0.372 C  
BRANCH  27  28
HETATM   28  C   UNL     1     -10.809  13.902  68.758  1.00  0.00    -0.282 C  
BRANCH  28  29
HETATM   29  C   UNL     1     -10.346  15.327  68.618  1.00  0.00    -0.232 A  
HETATM   30  C   UNL     1     -11.134  16.256  67.925  1.00  0.00    -0.270 A  
HETATM   31  C   UNL     1     -10.714  17.579  67.796  1.00  0.00    -0.333 A  
HETATM   32  C   UNL     1      -9.501  17.981  68.352  1.00  0.00    -0.314 A  
HETATM   33  C   UNL     1      -8.706  17.061  69.034  1.00  0.00    -0.128 A  
HETATM   34  C   UNL     1      -9.126  15.737  69.165  1.00  0.00    -0.262 A  
ENDBRANCH  28  29
ENDBRANCH  27  28
ENDBRANCH  24  27
ENDBRANCH  23  24
ENDBRANCH  22  23
ENDBRANCH  19  22
ENDBRANCH  12  13
ENDBRANCH  11  12
ENDBRANCH   9  10
ENDBRANCH   8   9
ENDBRANCH   7   8
ENDBRANCH   5   7
ENDBRANCH   4   5
ENDBRANCH   2   4
TORSDOF 14
ENDMDL
MODEL      310
REMARK 921   NORMALIZED FREE ENERGY PREDICTED BY IDOCK:   -3.12 KCAL/MOL
REMARK 922        TOTAL FREE ENERGY PREDICTED BY IDOCK:   -8.96 KCAL/MOL
REMARK 923 INTER-LIGAND FREE ENERGY PREDICTED BY IDOCK:   -6.91 KCAL/MOL
REMARK 924 INTRA-LIGAND FREE ENERGY PREDICTED BY IDOCK:   -2.05 KCAL/MOL
REMARK 927      BINDING AFFINITY PREDICTED BY RF-SCORE:    0.00 PKD
ROOT
HETATM    1  C   UNL     1      -9.806  11.189  63.472  1.00  0.00    -0.392 C  
HETATM    2  C   UNL     1     -10.265  11.922  64.727  1.00  0.00    -0.276 C  
HETATM    3  C   UNL     1     -11.710  12.383  64.585  1.00  0.00    -0.426 C  
ENDROOT
BRANCH   2   4
HETATM    4  O   UNL     1     -10.205  11.027  65.853  1.00  0.00    -0.239 OA 
BRANCH   4   5
HETATM    5  C   UNL     1      -9.635  11.549  66.978  1.00  0.00    -0.185 C  
HETATM    6  O   UNL     1      -8.471  11.917  67.076  1.00  0.00    -0.166 OA 
BRANCH   5   7
HETATM    7  C   UNL     1     -10.649  11.584  68.092  1.00  0.00    -0.226 C  
BRANCH   7   8
HETATM    8  C   UNL     1     -11.224  10.190  68.349  1.00  0.00    -0.238 C  
BRANCH   8   9
HETATM    9  C   UNL     1     -10.186   9.198  68.867  1.00  0.00    -0.221 C  
BRANCH   9  10
HETATM   10  C   UNL     1     -10.196   7.906  68.099  1.00  0.00    -0.248 C  
HETATM   11  C   UNL     1     -10.735   6.741  68.496  1.00  0.00    -0.280 C  
BRANCH  11  12
HETATM   12  C   UNL     1     -11.467   6.482  69.781  1.00  0.00    -0.443 C  
BRANCH  12  13
HETATM   13  C   UNL     1     -10.697   6.803  71.074  1.00  0.00    -0.265 C  
HETATM   14  C   UNL     1     -11.629   7.434  72.126  1.00  0.00    -0.293 C  
HETATM   15  C   UNL     1     -10.816   7.347  73.404  1.00  0.00    -0.362 C  
HETATM   16  O   UNL     1     -12.817   6.663  72.307  1.00  0.00    -0.549 OA 
HETATM   17  C   UNL     1     -10.191   5.958  73.327  1.00  0.00    -0.203 C  
HETATM   18  H   UNL     1     -13.391   7.053  72.956  1.00  0.00     0.000 HD 
HETATM   19  C   UNL     1     -10.097   5.587  71.823  1.00  0.00    -0.247 C  
HETATM   20  O   UNL     1     -11.025   5.008  73.987  1.00  0.00    -0.298 OA 
HETATM   21  H   UNL     1     -10.635   4.143  73.939  1.00  0.00     0.000 HD 
BRANCH  19  22
HETATM   22  C   UNL     1      -8.644   5.281  71.414  1.00  0.00    -0.132 C  
BRANCH  22  23
HETATM   23  C   UNL     1      -8.603   4.235  70.297  1.00  0.00    -0.102 C  
BRANCH  23  24
HETATM   24  C   UNL     1      -7.252   4.122  69.580  1.00  0.00    -0.049 C  
HETATM   25  O   UNL     1      -6.647   2.862  69.873  1.00  0.00    -0.032 OA 
HETATM   26  H   UNL     1      -5.810   2.793  69.429  1.00  0.00     0.000 HD 
BRANCH  24  27
HETATM   27  C   UNL     1      -7.418   4.203  68.055  1.00  0.00    -0.068 C  
BRANCH  27  28
HETATM   28  C   UNL     1      -7.988   2.919  67.451  1.00  0.00    -0.076 C  
BRANCH  28  29
HETATM   29  C   UNL     1      -8.761   3.180  66.186  1.00  0.00    -0.130 A  
HETATM   30  C   UNL     1      -9.841   4.072  66.194  1.00  0.00    -0.176 A  
HETATM   31  C   UNL     1     -10.558   4.322  65.025  1.00  0.00    -0.168 A  
HETATM   32  C   UNL     1     -10.204   3.678  63.841  1.00  0.00    -0.229 A  
HETATM   33  C   UNL     1      -9.137   2.781  63.826  1.00  0.00    -0.098 A  
HETATM   34  C   UNL     1      -8.418   2.530  64.996  1.00  0.00    -0.097 A  
ENDBRANCH  28  29
ENDBRANCH  27  28
ENDBRANCH  24  27
ENDBRANCH  23  24
ENDBRANCH  22  23
ENDBRANCH  19  22
ENDBRANCH  12  13
ENDBRANCH  11  12
ENDBRANCH   9  10
ENDBRANCH   8   9
ENDBRANCH   7   8
ENDBRANCH   5   7
ENDBRANCH   4   5
ENDBRANCH   2   4
TORSDOF 14
ENDMDL
MODEL      311
REMARK 921   NORMALIZED FREE ENERGY PREDICTED BY IDOCK:   -3.10 KCAL/MOL
REMARK 922        TOTAL FREE ENERGY PREDICTED BY IDOCK:   -8.92 KCAL/MOL
REMARK 923 INTER-LIGAND FREE ENERGY PREDICTED BY IDOCK:   -7.41 KCAL/MOL
REMARK 924 INTRA-LIGAND FREE ENERGY PREDICTED BY IDOCK:   -1.52 KCAL/MOL
REMARK 927      BINDING AFFINITY PREDICTED BY RF-SCORE:    0.00 PKD
ROOT
HETATM    1  C   UNL     1     -10.342   6.811  73.815  1.00  0.00    -0.397 C  
HETATM    2  C   UNL     1      -9.933   7.048  72.366  1.00  0.00    -0.165 C  
HETATM    3  C   UNL     1      -9.039   8.276  72.250  1.00  0.00    -0.289 C  
ENDROOT
BRANCH   2   4
HETATM    4  O   UNL     1      -9.180   5.917  71.889  1.00  0.00    -0.147 OA 
BRANCH   4   5
HETATM    5  C   UNL     1      -9.923   4.926  71.316  1.00  0.00    -0.201 C  
HETATM    6  O   UNL     1     -10.189   3.850  71.837  1.00  0.00    -0.161 OA 
BRANCH   5   7
HETATM    7  C   UNL     1     -10.350   5.346  69.933  1.00  0.00    -0.377 C  
BRANCH   7   8
HETATM    8  C   UNL     1      -9.899   4.322  68.890  1.00  0.00    -0.131 C  
BRANCH   8   9
HETATM    9  C   UNL     1      -9.179   4.952  67.701  1.00  0.00    -0.138 C  
BRANCH   9  10
HETATM   10  C   UNL     1      -8.309   6.109  68.107  1.00  0.00    -0.114 C  
HETATM   11  C   UNL     1      -7.655   6.948  67.285  1.00  0.00    -0.108 C  
BRANCH  11  12
HETATM   12  C   UNL     1      -7.671   6.928  65.784  1.00  0.00    -0.100 C  
BRANCH  12  13
HETATM   13  C   UNL     1      -7.499   8.290  65.089  1.00  0.00    -0.085 C  
HETATM   14  C   UNL     1      -6.928   8.114  63.669  1.00  0.00    -0.077 C  
HETATM   15  C   UNL     1      -7.163   9.469  63.031  1.00  0.00    -0.106 C  
HETATM   16  O   UNL     1      -7.662   7.144  62.922  1.00  0.00    -0.106 OA 
HETATM   17  C   UNL     1      -8.563   9.841  63.506  1.00  0.00    -0.201 C  
HETATM   18  H   UNL     1      -7.310   7.035  62.046  1.00  0.00     0.000 HD 
HETATM   19  C   UNL     1      -8.802   9.093  64.844  1.00  0.00    -0.215 C  
HETATM   20  O   UNL     1      -9.535   9.409  62.555  1.00  0.00    -0.575 OA 
HETATM   21  H   UNL     1     -10.407   9.641  62.851  1.00  0.00     0.000 HD 
BRANCH  19  22
HETATM   22  C   UNL     1      -9.129  10.077  65.983  1.00  0.00    -0.189 C  
BRANCH  22  23
HETATM   23  C   UNL     1     -10.262  11.023  65.576  1.00  0.00    -0.327 C  
BRANCH  23  24
HETATM   24  C   UNL     1     -10.094  12.465  66.067  1.00  0.00    -0.251 C  
HETATM   25  O   UNL     1      -8.707  12.781  66.189  1.00  0.00    -0.408 OA 
HETATM   26  H   UNL     1      -8.602  13.675  66.493  1.00  0.00     0.000 HD 
BRANCH  24  27
HETATM   27  C   UNL     1     -10.702  13.469  65.076  1.00  0.00    -0.366 C  
BRANCH  27  28
HETATM   28  C   UNL     1     -11.634  14.478  65.748  1.00  0.00    -0.347 C  
BRANCH  28  29
HETATM   29  C   UNL     1     -10.877  15.530  66.513  1.00  0.00    -0.284 A  
HETATM   30  C   UNL     1     -11.035  15.638  67.901  1.00  0.00    -0.319 A  
HETATM   31  C   UNL     1     -10.334  16.607  68.617  1.00  0.00    -0.304 A  
HETATM   32  C   UNL     1      -9.475  17.479  67.950  1.00  0.00    -0.277 A  
HETATM   33  C   UNL     1      -9.319  17.385  66.568  1.00  0.00    -0.288 A  
HETATM   34  C   UNL     1     -10.020  16.414  65.850  1.00  0.00    -0.358 A  
ENDBRANCH  28  29
ENDBRANCH  27  28
ENDBRANCH  24  27
ENDBRANCH  23  24
ENDBRANCH  22  23
ENDBRANCH  19  22
ENDBRANCH  12  13
ENDBRANCH  11  12
ENDBRANCH   9  10
ENDBRANCH   8   9
ENDBRANCH   7   8
ENDBRANCH   5   7
ENDBRANCH   4   5
ENDBRANCH   2   4
TORSDOF 14
ENDMDL
MODEL      312
REMARK 921   NORMALIZED FREE ENERGY PREDICTED BY IDOCK:   -3.07 KCAL/MOL
REMARK 922        TOTAL FREE ENERGY PREDICTED BY IDOCK:   -8.87 KCAL/MOL
REMARK 923 INTER-LIGAND FREE ENERGY PREDICTED BY IDOCK:   -6.88 KCAL/MOL
REMARK 924 INTRA-LIGAND FREE ENERGY PREDICTED BY IDOCK:   -1.98 KCAL/MOL
REMARK 927      BINDING AFFINITY PREDICTED BY RF-SCORE:    0.00 PKD
ROOT
HETATM    1  C   UNL     1     -10.472   2.106  72.733  1.00  0.00    -0.236 C  
HETATM    2  C   UNL     1      -9.763   2.758  73.914  1.00  0.00    -0.093 C  
HETATM    3  C   UNL     1      -8.656   1.857  74.445  1.00  0.00    -0.058 C  
ENDROOT
BRANCH   2   4
HETATM    4  O   UNL     1      -9.151   3.989  73.485  1.00  0.00    -0.102 OA 
BRANCH   4   5
HETATM    5  C   UNL     1      -8.066   3.844  72.671  1.00  0.00    -0.089 C  
HETATM    6  O   UNL     1      -8.046   3.211  71.623  1.00  0.00    -0.056 OA 
BRANCH   5   7
HETATM    7  C   UNL     1      -6.884   4.564  73.269  1.00  0.00    -0.063 C  
BRANCH   7   8
HETATM    8  C   UNL     1      -6.335   5.610  72.297  1.00  0.00    -0.048 C  
BRANCH   8   9
HETATM    9  C   UNL     1      -7.385   6.624  71.850  1.00  0.00    -0.086 C  
BRANCH   9  10
HETATM   10  C   UNL     1      -7.434   7.829  72.747  1.00  0.00    -0.121 C  
HETATM   11  C   UNL     1      -8.506   8.289  73.415  1.00  0.00    -0.267 C  
BRANCH  11  12
HETATM   12  C   UNL     1      -9.881   7.686  73.430  1.00  0.00    -0.362 C  
BRANCH  12  13
HETATM   13  C   UNL     1     -10.695   7.825  72.132  1.00  0.00    -0.302 C  
HETATM   14  C   UNL     1     -10.951   6.447  71.494  1.00  0.00    -0.263 C  
HETATM   15  C   UNL     1     -12.032   6.735  70.469  1.00  0.00    -0.385 C  
HETATM   16  O   UNL     1     -11.480   5.518  72.440  1.00  0.00    -0.267 OA 
HETATM   17  C   UNL     1     -12.969   7.685  71.208  1.00  0.00    -0.246 C  
HETATM   18  H   UNL     1     -11.638   4.668  72.046  1.00  0.00     0.000 HD 
HETATM   19  C   UNL     1     -12.122   8.409  72.288  1.00  0.00    -0.456 C  
HETATM   20  O   UNL     1     -14.006   6.947  71.852  1.00  0.00    -0.489 OA 
HETATM   21  H   UNL     1     -14.590   7.539  72.312  1.00  0.00     0.000 HD 
BRANCH  19  22
HETATM   22  C   UNL     1     -12.174   9.937  72.106  1.00  0.00    -0.034 C  
BRANCH  22  23
HETATM   23  C   UNL     1     -12.949  10.307  70.838  1.00  0.00    -0.456 C  
BRANCH  23  24
HETATM   24  C   UNL     1     -12.179  11.203  69.861  1.00  0.00    -0.314 C  
HETATM   25  O   UNL     1     -11.713  12.373  70.534  1.00  0.00    -0.525 OA 
HETATM   26  H   UNL     1     -11.236  12.928  69.928  1.00  0.00     0.000 HD 
BRANCH  24  27
HETATM   27  C   UNL     1     -10.945  10.484  69.295  1.00  0.00    -0.291 C  
BRANCH  27  28
HETATM   28  C   UNL     1     -11.235   9.745  67.988  1.00  0.00    -0.059 C  
BRANCH  28  29
HETATM   29  C   UNL     1     -10.030   9.680  67.091  1.00  0.00    -0.249 A  
HETATM   30  C   UNL     1      -9.718   8.491  66.418  1.00  0.00    -0.328 A  
HETATM   31  C   UNL     1      -8.605   8.426  65.580  1.00  0.00    -0.197 A  
HETATM   32  C   UNL     1      -7.794   9.545  65.414  1.00  0.00    -0.109 A  
HETATM   33  C   UNL     1      -8.090  10.730  66.087  1.00  0.00    -0.160 A  
HETATM   34  C   UNL     1      -9.204  10.797  66.925  1.00  0.00    -0.172 A  
ENDBRANCH  28  29
ENDBRANCH  27  28
ENDBRANCH  24  27
ENDBRANCH  23  24
ENDBRANCH  22  23
ENDBRANCH  19  22
ENDBRANCH  12  13
ENDBRANCH  11  12
ENDBRANCH   9  10
ENDBRANCH   8   9
ENDBRANCH   7   8
ENDBRANCH   5   7
ENDBRANCH   4   5
ENDBRANCH   2   4
TORSDOF 14
ENDMDL
MODEL      313
REMARK 921   NORMALIZED FREE ENERGY PREDICTED BY IDOCK:   -3.06 KCAL/MOL
REMARK 922        TOTAL FREE ENERGY PREDICTED BY IDOCK:   -8.86 KCAL/MOL
REMARK 923 INTER-LIGAND FREE ENERGY PREDICTED BY IDOCK:   -7.36 KCAL/MOL
REMARK 924 INTRA-LIGAND FREE ENERGY PREDICTED BY IDOCK:   -1.51 KCAL/MOL
REMARK 927      BINDING AFFINITY PREDICTED BY RF-SCORE:    0.00 PKD
ROOT
HETATM    1  C   UNL     1      -5.643   8.142  70.491  1.00  0.00    -0.029 C  
HETATM    2  C   UNL     1      -6.590   8.256  71.680  1.00  0.00    -0.061 C  
HETATM    3  C   UNL     1      -5.839   8.698  72.929  1.00  0.00    -0.080 C  
ENDROOT
BRANCH   2   4
HETATM    4  O   UNL     1      -7.592   9.251  71.402  1.00  0.00    -0.329 OA 
BRANCH   4   5
HETATM    5  C   UNL     1      -8.873   8.883  71.693  1.00  0.00    -0.144 C  
HETATM    6  O   UNL     1      -9.206   8.152  72.618  1.00  0.00    -0.209 OA 
BRANCH   5   7
HETATM    7  C   UNL     1      -9.818   9.492  70.689  1.00  0.00    -0.328 C  
BRANCH   7   8
HETATM    8  C   UNL     1     -11.163   8.763  70.696  1.00  0.00    -0.294 C  
BRANCH   8   9
HETATM    9  C   UNL     1     -12.360   9.710  70.661  1.00  0.00    -0.201 C  
BRANCH   9  10
HETATM   10  C   UNL     1     -11.946  11.152  70.583  1.00  0.00    -0.459 C  
HETATM   11  C   UNL     1     -11.701  11.857  69.466  1.00  0.00    -0.410 C  
BRANCH  11  12
HETATM   12  C   UNL     1     -11.811  11.366  68.051  1.00  0.00    -0.273 C  
BRANCH  12  13
HETATM   13  C   UNL     1     -10.916  12.073  67.019  1.00  0.00    -0.323 C  
HETATM   14  C   UNL     1     -10.062  11.053  66.243  1.00  0.00    -0.235 C  
HETATM   15  C   UNL     1      -9.540  11.861  65.069  1.00  0.00    -0.110 C  
HETATM   16  O   UNL     1     -10.857   9.987  65.722  1.00  0.00     0.130 OA 
HETATM   17  C   UNL     1     -10.753  12.680  64.641  1.00  0.00    -0.326 C  
HETATM   18  H   UNL     1     -10.329   9.358  65.244  1.00  0.00     0.000 HD 
HETATM   19  C   UNL     1     -11.658  12.837  65.893  1.00  0.00    -0.428 C  
HETATM   20  O   UNL     1     -11.480  11.987  63.629  1.00  0.00    -0.410 OA 
HETATM   21  H   UNL     1     -12.236  12.498  63.362  1.00  0.00     0.000 HD 
BRANCH  19  22
HETATM   22  C   UNL     1     -11.898  14.322  66.225  1.00  0.00    -0.420 C  
BRANCH  22  23
HETATM   23  C   UNL     1     -10.973  15.220  65.399  1.00  0.00    -0.380 C  
BRANCH  23  24
HETATM   24  C   UNL     1     -10.168  16.232  66.222  1.00  0.00    -0.327 C  
HETATM   25  O   UNL     1      -9.516  17.159  65.354  1.00  0.00    -0.283 OA 
HETATM   26  H   UNL     1      -9.017  17.787  65.864  1.00  0.00     0.000 HD 
BRANCH  24  27
HETATM   27  C   UNL     1     -11.078  17.046  67.154  1.00  0.00     0.167 C  
BRANCH  27  28
HETATM   28  C   UNL     1     -10.597  17.046  68.605  1.00  0.00    -0.362 C  
BRANCH  28  29
HETATM   29  C   UNL     1      -9.155  16.634  68.727  1.00  0.00    -0.256 A  
HETATM   30  C   UNL     1      -8.139  17.594  68.624  1.00  0.00    -0.269 A  
HETATM   31  C   UNL     1      -6.801  17.220  68.740  1.00  0.00    -0.219 A  
HETATM   32  C   UNL     1      -6.468  15.885  68.955  1.00  0.00    -0.137 A  
HETATM   33  C   UNL     1      -7.471  14.921  69.049  1.00  0.00    -0.144 A  
HETATM   34  C   UNL     1      -8.812  15.294  68.933  1.00  0.00    -0.209 A  
ENDBRANCH  28  29
ENDBRANCH  27  28
ENDBRANCH  24  27
ENDBRANCH  23  24
ENDBRANCH  22  23
ENDBRANCH  19  22
ENDBRANCH  12  13
ENDBRANCH  11  12
ENDBRANCH   9  10
ENDBRANCH   8   9
ENDBRANCH   7   8
ENDBRANCH   5   7
ENDBRANCH   4   5
ENDBRANCH   2   4
TORSDOF 14
ENDMDL
MODEL      314
REMARK 921   NORMALIZED FREE ENERGY PREDICTED BY IDOCK:   -3.06 KCAL/MOL
REMARK 922        TOTAL FREE ENERGY PREDICTED BY IDOCK:   -8.85 KCAL/MOL
REMARK 923 INTER-LIGAND FREE ENERGY PREDICTED BY IDOCK:   -7.22 KCAL/MOL
REMARK 924 INTRA-LIGAND FREE ENERGY PREDICTED BY IDOCK:   -1.63 KCAL/MOL
REMARK 927      BINDING AFFINITY PREDICTED BY RF-SCORE:    0.00 PKD
ROOT
HETATM    1  C   UNL     1      -7.416  14.595  67.368  1.00  0.00    -0.212 C  
HETATM    2  C   UNL     1      -7.219  16.028  67.848  1.00  0.00    -0.133 C  
HETATM    3  C   UNL     1      -5.917  16.605  67.308  1.00  0.00    -0.194 C  
ENDROOT
BRANCH   2   4
HETATM    4  O   UNL     1      -8.294  16.850  67.357  1.00  0.00    -0.181 OA 
BRANCH   4   5
HETATM    5  C   UNL     1      -8.806  17.736  68.260  1.00  0.00    -0.277 C  
HETATM    6  O   UNL     1      -8.337  18.839  68.514  1.00  0.00    -0.329 OA 
BRANCH   5   7
HETATM    7  C   UNL     1     -10.026  17.144  68.917  1.00  0.00    -0.304 C  
BRANCH   7   8
HETATM    8  C   UNL     1     -10.902  16.424  67.890  1.00  0.00    -0.328 C  
BRANCH   8   9
HETATM    9  C   UNL     1     -11.596  15.187  68.455  1.00  0.00    -0.356 C  
BRANCH   9  10
HETATM   10  C   UNL     1     -10.618  14.153  68.937  1.00  0.00    -0.249 C  
HETATM   11  C   UNL     1     -10.225  13.051  68.277  1.00  0.00    -0.246 C  
BRANCH  11  12
HETATM   12  C   UNL     1     -10.657  12.625  66.903  1.00  0.00    -0.256 C  
BRANCH  12  13
HETATM   13  C   UNL     1     -10.457  11.138  66.563  1.00  0.00    -0.305 C  
HETATM   14  C   UNL     1      -9.963  10.967  65.114  1.00  0.00    -0.278 C  
HETATM   15  C   UNL     1      -9.489   9.527  65.077  1.00  0.00    -0.273 C  
HETATM   16  O   UNL     1      -8.841  11.806  64.838  1.00  0.00    -0.336 OA 
HETATM   17  C   UNL     1      -8.760   9.364  66.407  1.00  0.00    -0.135 C  
HETATM   18  H   UNL     1      -8.537  11.701  63.944  1.00  0.00     0.000 HD 
HETATM   19  C   UNL     1      -9.377  10.395  67.390  1.00  0.00    -0.162 C  
HETATM   20  O   UNL     1      -7.373   9.652  66.244  1.00  0.00    -0.092 OA 
HETATM   21  H   UNL     1      -6.920   9.551  67.073  1.00  0.00     0.000 HD 
BRANCH  19  22
HETATM   22  C   UNL     1      -9.944   9.701  68.642  1.00  0.00    -0.179 C  
BRANCH  22  23
HETATM   23  C   UNL     1      -9.169  10.120  69.894  1.00  0.00    -0.119 C  
BRANCH  23  24
HETATM   24  C   UNL     1      -7.955   9.240  70.215  1.00  0.00    -0.146 C  
HETATM   25  O   UNL     1      -6.946  10.016  70.863  1.00  0.00    -0.337 OA 
HETATM   26  H   UNL     1      -6.195   9.470  71.062  1.00  0.00     0.000 HD 
BRANCH  24  27
HETATM   27  C   UNL     1      -8.330   8.096  71.170  1.00  0.00    -0.134 C  
BRANCH  27  28
HETATM   28  C   UNL     1      -9.422   7.185  70.607  1.00  0.00    -0.161 C  
BRANCH  28  29
HETATM   29  C   UNL     1     -10.784   7.528  71.147  1.00  0.00    -0.242 A  
HETATM   30  C   UNL     1     -10.905   8.357  72.270  1.00  0.00    -0.422 A  
HETATM   31  C   UNL     1     -12.164   8.682  72.773  1.00  0.00    -0.109 A  
HETATM   32  C   UNL     1     -13.309   8.177  72.161  1.00  0.00    -0.249 A  
HETATM   33  C   UNL     1     -13.198   7.344  71.049  1.00  0.00    -0.161 A  
HETATM   34  C   UNL     1     -11.938   7.018  70.544  1.00  0.00    -0.315 A  
ENDBRANCH  28  29
ENDBRANCH  27  28
ENDBRANCH  24  27
ENDBRANCH  23  24
ENDBRANCH  22  23
ENDBRANCH  19  22
ENDBRANCH  12  13
ENDBRANCH  11  12
ENDBRANCH   9  10
ENDBRANCH   8   9
ENDBRANCH   7   8
ENDBRANCH   5   7
ENDBRANCH   4   5
ENDBRANCH   2   4
TORSDOF 14
ENDMDL
MODEL      315
REMARK 921   NORMALIZED FREE ENERGY PREDICTED BY IDOCK:   -3.03 KCAL/MOL
REMARK 922        TOTAL FREE ENERGY PREDICTED BY IDOCK:   -8.80 KCAL/MOL
REMARK 923 INTER-LIGAND FREE ENERGY PREDICTED BY IDOCK:   -6.03 KCAL/MOL
REMARK 924 INTRA-LIGAND FREE ENERGY PREDICTED BY IDOCK:   -2.77 KCAL/MOL
REMARK 927      BINDING AFFINITY PREDICTED BY RF-SCORE:    0.00 PKD
ROOT
HETATM    1  C   UNL     1      -9.985   4.289  67.370  1.00  0.00    -0.120 C  
HETATM    2  C   UNL     1      -9.287   3.487  68.462  1.00  0.00    -0.166 C  
HETATM    3  C   UNL     1      -7.909   3.031  68.001  1.00  0.00    -0.062 C  
ENDROOT
BRANCH   2   4
HETATM    4  O   UNL     1      -9.102   4.317  69.623  1.00  0.00    -0.094 OA 
BRANCH   4   5
HETATM    5  C   UNL     1      -9.873   3.988  70.700  1.00  0.00    -0.158 C  
HETATM    6  O   UNL     1     -10.024   2.857  71.144  1.00  0.00    -0.103 OA 
BRANCH   5   7
HETATM    7  C   UNL     1     -10.531   5.227  71.251  1.00  0.00    -0.274 C  
BRANCH   7   8
HETATM    8  C   UNL     1     -11.156   4.950  72.619  1.00  0.00    -0.227 C  
BRANCH   8   9
HETATM    9  C   UNL     1     -10.897   6.060  73.635  1.00  0.00    -0.171 C  
BRANCH   9  10
HETATM   10  C   UNL     1     -10.857   7.420  72.997  1.00  0.00    -0.423 C  
HETATM   11  C   UNL     1      -9.816   8.270  72.985  1.00  0.00    -0.248 C  
BRANCH  11  12
HETATM   12  C   UNL     1      -8.459   8.035  73.582  1.00  0.00    -0.317 C  
BRANCH  12  13
HETATM   13  C   UNL     1      -7.274   8.067  72.601  1.00  0.00    -0.116 C  
HETATM   14  C   UNL     1      -6.422   6.791  72.726  1.00  0.00    -0.058 C  
HETATM   15  C   UNL     1      -5.554   6.830  71.483  1.00  0.00    -0.032 C  
HETATM   16  O   UNL     1      -7.225   5.612  72.663  1.00  0.00    -0.086 OA 
HETATM   17  C   UNL     1      -6.522   7.282  70.395  1.00  0.00    -0.042 C  
HETATM   18  H   UNL     1      -6.699   4.825  72.741  1.00  0.00     0.000 HD 
HETATM   19  C   UNL     1      -7.644   8.094  71.096  1.00  0.00    -0.082 C  
HETATM   20  O   UNL     1      -7.103   6.149  69.753  1.00  0.00    -0.068 OA 
HETATM   21  H   UNL     1      -7.706   6.431  69.076  1.00  0.00     0.000 HD 
BRANCH  19  22
HETATM   22  C   UNL     1      -7.743   9.520  70.522  1.00  0.00    -0.177 C  
BRANCH  22  23
HETATM   23  C   UNL     1      -9.120   9.760  69.897  1.00  0.00    -0.257 C  
BRANCH  23  24
HETATM   24  C   UNL     1      -9.611   8.628  68.986  1.00  0.00    -0.163 C  
HETATM   25  O   UNL     1     -10.906   8.194  69.401  1.00  0.00    -0.362 OA 
HETATM   26  H   UNL     1     -11.210   7.493  68.836  1.00  0.00     0.000 HD 
BRANCH  24  27
HETATM   27  C   UNL     1      -9.735   9.098  67.528  1.00  0.00    -0.204 C  
BRANCH  27  28
HETATM   28  C   UNL     1     -11.028   9.867  67.259  1.00  0.00    -0.187 C  
BRANCH  28  29
HETATM   29  C   UNL     1     -10.813  11.356  67.243  1.00  0.00    -0.311 A  
HETATM   30  C   UNL     1     -11.617  12.190  68.031  1.00  0.00    -0.411 A  
HETATM   31  C   UNL     1     -11.420  13.570  68.025  1.00  0.00    -0.342 A  
HETATM   32  C   UNL     1     -10.422  14.127  67.228  1.00  0.00    -0.272 A  
HETATM   33  C   UNL     1      -9.623  13.305  66.433  1.00  0.00    -0.260 A  
HETATM   34  C   UNL     1      -9.819  11.923  66.439  1.00  0.00    -0.234 A  
ENDBRANCH  28  29
ENDBRANCH  27  28
ENDBRANCH  24  27
ENDBRANCH  23  24
ENDBRANCH  22  23
ENDBRANCH  19  22
ENDBRANCH  12  13
ENDBRANCH  11  12
ENDBRANCH   9  10
ENDBRANCH   8   9
ENDBRANCH   7   8
ENDBRANCH   5   7
ENDBRANCH   4   5
ENDBRANCH   2   4
TORSDOF 14
ENDMDL
MODEL      316
REMARK 921   NORMALIZED FREE ENERGY PREDICTED BY IDOCK:   -3.02 KCAL/MOL
REMARK 922        TOTAL FREE ENERGY PREDICTED BY IDOCK:   -8.79 KCAL/MOL
REMARK 923 INTER-LIGAND FREE ENERGY PREDICTED BY IDOCK:   -7.32 KCAL/MOL
REMARK 924 INTRA-LIGAND FREE ENERGY PREDICTED BY IDOCK:   -1.47 KCAL/MOL
REMARK 927      BINDING AFFINITY PREDICTED BY RF-SCORE:    0.00 PKD
ROOT
HETATM    1  C   UNL     1     -13.324   9.031  72.611  1.00  0.00    -0.391 C  
HETATM    2  C   UNL     1     -13.081   9.397  71.151  1.00  0.00    -0.228 C  
HETATM    3  C   UNL     1     -12.548  10.819  71.032  1.00  0.00    -0.520 C  
ENDROOT
BRANCH   2   4
HETATM    4  O   UNL     1     -12.089   8.515  70.595  1.00  0.00    -0.141 OA 
BRANCH   4   5
HETATM    5  C   UNL     1     -10.927   8.428  71.304  1.00  0.00    -0.252 C  
HETATM    6  O   UNL     1     -10.183   9.367  71.563  1.00  0.00    -0.308 OA 
BRANCH   5   7
HETATM    7  C   UNL     1     -10.681   6.996  71.704  1.00  0.00    -0.244 C  
BRANCH   7   8
HETATM    8  C   UNL     1     -11.386   6.035  70.744  1.00  0.00    -0.295 C  
BRANCH   8   9
HETATM    9  C   UNL     1     -10.484   5.548  69.613  1.00  0.00    -0.379 C  
BRANCH   9  10
HETATM   10  C   UNL     1     -10.874   6.126  68.281  1.00  0.00    -0.387 C  
HETATM   11  C   UNL     1     -10.344   5.815  67.086  1.00  0.00    -0.293 C  
BRANCH  11  12
HETATM   12  C   UNL     1      -9.266   4.805  66.816  1.00  0.00    -0.127 C  
BRANCH  12  13
HETATM   13  C   UNL     1      -8.174   5.233  65.821  1.00  0.00    -0.119 C  
HETATM   14  C   UNL     1      -8.377   4.550  64.456  1.00  0.00    -0.115 C  
HETATM   15  C   UNL     1      -7.466   5.339  63.535  1.00  0.00    -0.055 C  
HETATM   16  O   UNL     1      -9.716   4.703  63.984  1.00  0.00    -0.354 OA 
HETATM   17  C   UNL     1      -7.690   6.782  63.974  1.00  0.00    -0.112 C  
HETATM   18  H   UNL     1      -9.841   4.281  63.141  1.00  0.00     0.000 HD 
HETATM   19  C   UNL     1      -8.143   6.739  65.457  1.00  0.00    -0.128 C  
HETATM   20  O   UNL     1      -8.723   7.378  63.191  1.00  0.00    -0.255 OA 
HETATM   21  H   UNL     1      -8.862   8.277  63.465  1.00  0.00     0.000 HD 
BRANCH  19  22
HETATM   22  C   UNL     1      -7.197   7.559  66.354  1.00  0.00    -0.075 C  
BRANCH  22  23
HETATM   23  C   UNL     1      -7.592   9.039  66.351  1.00  0.00    -0.092 C  
BRANCH  23  24
HETATM   24  C   UNL     1      -8.057   9.575  67.710  1.00  0.00    -0.106 C  
HETATM   25  O   UNL     1      -6.931   9.785  68.564  1.00  0.00    -0.063 OA 
HETATM   26  H   UNL     1      -7.219  10.117  69.406  1.00  0.00     0.000 HD 
BRANCH  24  27
HETATM   27  C   UNL     1      -8.773  10.926  67.564  1.00  0.00    -0.130 C  
BRANCH  27  28
HETATM   28  C   UNL     1      -8.438  11.638  66.254  1.00  0.00    -0.066 C  
BRANCH  28  29
HETATM   29  C   UNL     1      -9.670  12.095  65.521  1.00  0.00    -0.197 A  
HETATM   30  C   UNL     1     -10.402  11.186  64.746  1.00  0.00    -0.387 A  
HETATM   31  C   UNL     1     -11.548  11.600  64.068  1.00  0.00    -0.371 A  
HETATM   32  C   UNL     1     -11.967  12.926  64.157  1.00  0.00    -0.491 A  
HETATM   33  C   UNL     1     -11.239  13.839  64.918  1.00  0.00    -0.352 A  
HETATM   34  C   UNL     1     -10.092  13.426  65.597  1.00  0.00    -0.285 A  
ENDBRANCH  28  29
ENDBRANCH  27  28
ENDBRANCH  24  27
ENDBRANCH  23  24
ENDBRANCH  22  23
ENDBRANCH  19  22
ENDBRANCH  12  13
ENDBRANCH  11  12
ENDBRANCH   9  10
ENDBRANCH   8   9
ENDBRANCH   7   8
ENDBRANCH   5   7
ENDBRANCH   4   5
ENDBRANCH   2   4
TORSDOF 14
ENDMDL
MODEL      317
REMARK 921   NORMALIZED FREE ENERGY PREDICTED BY IDOCK:   -3.02 KCAL/MOL
REMARK 922        TOTAL FREE ENERGY PREDICTED BY IDOCK:   -8.78 KCAL/MOL
REMARK 923 INTER-LIGAND FREE ENERGY PREDICTED BY IDOCK:   -5.78 KCAL/MOL
REMARK 924 INTRA-LIGAND FREE ENERGY PREDICTED BY IDOCK:   -3.01 KCAL/MOL
REMARK 927      BINDING AFFINITY PREDICTED BY RF-SCORE:    0.00 PKD
ROOT
HETATM    1  C   UNL     1     -11.016  11.858  65.130  1.00  0.00    -0.365 C  
HETATM    2  C   UNL     1     -11.611  12.949  66.014  1.00  0.00    -0.375 C  
HETATM    3  C   UNL     1     -12.620  13.784  65.237  1.00  0.00    -0.510 C  
ENDROOT
BRANCH   2   4
HETATM    4  O   UNL     1     -12.308  12.344  67.118  1.00  0.00    -0.380 OA 
BRANCH   4   5
HETATM    5  C   UNL     1     -11.557  12.148  68.241  1.00  0.00    -0.325 C  
HETATM    6  O   UNL     1     -11.326  12.995  69.095  1.00  0.00    -0.261 OA 
BRANCH   5   7
HETATM    7  C   UNL     1     -11.033  10.735  68.261  1.00  0.00    -0.307 C  
BRANCH   7   8
HETATM    8  C   UNL     1     -10.315  10.440  69.579  1.00  0.00    -0.264 C  
BRANCH   8   9
HETATM    9  C   UNL     1     -11.202   9.732  70.601  1.00  0.00    -0.402 C  
BRANCH   9  10
HETATM   10  C   UNL     1     -11.409   8.281  70.272  1.00  0.00    -0.129 C  
HETATM   11  C   UNL     1     -10.581   7.265  70.568  1.00  0.00    -0.237 C  
BRANCH  11  12
HETATM   12  C   UNL     1      -9.281   7.355  71.314  1.00  0.00    -0.153 C  
BRANCH  12  13
HETATM   13  C   UNL     1      -8.010   7.428  70.451  1.00  0.00    -0.103 C  
HETATM   14  C   UNL     1      -6.749   7.214  71.309  1.00  0.00    -0.051 C  
HETATM   15  C   UNL     1      -5.666   6.963  70.278  1.00  0.00    -0.023 C  
HETATM   16  O   UNL     1      -6.858   6.047  72.125  1.00  0.00    -0.069 OA 
HETATM   17  C   UNL     1      -6.352   6.051  69.266  1.00  0.00    -0.041 C  
HETATM   18  H   UNL     1      -6.080   5.916  72.655  1.00  0.00     0.000 HD 
HETATM   19  C   UNL     1      -7.874   6.340  69.355  1.00  0.00    -0.104 C  
HETATM   20  O   UNL     1      -6.120   4.684  69.601  1.00  0.00    -0.017 OA 
HETATM   21  H   UNL     1      -6.548   4.117  68.970  1.00  0.00     0.000 HD 
BRANCH  19  22
HETATM   22  C   UNL     1      -8.439   6.781  67.991  1.00  0.00    -0.120 C  
BRANCH  22  23
HETATM   23  C   UNL     1      -7.974   8.198  67.643  1.00  0.00    -0.122 C  
BRANCH  23  24
HETATM   24  C   UNL     1      -7.934   8.503  66.141  1.00  0.00    -0.102 C  
HETATM   25  O   UNL     1      -8.980   7.800  65.472  1.00  0.00    -0.358 OA 
HETATM   26  H   UNL     1      -8.956   7.989  64.541  1.00  0.00     0.000 HD 
BRANCH  24  27
HETATM   27  C   UNL     1      -8.146  10.000  65.868  1.00  0.00    -0.126 C  
BRANCH  27  28
HETATM   28  C   UNL     1      -6.840  10.794  65.856  1.00  0.00    -0.084 C  
BRANCH  28  29
HETATM   29  C   UNL     1      -6.781  11.811  66.964  1.00  0.00    -0.139 A  
HETATM   30  C   UNL     1      -7.955  12.438  67.403  1.00  0.00    -0.178 A  
HETATM   31  C   UNL     1      -7.909  13.378  68.432  1.00  0.00    -0.138 A  
HETATM   32  C   UNL     1      -6.691  13.702  69.025  1.00  0.00    -0.111 A  
HETATM   33  C   UNL     1      -5.517  13.090  68.587  1.00  0.00    -0.070 A  
HETATM   34  C   UNL     1      -5.561  12.149  67.557  1.00  0.00    -0.114 A  
ENDBRANCH  28  29
ENDBRANCH  27  28
ENDBRANCH  24  27
ENDBRANCH  23  24
ENDBRANCH  22  23
ENDBRANCH  19  22
ENDBRANCH  12  13
ENDBRANCH  11  12
ENDBRANCH   9  10
ENDBRANCH   8   9
ENDBRANCH   7   8
ENDBRANCH   5   7
ENDBRANCH   4   5
ENDBRANCH   2   4
TORSDOF 14
ENDMDL
MODEL      318
REMARK 921   NORMALIZED FREE ENERGY PREDICTED BY IDOCK:   -3.01 KCAL/MOL
REMARK 922        TOTAL FREE ENERGY PREDICTED BY IDOCK:   -8.76 KCAL/MOL
REMARK 923 INTER-LIGAND FREE ENERGY PREDICTED BY IDOCK:   -6.41 KCAL/MOL
REMARK 924 INTRA-LIGAND FREE ENERGY PREDICTED BY IDOCK:   -2.35 KCAL/MOL
REMARK 927      BINDING AFFINITY PREDICTED BY RF-SCORE:    0.00 PKD
ROOT
HETATM    1  C   UNL     1      -5.594  11.133  66.138  1.00  0.00    -0.141 C  
HETATM    2  C   UNL     1      -6.374  10.756  67.393  1.00  0.00    -0.059 C  
HETATM    3  C   UNL     1      -6.648  11.986  68.249  1.00  0.00    -0.055 C  
ENDROOT
BRANCH   2   4
HETATM    4  O   UNL     1      -7.647  10.199  67.016  1.00  0.00    -0.092 OA 
BRANCH   4   5
HETATM    5  C   UNL     1      -7.814   8.879  67.317  1.00  0.00    -0.096 C  
HETATM    6  O   UNL     1      -6.956   8.013  67.204  1.00  0.00    -0.071 OA 
BRANCH   5   7
HETATM    7  C   UNL     1      -9.225   8.641  67.790  1.00  0.00    -0.146 C  
BRANCH   7   8
HETATM    8  C   UNL     1      -9.630   9.677  68.839  1.00  0.00    -0.161 C  
BRANCH   8   9
HETATM    9  C   UNL     1     -10.908   9.307  69.588  1.00  0.00    -0.228 C  
BRANCH   9  10
HETATM   10  C   UNL     1     -10.863   9.715  71.033  1.00  0.00    -0.412 C  
HETATM   11  C   UNL     1     -11.788  10.432  71.694  1.00  0.00    -0.041 C  
BRANCH  11  12
HETATM   12  C   UNL     1     -13.079  10.961  71.139  1.00  0.00    -0.351 C  
BRANCH  12  13
HETATM   13  C   UNL     1     -13.068  12.431  70.684  1.00  0.00     0.308 C  
HETATM   14  C   UNL     1     -13.779  13.329  71.713  1.00  0.00    -0.196 C  
HETATM   15  C   UNL     1     -13.364  14.728  71.297  1.00  0.00    -0.465 C  
HETATM   16  O   UNL     1     -13.292  13.103  73.036  1.00  0.00    -0.518 OA 
HETATM   17  C   UNL     1     -11.885  14.569  70.962  1.00  0.00    -0.290 C  
HETATM   18  H   UNL     1     -13.731  13.657  73.671  1.00  0.00     0.000 HD 
HETATM   19  C   UNL     1     -11.670  13.087  70.555  1.00  0.00    -0.012 C  
HETATM   20  O   UNL     1     -11.089  14.853  72.111  1.00  0.00    -0.423 OA 
HETATM   21  H   UNL     1     -10.168  14.754  71.902  1.00  0.00     0.000 HD 
BRANCH  19  22
HETATM   22  C   UNL     1     -11.080  12.978  69.136  1.00  0.00    -0.245 C  
BRANCH  22  23
HETATM   23  C   UNL     1     -12.128  13.345  68.082  1.00  0.00    -0.267 C  
BRANCH  23  24
HETATM   24  C   UNL     1     -11.613  13.323  66.638  1.00  0.00    -0.365 C  
HETATM   25  O   UNL     1     -12.712  13.357  65.727  1.00  0.00    -0.432 OA 
HETATM   26  H   UNL     1     -12.393  13.344  64.832  1.00  0.00     0.000 HD 
BRANCH  24  27
HETATM   27  C   UNL     1     -10.736  14.547  66.337  1.00  0.00    -0.309 C  
BRANCH  27  28
HETATM   28  C   UNL     1     -10.622  15.503  67.525  1.00  0.00    -0.297 C  
BRANCH  28  29
HETATM   29  C   UNL     1      -9.199  15.915  67.790  1.00  0.00    -0.201 A  
HETATM   30  C   UNL     1      -8.659  17.031  67.138  1.00  0.00    -0.220 A  
HETATM   31  C   UNL     1      -7.343  17.422  67.382  1.00  0.00    -0.188 A  
HETATM   32  C   UNL     1      -6.557  16.698  68.276  1.00  0.00    -0.138 A  
HETATM   33  C   UNL     1      -7.084  15.581  68.923  1.00  0.00    -0.134 A  
HETATM   34  C   UNL     1      -8.401  15.189  68.679  1.00  0.00    -0.160 A  
ENDBRANCH  28  29
ENDBRANCH  27  28
ENDBRANCH  24  27
ENDBRANCH  23  24
ENDBRANCH  22  23
ENDBRANCH  19  22
ENDBRANCH  12  13
ENDBRANCH  11  12
ENDBRANCH   9  10
ENDBRANCH   8   9
ENDBRANCH   7   8
ENDBRANCH   5   7
ENDBRANCH   4   5
ENDBRANCH   2   4
TORSDOF 14
ENDMDL
MODEL      319
REMARK 921   NORMALIZED FREE ENERGY PREDICTED BY IDOCK:   -2.99 KCAL/MOL
REMARK 922        TOTAL FREE ENERGY PREDICTED BY IDOCK:   -8.74 KCAL/MOL
REMARK 923 INTER-LIGAND FREE ENERGY PREDICTED BY IDOCK:   -5.15 KCAL/MOL
REMARK 924 INTRA-LIGAND FREE ENERGY PREDICTED BY IDOCK:   -3.58 KCAL/MOL
REMARK 927      BINDING AFFINITY PREDICTED BY RF-SCORE:    0.00 PKD
ROOT
HETATM    1  C   UNL     1      -7.901  17.213  66.357  1.00  0.00    -0.352 C  
HETATM    2  C   UNL     1      -7.833  16.147  67.444  1.00  0.00    -0.154 C  
HETATM    3  C   UNL     1      -9.230  15.668  67.819  1.00  0.00    -0.193 C  
ENDROOT
BRANCH   2   4
HETATM    4  O   UNL     1      -7.102  15.008  66.953  1.00  0.00    -0.115 OA 
BRANCH   4   5
HETATM    5  C   UNL     1      -6.708  14.116  67.907  1.00  0.00    -0.167 C  
HETATM    6  O   UNL     1      -6.113  14.401  68.939  1.00  0.00    -0.083 OA 
BRANCH   5   7
HETATM    7  C   UNL     1      -7.095  12.721  67.490  1.00  0.00    -0.148 C  
BRANCH   7   8
HETATM    8  C   UNL     1      -8.293  12.223  68.301  1.00  0.00    -0.174 C  
BRANCH   8   9
HETATM    9  C   UNL     1      -8.257  10.720  68.566  1.00  0.00    -0.136 C  
BRANCH   9  10
HETATM   10  C   UNL     1      -9.246  10.299  69.616  1.00  0.00    -0.155 C  
HETATM   11  C   UNL     1      -9.935   9.146  69.653  1.00  0.00    -0.198 C  
BRANCH  11  12
HETATM   12  C   UNL     1      -9.849   8.017  68.668  1.00  0.00    -0.182 C  
BRANCH  12  13
HETATM   13  C   UNL     1      -8.585   7.143  68.750  1.00  0.00    -0.125 C  
HETATM   14  C   UNL     1      -8.236   6.819  70.215  1.00  0.00    -0.125 C  
HETATM   15  C   UNL     1      -7.224   5.696  70.090  1.00  0.00    -0.068 C  
HETATM   16  O   UNL     1      -9.365   6.314  70.927  1.00  0.00    -0.160 OA 
HETATM   17  C   UNL     1      -7.806   4.822  68.984  1.00  0.00    -0.072 C  
HETATM   18  H   UNL     1      -9.150   6.114  71.831  1.00  0.00     0.000 HD 
HETATM   19  C   UNL     1      -8.688   5.741  68.097  1.00  0.00    -0.107 C  
HETATM   20  O   UNL     1      -8.625   3.799  69.548  1.00  0.00    -0.063 OA 
HETATM   21  H   UNL     1      -8.988   3.255  68.859  1.00  0.00     0.000 HD 
BRANCH  19  22
HETATM   22  C   UNL     1      -8.218   5.720  66.631  1.00  0.00    -0.106 C  
BRANCH  22  23
HETATM   23  C   UNL     1      -7.267   6.887  66.349  1.00  0.00    -0.075 C  
BRANCH  23  24
HETATM   24  C   UNL     1      -7.599   7.686  65.083  1.00  0.00    -0.095 C  
HETATM   25  O   UNL     1      -8.655   7.047  64.365  1.00  0.00    -0.343 OA 
HETATM   26  H   UNL     1      -8.862   7.542  63.581  1.00  0.00     0.000 HD 
BRANCH  24  27
HETATM   27  C   UNL     1      -8.077   9.105  65.425  1.00  0.00    -0.124 C  
BRANCH  27  28
HETATM   28  C   UNL     1      -9.371   9.487  64.707  1.00  0.00    -0.235 C  
BRANCH  28  29
HETATM   29  C   UNL     1     -10.025  10.697  65.316  1.00  0.00    -0.356 A  
HETATM   30  C   UNL     1     -10.945  10.547  66.363  1.00  0.00    -0.019 A  
HETATM   31  C   UNL     1     -11.551  11.664  66.935  1.00  0.00    -0.246 A  
HETATM   32  C   UNL     1     -11.247  12.939  66.462  1.00  0.00    -0.340 A  
HETATM   33  C   UNL     1     -10.340  13.097  65.414  1.00  0.00    -0.313 A  
HETATM   34  C   UNL     1      -9.733  11.980  64.841  1.00  0.00    -0.128 A  
ENDBRANCH  28  29
ENDBRANCH  27  28
ENDBRANCH  24  27
ENDBRANCH  23  24
ENDBRANCH  22  23
ENDBRANCH  19  22
ENDBRANCH  12  13
ENDBRANCH  11  12
ENDBRANCH   9  10
ENDBRANCH   8   9
ENDBRANCH   7   8
ENDBRANCH   5   7
ENDBRANCH   4   5
ENDBRANCH   2   4
TORSDOF 14
ENDMDL
MODEL      320
REMARK 921   NORMALIZED FREE ENERGY PREDICTED BY IDOCK:   -2.96 KCAL/MOL
REMARK 922        TOTAL FREE ENERGY PREDICTED BY IDOCK:   -8.68 KCAL/MOL
REMARK 923 INTER-LIGAND FREE ENERGY PREDICTED BY IDOCK:   -6.21 KCAL/MOL
REMARK 924 INTRA-LIGAND FREE ENERGY PREDICTED BY IDOCK:   -2.47 KCAL/MOL
REMARK 927      BINDING AFFINITY PREDICTED BY RF-SCORE:    0.00 PKD
ROOT
HETATM    1  C   UNL     1     -10.891  11.873  63.580  1.00  0.00    -0.510 C  
HETATM    2  C   UNL     1     -11.124  12.526  64.938  1.00  0.00    -0.299 C  
HETATM    3  C   UNL     1     -12.541  13.076  65.038  1.00  0.00    -0.515 C  
ENDROOT
BRANCH   2   4
HETATM    4  O   UNL     1     -10.967  11.541  65.976  1.00  0.00    -0.291 OA 
BRANCH   4   5
HETATM    5  C   UNL     1     -10.168  11.916  67.016  1.00  0.00    -0.210 C  
HETATM    6  O   UNL     1      -8.969  12.154  66.938  1.00  0.00    -0.190 OA 
BRANCH   5   7
HETATM    7  C   UNL     1     -10.979  11.972  68.286  1.00  0.00    -0.275 C  
BRANCH   7   8
HETATM    8  C   UNL     1     -11.586  10.605  68.605  1.00  0.00    -0.297 C  
BRANCH   8   9
HETATM    9  C   UNL     1     -10.541   9.554  68.971  1.00  0.00    -0.238 C  
BRANCH   9  10
HETATM   10  C   UNL     1     -10.760   8.253  68.251  1.00  0.00    -0.076 C  
HETATM   11  C   UNL     1     -10.994   7.055  68.812  1.00  0.00    -0.150 C  
BRANCH  11  12
HETATM   12  C   UNL     1     -11.111   6.759  70.279  1.00  0.00    -0.360 C  
BRANCH  12  13
HETATM   13  C   UNL     1     -10.000   7.332  71.176  1.00  0.00    -0.186 C  
HETATM   14  C   UNL     1     -10.559   7.741  72.551  1.00  0.00    -0.293 C  
HETATM   15  C   UNL     1      -9.310   7.931  73.390  1.00  0.00    -0.348 C  
HETATM   16  O   UNL     1     -11.328   6.692  73.140  1.00  0.00    -0.472 OA 
HETATM   17  C   UNL     1      -8.430   6.756  72.978  1.00  0.00    -0.116 C  
HETATM   18  H   UNL     1     -11.673   6.944  73.989  1.00  0.00     0.000 HD 
HETATM   19  C   UNL     1      -8.854   6.354  71.541  1.00  0.00    -0.137 C  
HETATM   20  O   UNL     1      -8.648   5.650  73.852  1.00  0.00    -0.118 OA 
HETATM   21  H   UNL     1      -8.100   4.918  73.595  1.00  0.00     0.000 HD 
BRANCH  19  22
HETATM   22  C   UNL     1      -7.664   6.426  70.566  1.00  0.00    -0.105 C  
BRANCH  22  23
HETATM   23  C   UNL     1      -7.878   5.486  69.376  1.00  0.00    -0.087 C  
BRANCH  23  24
HETATM   24  C   UNL     1      -6.918   5.717  68.203  1.00  0.00    -0.065 C  
HETATM   25  O   UNL     1      -7.611   5.551  66.965  1.00  0.00    -0.090 OA 
HETATM   26  H   UNL     1      -7.017   5.694  66.238  1.00  0.00     0.000 HD 
BRANCH  24  27
HETATM   27  C   UNL     1      -6.350   7.144  68.217  1.00  0.00    -0.040 C  
BRANCH  27  28
HETATM   28  C   UNL     1      -7.417   8.212  67.973  1.00  0.00    -0.097 C  
BRANCH  28  29
HETATM   29  C   UNL     1      -7.234   8.910  66.654  1.00  0.00    -0.085 A  
HETATM   30  C   UNL     1      -6.044   9.600  66.384  1.00  0.00    -0.060 A  
HETATM   31  C   UNL     1      -5.864  10.245  65.162  1.00  0.00    -0.129 A  
HETATM   32  C   UNL     1      -6.874  10.212  64.202  1.00  0.00    -0.102 A  
HETATM   33  C   UNL     1      -8.065   9.537  64.466  1.00  0.00    -0.142 A  
HETATM   34  C   UNL     1      -8.246   8.889  65.689  1.00  0.00    -0.126 A  
ENDBRANCH  28  29
ENDBRANCH  27  28
ENDBRANCH  24  27
ENDBRANCH  23  24
ENDBRANCH  22  23
ENDBRANCH  19  22
ENDBRANCH  12  13
ENDBRANCH  11  12
ENDBRANCH   9  10
ENDBRANCH   8   9
ENDBRANCH   7   8
ENDBRANCH   5   7
ENDBRANCH   4   5
ENDBRANCH   2   4
TORSDOF 14
ENDMDL
MODEL      321
REMARK 921   NORMALIZED FREE ENERGY PREDICTED BY IDOCK:   -2.94 KCAL/MOL
REMARK 922        TOTAL FREE ENERGY PREDICTED BY IDOCK:   -8.63 KCAL/MOL
REMARK 923 INTER-LIGAND FREE ENERGY PREDICTED BY IDOCK:   -6.66 KCAL/MOL
REMARK 924 INTRA-LIGAND FREE ENERGY PREDICTED BY IDOCK:   -1.97 KCAL/MOL
REMARK 927      BINDING AFFINITY PREDICTED BY RF-SCORE:    0.00 PKD
ROOT
HETATM    1  C   UNL     1     -10.603   2.047  72.905  1.00  0.00    -0.241 C  
HETATM    2  C   UNL     1      -9.836   3.363  72.837  1.00  0.00    -0.142 C  
HETATM    3  C   UNL     1     -10.794   4.547  72.846  1.00  0.00    -0.276 C  
ENDROOT
BRANCH   2   4
HETATM    4  O   UNL     1      -8.987   3.483  73.993  1.00  0.00    -0.087 OA 
BRANCH   4   5
HETATM    5  C   UNL     1      -7.910   4.306  73.838  1.00  0.00    -0.085 C  
HETATM    6  O   UNL     1      -7.644   5.265  74.551  1.00  0.00    -0.088 OA 
BRANCH   5   7
HETATM    7  C   UNL     1      -7.106   3.871  72.639  1.00  0.00    -0.053 C  
BRANCH   7   8
HETATM    8  C   UNL     1      -5.883   4.769  72.449  1.00  0.00    -0.012 C  
BRANCH   8   9
HETATM    9  C   UNL     1      -5.972   5.652  71.206  1.00  0.00    -0.029 C  
BRANCH   9  10
HETATM   10  C   UNL     1      -6.818   6.873  71.431  1.00  0.00    -0.061 C  
HETATM   11  C   UNL     1      -8.051   7.095  70.946  1.00  0.00    -0.111 C  
BRANCH  11  12
HETATM   12  C   UNL     1      -8.863   6.162  70.093  1.00  0.00    -0.144 C  
BRANCH  12  13
HETATM   13  C   UNL     1      -8.705   6.328  68.572  1.00  0.00    -0.112 C  
HETATM   14  C   UNL     1      -8.693   4.958  67.869  1.00  0.00    -0.103 C  
HETATM   15  C   UNL     1      -8.893   5.317  66.408  1.00  0.00    -0.123 C  
HETATM   16  O   UNL     1      -9.795   4.146  68.276  1.00  0.00    -0.115 OA 
HETATM   17  C   UNL     1      -9.960   6.405  66.459  1.00  0.00    -0.103 C  
HETATM   18  H   UNL     1      -9.787   3.301  67.842  1.00  0.00     0.000 HD 
HETATM   19  C   UNL     1      -9.853   7.081  67.852  1.00  0.00    -0.161 C  
HETATM   20  O   UNL     1     -11.257   5.827  66.324  1.00  0.00    -0.756 OA 
HETATM   21  H   UNL     1     -11.921   6.505  66.355  1.00  0.00     0.000 HD 
BRANCH  19  22
HETATM   22  C   UNL     1      -9.595   8.593  67.720  1.00  0.00    -0.178 C  
BRANCH  22  23
HETATM   23  C   UNL     1     -10.606   9.391  68.548  1.00  0.00    -0.234 C  
BRANCH  23  24
HETATM   24  C   UNL     1     -11.338  10.491  67.770  1.00  0.00    -0.190 C  
HETATM   25  O   UNL     1     -12.466  10.949  68.517  1.00  0.00    -0.742 OA 
HETATM   26  H   UNL     1     -12.919  11.631  68.035  1.00  0.00     0.000 HD 
BRANCH  24  27
HETATM   27  C   UNL     1     -10.429  11.706  67.530  1.00  0.00    -0.228 C  
BRANCH  27  28
HETATM   28  C   UNL     1     -10.916  12.596  66.386  1.00  0.00    -0.304 C  
BRANCH  28  29
HETATM   29  C   UNL     1     -10.732  14.059  66.685  1.00  0.00    -0.281 A  
HETATM   30  C   UNL     1     -10.069  14.885  65.767  1.00  0.00    -0.367 A  
HETATM   31  C   UNL     1      -9.899  16.243  66.034  1.00  0.00    -0.371 A  
HETATM   32  C   UNL     1     -10.385  16.783  67.223  1.00  0.00    -0.304 A  
HETATM   33  C   UNL     1     -11.038  15.967  68.146  1.00  0.00    -0.344 A  
HETATM   34  C   UNL     1     -11.209  14.608  67.879  1.00  0.00    -0.318 A  
ENDBRANCH  28  29
ENDBRANCH  27  28
ENDBRANCH  24  27
ENDBRANCH  23  24
ENDBRANCH  22  23
ENDBRANCH  19  22
ENDBRANCH  12  13
ENDBRANCH  11  12
ENDBRANCH   9  10
ENDBRANCH   8   9
ENDBRANCH   7   8
ENDBRANCH   5   7
ENDBRANCH   4   5
ENDBRANCH   2   4
TORSDOF 14
ENDMDL
MODEL      322
REMARK 921   NORMALIZED FREE ENERGY PREDICTED BY IDOCK:   -2.89 KCAL/MOL
REMARK 922        TOTAL FREE ENERGY PREDICTED BY IDOCK:   -8.54 KCAL/MOL
REMARK 923 INTER-LIGAND FREE ENERGY PREDICTED BY IDOCK:   -6.78 KCAL/MOL
REMARK 924 INTRA-LIGAND FREE ENERGY PREDICTED BY IDOCK:   -1.76 KCAL/MOL
REMARK 927      BINDING AFFINITY PREDICTED BY RF-SCORE:    0.00 PKD
ROOT
HETATM    1  C   UNL     1      -9.157   9.896  62.960  1.00  0.00    -0.291 C  
HETATM    2  C   UNL     1      -8.189   8.958  63.673  1.00  0.00    -0.172 C  
HETATM    3  C   UNL     1      -6.758   9.466  63.553  1.00  0.00    -0.095 C  
ENDROOT
BRANCH   2   4
HETATM    4  O   UNL     1      -8.515   8.908  65.074  1.00  0.00    -0.159 OA 
BRANCH   4   5
HETATM    5  C   UNL     1      -8.576   7.654  65.610  1.00  0.00    -0.123 C  
HETATM    6  O   UNL     1      -7.769   6.756  65.405  1.00  0.00    -0.088 OA 
BRANCH   5   7
HETATM    7  C   UNL     1      -9.803   7.533  66.478  1.00  0.00    -0.226 C  
BRANCH   7   8
HETATM    8  C   UNL     1      -9.573   8.188  67.841  1.00  0.00    -0.179 C  
BRANCH   8   9
HETATM    9  C   UNL     1      -8.115   8.144  68.290  1.00  0.00    -0.128 C  
BRANCH   9  10
HETATM   10  C   UNL     1      -7.841   9.076  69.437  1.00  0.00    -0.094 C  
HETATM   11  C   UNL     1      -8.746   9.802  70.115  1.00  0.00    -0.215 C  
BRANCH  11  12
HETATM   12  C   UNL     1     -10.231   9.821  69.891  1.00  0.00    -0.291 C  
BRANCH  12  13
HETATM   13  C   UNL     1     -11.104   9.570  71.132  1.00  0.00    -0.450 C  
HETATM   14  C   UNL     1     -12.403  10.396  71.066  1.00  0.00    -0.387 C  
HETATM   15  C   UNL     1     -13.267   9.768  72.143  1.00  0.00    -0.530 C  
HETATM   16  O   UNL     1     -13.071  10.230  69.816  1.00  0.00    -0.527 OA 
HETATM   17  C   UNL     1     -13.023   8.274  71.961  1.00  0.00    -0.330 C  
HETATM   18  H   UNL     1     -13.871  10.740  69.775  1.00  0.00     0.000 HD 
HETATM   19  C   UNL     1     -11.621   8.120  71.312  1.00  0.00    -0.305 C  
HETATM   20  O   UNL     1     -14.002   7.721  71.083  1.00  0.00    -0.609 OA 
HETATM   21  H   UNL     1     -13.850   6.790  70.970  1.00  0.00     0.000 HD 
BRANCH  19  22
HETATM   22  C   UNL     1     -10.696   7.251  72.184  1.00  0.00    -0.252 C  
BRANCH  22  23
HETATM   23  C   UNL     1      -9.945   6.227  71.327  1.00  0.00    -0.207 C  
BRANCH  23  24
HETATM   24  C   UNL     1      -8.478   6.021  71.722  1.00  0.00    -0.127 C  
HETATM   25  O   UNL     1      -8.240   6.565  73.020  1.00  0.00    -0.111 OA 
HETATM   26  H   UNL     1      -7.332   6.437  73.265  1.00  0.00     0.000 HD 
BRANCH  24  27
HETATM   27  C   UNL     1      -8.118   4.529  71.782  1.00  0.00    -0.102 C  
BRANCH  27  28
HETATM   28  C   UNL     1      -7.229   4.084  70.621  1.00  0.00    -0.038 C  
BRANCH  28  29
HETATM   29  C   UNL     1      -8.029   3.672  69.416  1.00  0.00    -0.060 A  
HETATM   30  C   UNL     1      -8.597   2.392  69.355  1.00  0.00    -0.113 A  
HETATM   31  C   UNL     1      -9.344   2.005  68.243  1.00  0.00    -0.251 A  
HETATM   32  C   UNL     1      -9.524   2.890  67.183  1.00  0.00    -0.089 A  
HETATM   33  C   UNL     1      -8.953   4.162  67.230  1.00  0.00    -0.142 A  
HETATM   34  C   UNL     1      -8.206   4.551  68.343  1.00  0.00    -0.086 A  
ENDBRANCH  28  29
ENDBRANCH  27  28
ENDBRANCH  24  27
ENDBRANCH  23  24
ENDBRANCH  22  23
ENDBRANCH  19  22
ENDBRANCH  12  13
ENDBRANCH  11  12
ENDBRANCH   9  10
ENDBRANCH   8   9
ENDBRANCH   7   8
ENDBRANCH   5   7
ENDBRANCH   4   5
ENDBRANCH   2   4
TORSDOF 14
ENDMDL
MODEL      323
REMARK 921   NORMALIZED FREE ENERGY PREDICTED BY IDOCK:   -2.88 KCAL/MOL
REMARK 922        TOTAL FREE ENERGY PREDICTED BY IDOCK:   -8.53 KCAL/MOL
REMARK 923 INTER-LIGAND FREE ENERGY PREDICTED BY IDOCK:   -6.52 KCAL/MOL
REMARK 924 INTRA-LIGAND FREE ENERGY PREDICTED BY IDOCK:   -2.01 KCAL/MOL
REMARK 927      BINDING AFFINITY PREDICTED BY RF-SCORE:    0.00 PKD
ROOT
HETATM    1  C   UNL     1      -6.597  14.940  71.810  1.00  0.00     1.221 C  
HETATM    2  C   UNL     1      -5.272  14.472  71.219  1.00  0.00    -0.146 C  
HETATM    3  C   UNL     1      -5.191  12.951  71.210  1.00  0.00    -0.172 C  
ENDROOT
BRANCH   2   4
HETATM    4  O   UNL     1      -5.171  14.918  69.854  1.00  0.00    -0.094 OA 
BRANCH   4   5
HETATM    5  C   UNL     1      -6.361  15.062  69.201  1.00  0.00    -0.108 C  
HETATM    6  O   UNL     1      -6.992  16.107  69.102  1.00  0.00    -0.175 OA 
BRANCH   5   7
HETATM    7  C   UNL     1      -6.795  13.732  68.639  1.00  0.00    -0.102 C  
BRANCH   7   8
HETATM    8  C   UNL     1      -7.529  13.917  67.309  1.00  0.00    -0.051 C  
BRANCH   8   9
HETATM    9  C   UNL     1      -8.580  12.842  67.048  1.00  0.00    -0.177 C  
BRANCH   9  10
HETATM   10  C   UNL     1      -8.889  12.034  68.277  1.00  0.00    -0.182 C  
HETATM   11  C   UNL     1      -8.863  10.695  68.384  1.00  0.00    -0.145 C  
BRANCH  11  12
HETATM   12  C   UNL     1      -8.495   9.715  67.308  1.00  0.00    -0.132 C  
BRANCH  12  13
HETATM   13  C   UNL     1      -8.417  10.279  65.878  1.00  0.00    -0.154 C  
HETATM   14  C   UNL     1      -7.118   9.835  65.182  1.00  0.00    -0.121 C  
HETATM   15  C   UNL     1      -7.377  10.164  63.724  1.00  0.00    -0.113 C  
HETATM   16  O   UNL     1      -6.920   8.424  65.285  1.00  0.00    -0.072 OA 
HETATM   17  C   UNL     1      -8.822   9.724  63.517  1.00  0.00    -0.241 C  
HETATM   18  H   UNL     1      -6.118   8.151  64.855  1.00  0.00     0.000 HD 
HETATM   19  C   UNL     1      -9.520   9.797  64.901  1.00  0.00    -0.331 C  
HETATM   20  O   UNL     1      -8.863   8.377  63.050  1.00  0.00    -0.416 OA 
HETATM   21  H   UNL     1      -9.763   8.103  62.921  1.00  0.00     0.000 HD 
BRANCH  19  22
HETATM   22  C   UNL     1     -10.743  10.732  64.861  1.00  0.00    -0.167 C  
BRANCH  22  23
HETATM   23  C   UNL     1     -10.601  11.765  63.738  1.00  0.00    -0.470 C  
BRANCH  23  24
HETATM   24  C   UNL     1     -11.850  12.622  63.502  1.00  0.00    -0.541 C  
HETATM   25  O   UNL     1     -12.911  11.812  62.997  1.00  0.00    -0.844 OA 
HETATM   26  H   UNL     1     -13.685  12.343  62.851  1.00  0.00     0.000 HD 
BRANCH  24  27
HETATM   27  C   UNL     1     -12.347  13.260  64.808  1.00  0.00    -0.454 C  
BRANCH  27  28
HETATM   28  C   UNL     1     -11.512  14.467  65.236  1.00  0.00    -0.350 C  
BRANCH  28  29
HETATM   29  C   UNL     1     -11.492  14.644  66.730  1.00  0.00    -0.371 A  
HETATM   30  C   UNL     1     -10.797  15.720  67.300  1.00  0.00    -0.298 A  
HETATM   31  C   UNL     1     -10.779  15.893  68.683  1.00  0.00    -0.274 A  
HETATM   32  C   UNL     1     -11.449  14.991  69.507  1.00  0.00    -0.317 A  
HETATM   33  C   UNL     1     -12.135  13.913  68.949  1.00  0.00    -0.355 A  
HETATM   34  C   UNL     1     -12.155  13.738  67.564  1.00  0.00    -0.366 A  
ENDBRANCH  28  29
ENDBRANCH  27  28
ENDBRANCH  24  27
ENDBRANCH  23  24
ENDBRANCH  22  23
ENDBRANCH  19  22
ENDBRANCH  12  13
ENDBRANCH  11  12
ENDBRANCH   9  10
ENDBRANCH   8   9
ENDBRANCH   7   8
ENDBRANCH   5   7
ENDBRANCH   4   5
ENDBRANCH   2   4
TORSDOF 14
ENDMDL
MODEL      324
REMARK 921   NORMALIZED FREE ENERGY PREDICTED BY IDOCK:   -2.87 KCAL/MOL
REMARK 922        TOTAL FREE ENERGY PREDICTED BY IDOCK:   -8.51 KCAL/MOL
REMARK 923 INTER-LIGAND FREE ENERGY PREDICTED BY IDOCK:   -6.07 KCAL/MOL
REMARK 924 INTRA-LIGAND FREE ENERGY PREDICTED BY IDOCK:   -2.44 KCAL/MOL
REMARK 927      BINDING AFFINITY PREDICTED BY RF-SCORE:    0.00 PKD
ROOT
HETATM    1  C   UNL     1      -8.737   9.726  62.851  1.00  0.00    -0.229 C  
HETATM    2  C   UNL     1      -7.516   9.000  63.406  1.00  0.00    -0.099 C  
HETATM    3  C   UNL     1      -6.237   9.749  63.057  1.00  0.00    -0.111 C  
ENDROOT
BRANCH   2   4
HETATM    4  O   UNL     1      -7.605   8.940  64.841  1.00  0.00    -0.101 OA 
BRANCH   4   5
HETATM    5  C   UNL     1      -7.180   7.771  65.401  1.00  0.00    -0.068 C  
HETATM    6  O   UNL     1      -6.142   7.187  65.116  1.00  0.00    -0.036 OA 
BRANCH   5   7
HETATM    7  C   UNL     1      -8.193   7.292  66.409  1.00  0.00    -0.120 C  
BRANCH   7   8
HETATM    8  C   UNL     1      -8.329   8.290  67.560  1.00  0.00    -0.130 C  
BRANCH   8   9
HETATM    9  C   UNL     1      -7.096   9.171  67.740  1.00  0.00    -0.079 C  
BRANCH   9  10
HETATM   10  C   UNL     1      -7.278  10.195  68.825  1.00  0.00    -0.081 C  
HETATM   11  C   UNL     1      -7.854  11.403  68.699  1.00  0.00    -0.139 C  
BRANCH  11  12
HETATM   12  C   UNL     1      -8.464  11.982  67.455  1.00  0.00    -0.170 C  
BRANCH  12  13
HETATM   13  C   UNL     1      -9.832  12.665  67.628  1.00  0.00    -0.210 C  
HETATM   14  C   UNL     1     -10.002  13.816  66.619  1.00  0.00    -0.279 C  
HETATM   15  C   UNL     1     -11.487  14.120  66.688  1.00  0.00    -0.378 C  
HETATM   16  O   UNL     1      -9.701  13.399  65.288  1.00  0.00    -0.518 OA 
HETATM   17  C   UNL     1     -12.125  12.736  66.742  1.00  0.00    -0.220 C  
HETATM   18  H   UNL     1      -9.806  14.110  64.665  1.00  0.00     0.000 HD 
HETATM   19  C   UNL     1     -11.071  11.775  67.356  1.00  0.00    -0.338 C  
HETATM   20  O   UNL     1     -12.444  12.292  65.425  1.00  0.00    -0.596 OA 
HETATM   21  H   UNL     1     -12.842  11.429  65.459  1.00  0.00     0.000 HD 
BRANCH  19  22
HETATM   22  C   UNL     1     -11.614  11.088  68.623  1.00  0.00    -0.385 C  
BRANCH  22  23
HETATM   23  C   UNL     1     -11.107   9.646  68.718  1.00  0.00    -0.093 C  
BRANCH  23  24
HETATM   24  C   UNL     1     -11.275   9.004  70.101  1.00  0.00    -0.171 C  
HETATM   25  O   UNL     1     -12.513   9.412  70.682  1.00  0.00    -0.483 OA 
HETATM   26  H   UNL     1     -12.617   9.014  71.538  1.00  0.00     0.000 HD 
BRANCH  24  27
HETATM   27  C   UNL     1     -11.301   7.471  70.006  1.00  0.00    -0.115 C  
BRANCH  27  28
HETATM   28  C   UNL     1     -10.785   6.788  71.274  1.00  0.00    -0.257 C  
BRANCH  28  29
HETATM   29  C   UNL     1      -9.297   6.939  71.437  1.00  0.00    -0.156 A  
HETATM   30  C   UNL     1      -8.429   6.441  70.456  1.00  0.00    -0.138 A  
HETATM   31  C   UNL     1      -7.050   6.582  70.599  1.00  0.00    -0.069 A  
HETATM   32  C   UNL     1      -6.527   7.216  71.724  1.00  0.00    -0.047 A  
HETATM   33  C   UNL     1      -7.383   7.705  72.710  1.00  0.00    -0.094 A  
HETATM   34  C   UNL     1      -8.765   7.566  72.568  1.00  0.00    -0.163 A  
ENDBRANCH  28  29
ENDBRANCH  27  28
ENDBRANCH  24  27
ENDBRANCH  23  24
ENDBRANCH  22  23
ENDBRANCH  19  22
ENDBRANCH  12  13
ENDBRANCH  11  12
ENDBRANCH   9  10
ENDBRANCH   8   9
ENDBRANCH   7   8
ENDBRANCH   5   7
ENDBRANCH   4   5
ENDBRANCH   2   4
TORSDOF 14
ENDMDL
MODEL      325
REMARK 921   NORMALIZED FREE ENERGY PREDICTED BY IDOCK:   -2.86 KCAL/MOL
REMARK 922        TOTAL FREE ENERGY PREDICTED BY IDOCK:   -8.49 KCAL/MOL
REMARK 923 INTER-LIGAND FREE ENERGY PREDICTED BY IDOCK:   -7.21 KCAL/MOL
REMARK 924 INTRA-LIGAND FREE ENERGY PREDICTED BY IDOCK:   -1.28 KCAL/MOL
REMARK 927      BINDING AFFINITY PREDICTED BY RF-SCORE:    0.00 PKD
ROOT
HETATM    1  C   UNL     1     -10.354  17.500  65.527  1.00  0.00    -0.032 C  
HETATM    2  C   UNL     1      -9.996  18.739  66.340  1.00  0.00    -0.392 C  
HETATM    3  C   UNL     1     -10.704  19.970  65.789  1.00  0.00    -0.357 C  
ENDROOT
BRANCH   2   4
HETATM    4  O   UNL     1     -10.431  18.561  67.700  1.00  0.00    -0.385 OA 
BRANCH   4   5
HETATM    5  C   UNL     1      -9.823  19.372  68.614  1.00  0.00    -0.443 C  
HETATM    6  O   UNL     1     -10.397  20.164  69.351  1.00  0.00    -0.237 OA 
BRANCH   5   7
HETATM    7  C   UNL     1      -8.331  19.163  68.565  1.00  0.00    -0.399 C  
BRANCH   7   8
HETATM    8  C   UNL     1      -7.976  17.701  68.845  1.00  0.00    -0.178 C  
BRANCH   8   9
HETATM    9  C   UNL     1      -7.312  17.006  67.659  1.00  0.00    -0.176 C  
BRANCH   9  10
HETATM   10  C   UNL     1      -6.756  15.658  68.024  1.00  0.00    -0.148 C  
HETATM   11  C   UNL     1      -7.431  14.497  68.069  1.00  0.00    -0.142 C  
BRANCH  11  12
HETATM   12  C   UNL     1      -8.882  14.289  67.741  1.00  0.00    -0.185 C  
BRANCH  12  13
HETATM   13  C   UNL     1      -9.305  12.841  67.441  1.00  0.00    -0.193 C  
HETATM   14  C   UNL     1     -10.240  12.784  66.219  1.00  0.00    -0.253 C  
HETATM   15  C   UNL     1     -10.257  11.309  65.864  1.00  0.00    -0.298 C  
HETATM   16  O   UNL     1      -9.699  13.496  65.107  1.00  0.00    -0.546 OA 
HETATM   17  C   UNL     1      -8.798  10.894  66.026  1.00  0.00    -0.188 C  
HETATM   18  H   UNL     1     -10.276  13.462  64.353  1.00  0.00     0.000 HD 
HETATM   19  C   UNL     1      -8.161  11.869  67.051  1.00  0.00    -0.170 C  
HETATM   20  O   UNL     1      -8.112  11.017  64.782  1.00  0.00    -0.363 OA 
HETATM   21  H   UNL     1      -7.204  10.758  64.884  1.00  0.00     0.000 HD 
BRANCH  19  22
HETATM   22  C   UNL     1      -7.576  11.109  68.256  1.00  0.00    -0.111 C  
BRANCH  22  23
HETATM   23  C   UNL     1      -7.969   9.630  68.208  1.00  0.00    -0.096 C  
BRANCH  23  24
HETATM   24  C   UNL     1      -8.936   9.193  69.315  1.00  0.00    -0.145 C  
HETATM   25  O   UNL     1      -9.358  10.328  70.072  1.00  0.00    -0.400 OA 
HETATM   26  H   UNL     1      -9.957  10.058  70.757  1.00  0.00     0.000 HD 
BRANCH  24  27
HETATM   27  C   UNL     1     -10.199   8.542  68.731  1.00  0.00    -0.217 C  
BRANCH  27  28
HETATM   28  C   UNL     1     -10.876   7.578  69.706  1.00  0.00    -0.234 C  
BRANCH  28  29
HETATM   29  C   UNL     1      -9.881   6.755  70.478  1.00  0.00    -0.187 A  
HETATM   30  C   UNL     1      -9.587   5.447  70.071  1.00  0.00    -0.227 A  
HETATM   31  C   UNL     1      -8.662   4.680  70.778  1.00  0.00    -0.133 A  
HETATM   32  C   UNL     1      -8.029   5.213  71.899  1.00  0.00    -0.112 A  
HETATM   33  C   UNL     1      -8.323   6.510  72.317  1.00  0.00    -0.106 A  
HETATM   34  C   UNL     1      -9.248   7.279  71.609  1.00  0.00    -0.155 A  
ENDBRANCH  28  29
ENDBRANCH  27  28
ENDBRANCH  24  27
ENDBRANCH  23  24
ENDBRANCH  22  23
ENDBRANCH  19  22
ENDBRANCH  12  13
ENDBRANCH  11  12
ENDBRANCH   9  10
ENDBRANCH   8   9
ENDBRANCH   7   8
ENDBRANCH   5   7
ENDBRANCH   4   5
ENDBRANCH   2   4
TORSDOF 14
ENDMDL
MODEL      326
REMARK 921   NORMALIZED FREE ENERGY PREDICTED BY IDOCK:   -2.82 KCAL/MOL
REMARK 922        TOTAL FREE ENERGY PREDICTED BY IDOCK:   -8.41 KCAL/MOL
REMARK 923 INTER-LIGAND FREE ENERGY PREDICTED BY IDOCK:   -7.12 KCAL/MOL
REMARK 924 INTRA-LIGAND FREE ENERGY PREDICTED BY IDOCK:   -1.29 KCAL/MOL
REMARK 927      BINDING AFFINITY PREDICTED BY RF-SCORE:    0.00 PKD
ROOT
HETATM    1  C   UNL     1      -7.430   2.271  66.352  1.00  0.00    -0.066 C  
HETATM    2  C   UNL     1      -7.365   3.308  65.236  1.00  0.00    -0.071 C  
HETATM    3  C   UNL     1      -7.945   2.750  63.944  1.00  0.00    -0.081 C  
ENDROOT
BRANCH   2   4
HETATM    4  O   UNL     1      -8.151   4.457  65.603  1.00  0.00    -0.103 OA 
BRANCH   4   5
HETATM    5  C   UNL     1      -7.519   5.659  65.469  1.00  0.00    -0.074 C  
HETATM    6  O   UNL     1      -6.749   5.957  64.564  1.00  0.00    -0.043 OA 
BRANCH   5   7
HETATM    7  C   UNL     1      -7.894   6.561  66.617  1.00  0.00    -0.104 C  
BRANCH   7   8
HETATM    8  C   UNL     1      -8.139   7.990  66.129  1.00  0.00    -0.111 C  
BRANCH   8   9
HETATM    9  C   UNL     1      -9.620   8.334  65.996  1.00  0.00    -0.151 C  
BRANCH   9  10
HETATM   10  C   UNL     1      -9.841   9.749  65.540  1.00  0.00    -0.378 C  
HETATM   11  C   UNL     1      -9.122  10.827  65.894  1.00  0.00    -0.208 C  
BRANCH  11  12
HETATM   12  C   UNL     1      -7.927  10.851  66.803  1.00  0.00    -0.143 C  
BRANCH  12  13
HETATM   13  C   UNL     1      -7.964  11.884  67.942  1.00  0.00    -0.144 C  
HETATM   14  C   UNL     1      -6.548  12.390  68.272  1.00  0.00    -0.063 C  
HETATM   15  C   UNL     1      -6.808  13.617  69.125  1.00  0.00    -0.095 C  
HETATM   16  O   UNL     1      -5.851  12.811  67.099  1.00  0.00    -0.345 OA 
HETATM   17  C   UNL     1      -7.971  14.298  68.411  1.00  0.00    -0.143 C  
HETATM   18  H   UNL     1      -4.977  13.122  67.302  1.00  0.00     0.000 HD 
HETATM   19  C   UNL     1      -8.741  13.192  67.642  1.00  0.00    -0.192 C  
HETATM   20  O   UNL     1      -7.480  15.256  67.475  1.00  0.00    -0.155 OA 
HETATM   21  H   UNL     1      -8.205  15.680  67.031  1.00  0.00     0.000 HD 
BRANCH  19  22
HETATM   22  C   UNL     1     -10.217  13.132  68.079  1.00  0.00    -0.233 C  
BRANCH  22  23
HETATM   23  C   UNL     1     -11.114  13.839  67.059  1.00  0.00    -0.313 C  
BRANCH  23  24
HETATM   24  C   UNL     1     -10.385  14.330  65.803  1.00  0.00    -0.327 C  
HETATM   25  O   UNL     1     -11.022  13.812  64.635  1.00  0.00    -0.367 OA 
HETATM   26  H   UNL     1     -10.570  14.116  63.857  1.00  0.00     0.000 HD 
BRANCH  24  27
HETATM   27  C   UNL     1     -10.420  15.862  65.697  1.00  0.00    -0.411 C  
BRANCH  27  28
HETATM   28  C   UNL     1     -10.780  16.541  67.019  1.00  0.00    -0.191 C  
BRANCH  28  29
HETATM   29  C   UNL     1     -10.204  17.927  67.123  1.00  0.00    -0.355 A  
HETATM   30  C   UNL     1      -9.391  18.270  68.212  1.00  0.00    -0.320 A  
HETATM   31  C   UNL     1      -8.850  19.551  68.312  1.00  0.00    -0.383 A  
HETATM   32  C   UNL     1      -9.121  20.500  67.328  1.00  0.00    -0.473 A  
HETATM   33  C   UNL     1      -9.936  20.170  66.246  1.00  0.00    -0.557 A  
HETATM   34  C   UNL     1     -10.479  18.888  66.144  1.00  0.00    -0.521 A  
ENDBRANCH  28  29
ENDBRANCH  27  28
ENDBRANCH  24  27
ENDBRANCH  23  24
ENDBRANCH  22  23
ENDBRANCH  19  22
ENDBRANCH  12  13
ENDBRANCH  11  12
ENDBRANCH   9  10
ENDBRANCH   8   9
ENDBRANCH   7   8
ENDBRANCH   5   7
ENDBRANCH   4   5
ENDBRANCH   2   4
TORSDOF 14
ENDMDL
MODEL      327
REMARK 921   NORMALIZED FREE ENERGY PREDICTED BY IDOCK:   -2.78 KCAL/MOL
REMARK 922        TOTAL FREE ENERGY PREDICTED BY IDOCK:   -8.34 KCAL/MOL
REMARK 923 INTER-LIGAND FREE ENERGY PREDICTED BY IDOCK:   -6.15 KCAL/MOL
REMARK 924 INTRA-LIGAND FREE ENERGY PREDICTED BY IDOCK:   -2.20 KCAL/MOL
REMARK 927      BINDING AFFINITY PREDICTED BY RF-SCORE:    0.00 PKD
ROOT
HETATM    1  C   UNL     1     -10.593   2.044  72.893  1.00  0.00    -0.241 C  
HETATM    2  C   UNL     1      -9.824   3.358  72.817  1.00  0.00    -0.140 C  
HETATM    3  C   UNL     1     -10.779   4.545  72.838  1.00  0.00    -0.281 C  
ENDROOT
BRANCH   2   4
HETATM    4  O   UNL     1      -8.961   3.476  73.963  1.00  0.00    -0.087 OA 
BRANCH   4   5
HETATM    5  C   UNL     1      -7.897   4.315  73.805  1.00  0.00    -0.085 C  
HETATM    6  O   UNL     1      -7.615   5.248  74.546  1.00  0.00    -0.088 OA 
BRANCH   5   7
HETATM    7  C   UNL     1      -7.132   3.935  72.563  1.00  0.00    -0.055 C  
BRANCH   7   8
HETATM    8  C   UNL     1      -5.899   4.825  72.390  1.00  0.00    -0.012 C  
BRANCH   8   9
HETATM    9  C   UNL     1      -6.020   5.798  71.220  1.00  0.00    -0.029 C  
BRANCH   9  10
HETATM   10  C   UNL     1      -6.823   7.018  71.571  1.00  0.00    -0.064 C  
HETATM   11  C   UNL     1      -8.058   7.319  71.135  1.00  0.00    -0.102 C  
BRANCH  11  12
HETATM   12  C   UNL     1      -8.915   6.488  70.223  1.00  0.00    -0.155 C  
BRANCH  12  13
HETATM   13  C   UNL     1      -8.815   6.812  68.722  1.00  0.00    -0.131 C  
HETATM   14  C   UNL     1      -8.856   5.525  67.878  1.00  0.00    -0.105 C  
HETATM   15  C   UNL     1      -9.107   6.040  66.474  1.00  0.00    -0.153 C  
HETATM   16  O   UNL     1      -9.957   4.691  68.243  1.00  0.00    -0.136 OA 
HETATM   17  C   UNL     1     -10.151   7.132  66.683  1.00  0.00    -0.159 C  
HETATM   18  H   UNL     1      -9.982   3.897  67.722  1.00  0.00     0.000 HD 
HETATM   19  C   UNL     1      -9.975   7.654  68.134  1.00  0.00    -0.203 C  
HETATM   20  O   UNL     1     -11.463   6.591  66.541  1.00  0.00    -0.610 OA 
HETATM   21  H   UNL     1     -12.112   7.271  66.671  1.00  0.00     0.000 HD 
BRANCH  19  22
HETATM   22  C   UNL     1      -9.694   9.168  68.152  1.00  0.00    -0.174 C  
BRANCH  22  23
HETATM   23  C   UNL     1     -10.640   9.885  69.120  1.00  0.00    -0.240 C  
BRANCH  23  24
HETATM   24  C   UNL     1     -11.396  11.070  68.510  1.00  0.00    -0.287 C  
HETATM   25  O   UNL     1     -12.453  11.476  69.380  1.00  0.00    -0.155 OA 
HETATM   26  H   UNL     1     -12.922  12.210  69.002  1.00  0.00     0.000 HD 
BRANCH  24  27
HETATM   27  C   UNL     1     -10.475  12.285  68.319  1.00  0.00    -0.236 C  
BRANCH  27  28
HETATM   28  C   UNL     1     -11.029  13.301  67.321  1.00  0.00    -0.284 C  
BRANCH  28  29
HETATM   29  C   UNL     1     -11.395  12.667  66.006  1.00  0.00    -0.369 A  
HETATM   30  C   UNL     1     -12.661  12.890  65.447  1.00  0.00    -0.440 A  
HETATM   31  C   UNL     1     -13.004  12.310  64.227  1.00  0.00    -0.237 A  
HETATM   32  C   UNL     1     -12.089  11.498  63.560  1.00  0.00    -0.170 A  
HETATM   33  C   UNL     1     -10.832  11.262  64.114  1.00  0.00    -0.407 A  
HETATM   34  C   UNL     1     -10.486  11.843  65.335  1.00  0.00    -0.312 A  
ENDBRANCH  28  29
ENDBRANCH  27  28
ENDBRANCH  24  27
ENDBRANCH  23  24
ENDBRANCH  22  23
ENDBRANCH  19  22
ENDBRANCH  12  13
ENDBRANCH  11  12
ENDBRANCH   9  10
ENDBRANCH   8   9
ENDBRANCH   7   8
ENDBRANCH   5   7
ENDBRANCH   4   5
ENDBRANCH   2   4
TORSDOF 14
ENDMDL
MODEL      328
REMARK 921   NORMALIZED FREE ENERGY PREDICTED BY IDOCK:   -2.77 KCAL/MOL
REMARK 922        TOTAL FREE ENERGY PREDICTED BY IDOCK:   -8.33 KCAL/MOL
REMARK 923 INTER-LIGAND FREE ENERGY PREDICTED BY IDOCK:   -7.12 KCAL/MOL
REMARK 924 INTRA-LIGAND FREE ENERGY PREDICTED BY IDOCK:   -1.20 KCAL/MOL
REMARK 927      BINDING AFFINITY PREDICTED BY RF-SCORE:    0.00 PKD
ROOT
HETATM    1  C   UNL     1      -7.034   5.987  70.181  1.00  0.00    -0.069 C  
HETATM    2  C   UNL     1      -6.809   6.032  68.674  1.00  0.00    -0.070 C  
HETATM    3  C   UNL     1      -8.094   6.407  67.947  1.00  0.00    -0.115 C  
ENDROOT
BRANCH   2   4
HETATM    4  O   UNL     1      -5.828   7.040  68.366  1.00  0.00    -0.020 OA 
BRANCH   4   5
HETATM    5  C   UNL     1      -6.160   8.308  68.744  1.00  0.00    -0.044 C  
HETATM    6  O   UNL     1      -6.742   8.608  69.779  1.00  0.00    -0.041 OA 
BRANCH   5   7
HETATM    7  C   UNL     1      -5.723   9.285  67.684  1.00  0.00    -0.041 C  
BRANCH   7   8
HETATM    8  C   UNL     1      -6.565   9.127  66.417  1.00  0.00    -0.067 C  
BRANCH   8   9
HETATM    9  C   UNL     1      -7.561  10.266  66.212  1.00  0.00    -0.117 C  
BRANCH   9  10
HETATM   10  C   UNL     1      -8.940   9.914  66.695  1.00  0.00    -0.157 C  
HETATM   11  C   UNL     1     -10.082  10.558  66.400  1.00  0.00    -0.285 C  
BRANCH  11  12
HETATM   12  C   UNL     1     -10.233  11.754  65.505  1.00  0.00    -0.291 C  
BRANCH  12  13
HETATM   13  C   UNL     1     -10.287  13.121  66.207  1.00  0.00    -0.291 C  
HETATM   14  C   UNL     1     -11.713  13.430  66.701  1.00  0.00    -0.385 C  
HETATM   15  C   UNL     1     -11.506  14.596  67.649  1.00  0.00    -0.364 C  
HETATM   16  O   UNL     1     -12.257  12.344  67.452  1.00  0.00    -0.459 OA 
HETATM   17  C   UNL     1     -10.246  14.205  68.414  1.00  0.00    -0.247 C  
HETATM   18  H   UNL     1     -13.137  12.535  67.756  1.00  0.00     0.000 HD 
HETATM   19  C   UNL     1      -9.435  13.254  67.495  1.00  0.00    -0.220 C  
HETATM   20  O   UNL     1     -10.595  13.508  69.609  1.00  0.00    -0.417 OA 
HETATM   21  H   UNL     1      -9.810  13.265  70.085  1.00  0.00     0.000 HD 
BRANCH  19  22
HETATM   22  C   UNL     1      -8.021  13.804  67.231  1.00  0.00    -0.135 C  
BRANCH  22  23
HETATM   23  C   UNL     1      -7.321  14.157  68.547  1.00  0.00    -0.120 C  
BRANCH  23  24
HETATM   24  C   UNL     1      -6.345  15.335  68.452  1.00  0.00    -0.107 C  
HETATM   25  O   UNL     1      -5.969  15.550  67.091  1.00  0.00    -0.318 OA 
HETATM   26  H   UNL     1      -5.365  16.280  67.032  1.00  0.00     0.000 HD 
BRANCH  24  27
HETATM   27  C   UNL     1      -6.987  16.637  68.956  1.00  0.00    -0.212 C  
BRANCH  27  28
HETATM   28  C   UNL     1      -6.770  17.814  68.005  1.00  0.00    -0.193 C  
BRANCH  28  29
HETATM   29  C   UNL     1      -8.066  18.449  67.580  1.00  0.00    -0.257 A  
HETATM   30  C   UNL     1      -9.278  18.003  68.124  1.00  0.00    -0.283 A  
HETATM   31  C   UNL     1     -10.483  18.591  67.739  1.00  0.00    -0.443 A  
HETATM   32  C   UNL     1     -10.485  19.624  66.804  1.00  0.00    -0.605 A  
HETATM   33  C   UNL     1      -9.285  20.067  66.250  1.00  0.00    -0.426 A  
HETATM   34  C   UNL     1      -8.078  19.480  66.635  1.00  0.00    -0.324 A  
ENDBRANCH  28  29
ENDBRANCH  27  28
ENDBRANCH  24  27
ENDBRANCH  23  24
ENDBRANCH  22  23
ENDBRANCH  19  22
ENDBRANCH  12  13
ENDBRANCH  11  12
ENDBRANCH   9  10
ENDBRANCH   8   9
ENDBRANCH   7   8
ENDBRANCH   5   7
ENDBRANCH   4   5
ENDBRANCH   2   4
TORSDOF 14
ENDMDL
MODEL      329
REMARK 921   NORMALIZED FREE ENERGY PREDICTED BY IDOCK:   -2.76 KCAL/MOL
REMARK 922        TOTAL FREE ENERGY PREDICTED BY IDOCK:   -8.31 KCAL/MOL
REMARK 923 INTER-LIGAND FREE ENERGY PREDICTED BY IDOCK:   -6.53 KCAL/MOL
REMARK 924 INTRA-LIGAND FREE ENERGY PREDICTED BY IDOCK:   -1.78 KCAL/MOL
REMARK 927      BINDING AFFINITY PREDICTED BY RF-SCORE:    0.00 PKD
ROOT
HETATM    1  C   UNL     1      -8.480   2.258  68.256  1.00  0.00    -0.093 C  
HETATM    2  C   UNL     1      -7.198   2.713  67.568  1.00  0.00    -0.053 C  
HETATM    3  C   UNL     1      -7.466   3.908  66.663  1.00  0.00    -0.080 C  
ENDROOT
BRANCH   2   4
HETATM    4  O   UNL     1      -6.243   3.129  68.562  1.00  0.00    -0.027 OA 
BRANCH   4   5
HETATM    5  C   UNL     1      -6.498   4.337  69.142  1.00  0.00    -0.036 C  
HETATM    6  O   UNL     1      -6.109   5.420  68.724  1.00  0.00    -0.020 OA 
BRANCH   5   7
HETATM    7  C   UNL     1      -7.315   4.137  70.393  1.00  0.00    -0.045 C  
BRANCH   7   8
HETATM    8  C   UNL     1      -6.770   4.989  71.541  1.00  0.00    -0.040 C  
BRANCH   8   9
HETATM    9  C   UNL     1      -7.746   6.066  72.007  1.00  0.00    -0.098 C  
BRANCH   9  10
HETATM   10  C   UNL     1      -7.279   7.451  71.656  1.00  0.00    -0.071 C  
HETATM   11  C   UNL     1      -7.910   8.334  70.864  1.00  0.00    -0.091 C  
BRANCH  11  12
HETATM   12  C   UNL     1      -9.231   8.140  70.177  1.00  0.00    -0.155 C  
BRANCH  12  13
HETATM   13  C   UNL     1      -9.308   6.970  69.181  1.00  0.00    -0.140 C  
HETATM   14  C   UNL     1     -10.536   6.085  69.467  1.00  0.00    -0.266 C  
HETATM   15  C   UNL     1     -10.649   5.236  68.215  1.00  0.00    -0.074 C  
HETATM   16  O   UNL     1     -11.729   6.860  69.581  1.00  0.00    -0.587 OA 
HETATM   17  C   UNL     1     -10.374   6.229  67.092  1.00  0.00    -0.229 C  
HETATM   18  H   UNL     1     -12.487   6.314  69.758  1.00  0.00     0.000 HD 
HETATM   19  C   UNL     1      -9.498   7.361  67.693  1.00  0.00    -0.156 C  
HETATM   20  O   UNL     1     -11.598   6.791  66.623  1.00  0.00    -0.561 OA 
HETATM   21  H   UNL     1     -11.426   7.410  65.923  1.00  0.00     0.000 HD 
BRANCH  19  22
HETATM   22  C   UNL     1      -8.168   7.503  66.930  1.00  0.00    -0.124 C  
BRANCH  22  23
HETATM   23  C   UNL     1      -7.693   8.959  66.932  1.00  0.00    -0.098 C  
BRANCH  23  24
HETATM   24  C   UNL     1      -8.364   9.848  65.878  1.00  0.00    -0.123 C  
HETATM   25  O   UNL     1      -9.146   9.048  64.991  1.00  0.00    -0.354 OA 
HETATM   26  H   UNL     1      -9.562   9.599  64.338  1.00  0.00     0.000 HD 
BRANCH  24  27
HETATM   27  C   UNL     1      -9.314  10.867  66.527  1.00  0.00    -0.195 C  
BRANCH  27  28
HETATM   28  C   UNL     1     -10.771  10.674  66.106  1.00  0.00    -0.146 C  
BRANCH  28  29
HETATM   29  C   UNL     1     -11.326  11.884  65.406  1.00  0.00    -0.334 A  
HETATM   30  C   UNL     1     -11.467  11.886  64.011  1.00  0.00    -0.480 A  
HETATM   31  C   UNL     1     -11.986  13.002  63.357  1.00  0.00    -0.592 A  
HETATM   32  C   UNL     1     -12.362  14.126  64.089  1.00  0.00    -0.372 A  
HETATM   33  C   UNL     1     -12.216  14.137  65.476  1.00  0.00    -0.443 A  
HETATM   34  C   UNL     1     -11.697  13.020  66.133  1.00  0.00    -0.445 A  
ENDBRANCH  28  29
ENDBRANCH  27  28
ENDBRANCH  24  27
ENDBRANCH  23  24
ENDBRANCH  22  23
ENDBRANCH  19  22
ENDBRANCH  12  13
ENDBRANCH  11  12
ENDBRANCH   9  10
ENDBRANCH   8   9
ENDBRANCH   7   8
ENDBRANCH   5   7
ENDBRANCH   4   5
ENDBRANCH   2   4
TORSDOF 14
ENDMDL
MODEL      330
REMARK 921   NORMALIZED FREE ENERGY PREDICTED BY IDOCK:   -2.74 KCAL/MOL
REMARK 922        TOTAL FREE ENERGY PREDICTED BY IDOCK:   -8.27 KCAL/MOL
REMARK 923 INTER-LIGAND FREE ENERGY PREDICTED BY IDOCK:   -6.79 KCAL/MOL
REMARK 924 INTRA-LIGAND FREE ENERGY PREDICTED BY IDOCK:   -1.48 KCAL/MOL
REMARK 927      BINDING AFFINITY PREDICTED BY RF-SCORE:    0.00 PKD
ROOT
HETATM    1  C   UNL     1     -13.513   6.597  71.836  1.00  0.00    -0.031 C  
HETATM    2  C   UNL     1     -13.089   7.926  71.222  1.00  0.00    -0.184 C  
HETATM    3  C   UNL     1     -13.139   9.041  72.258  1.00  0.00    -0.508 C  
ENDROOT
BRANCH   2   4
HETATM    4  O   UNL     1     -11.730   7.827  70.757  1.00  0.00    -0.284 OA 
BRANCH   4   5
HETATM    5  C   UNL     1     -10.775   7.959  71.724  1.00  0.00    -0.232 C  
HETATM    6  O   UNL     1     -10.550   7.146  72.612  1.00  0.00    -0.223 OA 
BRANCH   5   7
HETATM    7  C   UNL     1     -10.053   9.270  71.549  1.00  0.00    -0.306 C  
BRANCH   7   8
HETATM    8  C   UNL     1      -8.707   9.061  70.852  1.00  0.00    -0.280 C  
BRANCH   8   9
HETATM    9  C   UNL     1      -8.778   9.246  69.339  1.00  0.00    -0.148 C  
BRANCH   9  10
HETATM   10  C   UNL     1      -8.646  10.687  68.932  1.00  0.00    -0.158 C  
HETATM   11  C   UNL     1      -9.390  11.334  68.020  1.00  0.00    -0.166 C  
BRANCH  11  12
HETATM   12  C   UNL     1     -10.532  10.767  67.226  1.00  0.00    -0.282 C  
BRANCH  12  13
HETATM   13  C   UNL     1     -10.160  10.096  65.893  1.00  0.00    -0.325 C  
HETATM   14  C   UNL     1     -10.313  11.081  64.720  1.00  0.00    -0.324 C  
HETATM   15  C   UNL     1      -9.583  10.387  63.586  1.00  0.00    -0.364 C  
HETATM   16  O   UNL     1      -9.647  12.317  64.979  1.00  0.00    -0.445 OA 
HETATM   17  C   UNL     1      -8.338   9.826  64.264  1.00  0.00    -0.167 C  
HETATM   18  H   UNL     1      -9.742  12.925  64.255  1.00  0.00     0.000 HD 
HETATM   19  C   UNL     1      -8.690   9.622  65.762  1.00  0.00    -0.168 C  
HETATM   20  O   UNL     1      -7.263  10.759  64.165  1.00  0.00    -0.339 OA 
HETATM   21  H   UNL     1      -6.488  10.409  64.588  1.00  0.00     0.000 HD 
BRANCH  19  22
HETATM   22  C   UNL     1      -8.487   8.156  66.188  1.00  0.00    -0.143 C  
BRANCH  22  23
HETATM   23  C   UNL     1      -9.832   7.437  66.321  1.00  0.00    -0.042 C  
BRANCH  23  24
HETATM   24  C   UNL     1     -10.075   6.791  67.690  1.00  0.00    -0.161 C  
HETATM   25  O   UNL     1     -11.443   6.946  68.068  1.00  0.00    -0.527 OA 
HETATM   26  H   UNL     1     -11.594   6.545  68.916  1.00  0.00     0.000 HD 
BRANCH  24  27
HETATM   27  C   UNL     1      -9.782   5.283  67.658  1.00  0.00    -0.168 C  
BRANCH  27  28
HETATM   28  C   UNL     1     -10.175   4.629  66.333  1.00  0.00    -0.293 C  
BRANCH  28  29
HETATM   29  C   UNL     1      -8.992   4.033  65.619  1.00  0.00    -0.131 A  
HETATM   30  C   UNL     1      -8.836   4.224  64.239  1.00  0.00    -0.145 A  
HETATM   31  C   UNL     1      -7.740   3.679  63.572  1.00  0.00    -0.067 A  
HETATM   32  C   UNL     1      -6.795   2.936  64.277  1.00  0.00    -0.036 A  
HETATM   33  C   UNL     1      -6.947   2.733  65.648  1.00  0.00    -0.052 A  
HETATM   34  C   UNL     1      -8.044   3.279  66.317  1.00  0.00    -0.092 A  
ENDBRANCH  28  29
ENDBRANCH  27  28
ENDBRANCH  24  27
ENDBRANCH  23  24
ENDBRANCH  22  23
ENDBRANCH  19  22
ENDBRANCH  12  13
ENDBRANCH  11  12
ENDBRANCH   9  10
ENDBRANCH   8   9
ENDBRANCH   7   8
ENDBRANCH   5   7
ENDBRANCH   4   5
ENDBRANCH   2   4
TORSDOF 14
ENDMDL
MODEL      331
REMARK 921   NORMALIZED FREE ENERGY PREDICTED BY IDOCK:   -2.72 KCAL/MOL
REMARK 922        TOTAL FREE ENERGY PREDICTED BY IDOCK:   -8.24 KCAL/MOL
REMARK 923 INTER-LIGAND FREE ENERGY PREDICTED BY IDOCK:   -6.88 KCAL/MOL
REMARK 924 INTRA-LIGAND FREE ENERGY PREDICTED BY IDOCK:   -1.37 KCAL/MOL
REMARK 927      BINDING AFFINITY PREDICTED BY RF-SCORE:    0.00 PKD
ROOT
HETATM    1  C   UNL     1      -6.749   5.100  72.857  1.00  0.00    -0.067 C  
HETATM    2  C   UNL     1      -8.014   4.419  72.348  1.00  0.00    -0.092 C  
HETATM    3  C   UNL     1      -9.184   4.679  73.288  1.00  0.00    -0.121 C  
ENDROOT
BRANCH   2   4
HETATM    4  O   UNL     1      -8.365   4.960  71.061  1.00  0.00    -0.103 OA 
BRANCH   4   5
HETATM    5  C   UNL     1      -9.574   4.557  70.572  1.00  0.00    -0.204 C  
HETATM    6  O   UNL     1     -10.610   5.208  70.624  1.00  0.00    -0.233 OA 
BRANCH   5   7
HETATM    7  C   UNL     1      -9.447   3.178  69.978  1.00  0.00    -0.219 C  
BRANCH   7   8
HETATM    8  C   UNL     1      -9.395   3.246  68.450  1.00  0.00    -0.241 C  
BRANCH   8   9
HETATM    9  C   UNL     1      -8.075   3.799  67.919  1.00  0.00    -0.084 C  
BRANCH   9  10
HETATM   10  C   UNL     1      -8.098   4.003  66.430  1.00  0.00    -0.098 C  
HETATM   11  C   UNL     1      -7.523   5.008  65.749  1.00  0.00    -0.082 C  
BRANCH  11  12
HETATM   12  C   UNL     1      -6.711   6.133  66.324  1.00  0.00    -0.060 C  
BRANCH  12  13
HETATM   13  C   UNL     1      -7.475   7.437  66.616  1.00  0.00    -0.088 C  
HETATM   14  C   UNL     1      -8.133   7.986  65.337  1.00  0.00    -0.135 C  
HETATM   15  C   UNL     1      -9.104   9.025  65.866  1.00  0.00    -0.264 C  
HETATM   16  O   UNL     1      -8.890   6.982  64.660  1.00  0.00    -0.278 OA 
HETATM   17  C   UNL     1      -9.710   8.346  67.089  1.00  0.00    -0.190 C  
HETATM   18  H   UNL     1      -9.296   7.321  63.871  1.00  0.00     0.000 HD 
HETATM   19  C   UNL     1      -8.668   7.315  67.598  1.00  0.00    -0.125 C  
HETATM   20  O   UNL     1     -10.904   7.655  66.726  1.00  0.00    -0.453 OA 
HETATM   21  H   UNL     1     -11.281   7.232  67.488  1.00  0.00     0.000 HD 
BRANCH  19  22
HETATM   22  C   UNL     1      -8.277   7.593  69.062  1.00  0.00    -0.127 C  
BRANCH  22  23
HETATM   23  C   UNL     1      -9.029   8.813  69.603  1.00  0.00    -0.145 C  
BRANCH  23  24
HETATM   24  C   UNL     1     -10.060   8.492  70.692  1.00  0.00    -0.192 C  
HETATM   25  O   UNL     1      -9.705   9.150  71.909  1.00  0.00    -0.282 OA 
HETATM   26  H   UNL     1     -10.344   8.952  72.583  1.00  0.00     0.000 HD 
BRANCH  24  27
HETATM   27  C   UNL     1     -11.460   8.987  70.300  1.00  0.00    -0.147 C  
BRANCH  27  28
HETATM   28  C   UNL     1     -11.906  10.209  71.104  1.00  0.00    -0.472 C  
BRANCH  28  29
HETATM   29  C   UNL     1     -11.948  11.458  70.266  1.00  0.00    -0.460 A  
HETATM   30  C   UNL     1     -12.212  12.697  70.866  1.00  0.00    -0.280 A  
HETATM   31  C   UNL     1     -12.248  13.859  70.096  1.00  0.00    -0.425 A  
HETATM   32  C   UNL     1     -12.026  13.790  68.723  1.00  0.00    -0.400 A  
HETATM   33  C   UNL     1     -11.773  12.561  68.116  1.00  0.00    -0.400 A  
HETATM   34  C   UNL     1     -11.736  11.397  68.885  1.00  0.00    -0.409 A  
ENDBRANCH  28  29
ENDBRANCH  27  28
ENDBRANCH  24  27
ENDBRANCH  23  24
ENDBRANCH  22  23
ENDBRANCH  19  22
ENDBRANCH  12  13
ENDBRANCH  11  12
ENDBRANCH   9  10
ENDBRANCH   8   9
ENDBRANCH   7   8
ENDBRANCH   5   7
ENDBRANCH   4   5
ENDBRANCH   2   4
TORSDOF 14
ENDMDL
MODEL      332
REMARK 921   NORMALIZED FREE ENERGY PREDICTED BY IDOCK:   -2.70 KCAL/MOL
REMARK 922        TOTAL FREE ENERGY PREDICTED BY IDOCK:   -8.21 KCAL/MOL
REMARK 923 INTER-LIGAND FREE ENERGY PREDICTED BY IDOCK:   -7.85 KCAL/MOL
REMARK 924 INTRA-LIGAND FREE ENERGY PREDICTED BY IDOCK:   -0.35 KCAL/MOL
REMARK 927      BINDING AFFINITY PREDICTED BY RF-SCORE:    0.00 PKD
ROOT
HETATM    1  C   UNL     1      -7.823   9.432  65.921  1.00  0.00    -0.099 C  
HETATM    2  C   UNL     1      -7.529   8.303  66.902  1.00  0.00    -0.088 C  
HETATM    3  C   UNL     1      -6.144   7.720  66.657  1.00  0.00    -0.048 C  
ENDROOT
BRANCH   2   4
HETATM    4  O   UNL     1      -7.551   8.817  68.246  1.00  0.00    -0.093 OA 
BRANCH   4   5
HETATM    5  C   UNL     1      -6.766   9.913  68.460  1.00  0.00    -0.055 C  
HETATM    6  O   UNL     1      -5.613  10.045  68.068  1.00  0.00    -0.039 OA 
BRANCH   5   7
HETATM    7  C   UNL     1      -7.524  10.930  69.274  1.00  0.00    -0.124 C  
BRANCH   7   8
HETATM    8  C   UNL     1      -7.270  12.345  68.749  1.00  0.00    -0.094 C  
BRANCH   8   9
HETATM    9  C   UNL     1      -7.969  12.628  67.422  1.00  0.00    -0.177 C  
BRANCH   9  10
HETATM   10  C   UNL     1      -8.150  14.099  67.173  1.00  0.00    -0.139 C  
HETATM   11  C   UNL     1      -9.181  14.860  67.576  1.00  0.00    -0.194 C  
BRANCH  11  12
HETATM   12  C   UNL     1     -10.365  14.412  68.385  1.00  0.00    -0.244 C  
BRANCH  12  13
HETATM   13  C   UNL     1     -11.432  13.602  67.630  1.00  0.00    -0.357 C  
HETATM   14  C   UNL     1     -11.866  14.330  66.344  1.00  0.00    -0.411 C  
HETATM   15  C   UNL     1     -12.617  13.258  65.576  1.00  0.00    -0.505 C  
HETATM   16  O   UNL     1     -10.742  14.727  65.558  1.00  0.00    -0.315 OA 
HETATM   17  C   UNL     1     -11.757  12.015  65.779  1.00  0.00    -0.245 C  
HETATM   18  H   UNL     1     -11.010  15.176  64.764  1.00  0.00     0.000 HD 
HETATM   19  C   UNL     1     -10.984  12.212  67.110  1.00  0.00    -0.316 C  
HETATM   20  O   UNL     1     -10.818  11.889  64.713  1.00  0.00    -0.287 OA 
HETATM   21  H   UNL     1     -10.282  11.115  64.840  1.00  0.00     0.000 HD 
BRANCH  19  22
HETATM   22  C   UNL     1     -11.280  11.071  68.102  1.00  0.00    -0.364 C  
BRANCH  22  23
HETATM   23  C   UNL     1     -12.380  11.479  69.086  1.00  0.00    -0.069 C  
BRANCH  23  24
HETATM   24  C   UNL     1     -11.912  11.619  70.540  1.00  0.00    -0.319 C  
HETATM   25  O   UNL     1     -12.004  12.983  70.953  1.00  0.00    -0.476 OA 
HETATM   26  H   UNL     1     -11.714  13.070  71.853  1.00  0.00     0.000 HD 
BRANCH  24  27
HETATM   27  C   UNL     1     -12.791  10.796  71.493  1.00  0.00    -0.567 C  
BRANCH  27  28
HETATM   28  C   UNL     1     -13.078   9.388  70.971  1.00  0.00    -0.214 C  
BRANCH  28  29
HETATM   29  C   UNL     1     -12.038   8.394  71.411  1.00  0.00    -0.337 A  
HETATM   30  C   UNL     1     -12.190   7.035  71.103  1.00  0.00    -0.427 A  
HETATM   31  C   UNL     1     -11.227   6.110  71.503  1.00  0.00    -0.346 A  
HETATM   32  C   UNL     1     -10.110   6.533  72.218  1.00  0.00    -0.191 A  
HETATM   33  C   UNL     1      -9.955   7.882  72.538  1.00  0.00    -0.312 A  
HETATM   34  C   UNL     1     -10.917   8.810  72.138  1.00  0.00    -0.404 A  
ENDBRANCH  28  29
ENDBRANCH  27  28
ENDBRANCH  24  27
ENDBRANCH  23  24
ENDBRANCH  22  23
ENDBRANCH  19  22
ENDBRANCH  12  13
ENDBRANCH  11  12
ENDBRANCH   9  10
ENDBRANCH   8   9
ENDBRANCH   7   8
ENDBRANCH   5   7
ENDBRANCH   4   5
ENDBRANCH   2   4
TORSDOF 14
ENDMDL
MODEL      333
REMARK 921   NORMALIZED FREE ENERGY PREDICTED BY IDOCK:   -2.70 KCAL/MOL
REMARK 922        TOTAL FREE ENERGY PREDICTED BY IDOCK:   -8.20 KCAL/MOL
REMARK 923 INTER-LIGAND FREE ENERGY PREDICTED BY IDOCK:   -7.09 KCAL/MOL
REMARK 924 INTRA-LIGAND FREE ENERGY PREDICTED BY IDOCK:   -1.11 KCAL/MOL
REMARK 927      BINDING AFFINITY PREDICTED BY RF-SCORE:    0.00 PKD
ROOT
HETATM    1  C   UNL     1      -6.751  10.689  68.660  1.00  0.00    -0.057 C  
HETATM    2  C   UNL     1      -6.789  11.940  67.790  1.00  0.00    -0.094 C  
HETATM    3  C   UNL     1      -5.469  12.127  67.054  1.00  0.00    -0.066 C  
ENDROOT
BRANCH   2   4
HETATM    4  O   UNL     1      -7.823  11.802  66.797  1.00  0.00    -0.157 OA 
BRANCH   4   5
HETATM    5  C   UNL     1      -7.994  10.539  66.310  1.00  0.00    -0.144 C  
HETATM    6  O   UNL     1      -7.091   9.766  66.015  1.00  0.00    -0.094 OA 
BRANCH   5   7
HETATM    7  C   UNL     1      -9.465  10.245  66.166  1.00  0.00    -0.229 C  
BRANCH   7   8
HETATM    8  C   UNL     1      -9.908  10.384  64.709  1.00  0.00    -0.406 C  
BRANCH   8   9
HETATM    9  C   UNL     1     -10.971  11.461  64.504  1.00  0.00    -0.346 C  
BRANCH   9  10
HETATM   10  C   UNL     1     -10.387  12.845  64.482  1.00  0.00    -0.380 C  
HETATM   11  C   UNL     1     -10.721  13.869  65.285  1.00  0.00    -0.352 C  
BRANCH  11  12
HETATM   12  C   UNL     1     -11.732  13.847  66.395  1.00  0.00    -0.403 C  
BRANCH  12  13
HETATM   13  C   UNL     1     -11.166  13.759  67.823  1.00  0.00    -0.312 C  
HETATM   14  C   UNL     1     -10.347  15.016  68.168  1.00  0.00    -0.239 C  
HETATM   15  C   UNL     1     -10.184  14.922  69.673  1.00  0.00    -0.112 C  
HETATM   16  O   UNL     1     -11.070  16.213  67.878  1.00  0.00    -0.340 OA 
HETATM   17  C   UNL     1     -11.561  14.466  70.145  1.00  0.00    -0.265 C  
HETATM   18  H   UNL     1     -10.564  16.989  68.091  1.00  0.00     0.000 HD 
HETATM   19  C   UNL     1     -12.215  13.702  68.963  1.00  0.00    -0.245 C  
HETATM   20  O   UNL     1     -12.368  15.597  70.468  1.00  0.00    -0.397 OA 
HETATM   21  H   UNL     1     -13.225  15.312  70.763  1.00  0.00     0.000 HD 
BRANCH  19  22
HETATM   22  C   UNL     1     -12.591  12.264  69.368  1.00  0.00     0.448 C  
BRANCH  22  23
HETATM   23  C   UNL     1     -11.728  11.786  70.540  1.00  0.00    -0.146 C  
BRANCH  23  24
HETATM   24  C   UNL     1     -10.967  10.482  70.277  1.00  0.00    -0.235 C  
HETATM   25  O   UNL     1      -9.614  10.769  69.920  1.00  0.00    -0.360 OA 
HETATM   26  H   UNL     1      -9.142   9.961  69.758  1.00  0.00     0.000 HD 
BRANCH  24  27
HETATM   27  C   UNL     1     -10.926   9.595  71.531  1.00  0.00    -0.266 C  
BRANCH  27  28
HETATM   28  C   UNL     1     -11.351   8.153  71.253  1.00  0.00    -0.300 C  
BRANCH  28  29
HETATM   29  C   UNL     1     -10.765   7.185  72.245  1.00  0.00    -0.252 A  
HETATM   30  C   UNL     1      -9.623   7.536  72.977  1.00  0.00    -0.268 A  
HETATM   31  C   UNL     1      -9.077   6.646  73.901  1.00  0.00    -0.181 A  
HETATM   32  C   UNL     1      -9.664   5.398  74.096  1.00  0.00    -0.170 A  
HETATM   33  C   UNL     1     -10.795   5.037  73.364  1.00  0.00    -0.360 A  
HETATM   34  C   UNL     1     -11.343   5.927  72.439  1.00  0.00    -0.358 A  
ENDBRANCH  28  29
ENDBRANCH  27  28
ENDBRANCH  24  27
ENDBRANCH  23  24
ENDBRANCH  22  23
ENDBRANCH  19  22
ENDBRANCH  12  13
ENDBRANCH  11  12
ENDBRANCH   9  10
ENDBRANCH   8   9
ENDBRANCH   7   8
ENDBRANCH   5   7
ENDBRANCH   4   5
ENDBRANCH   2   4
TORSDOF 14
ENDMDL
MODEL      334
REMARK 921   NORMALIZED FREE ENERGY PREDICTED BY IDOCK:   -2.70 KCAL/MOL
REMARK 922        TOTAL FREE ENERGY PREDICTED BY IDOCK:   -8.20 KCAL/MOL
REMARK 923 INTER-LIGAND FREE ENERGY PREDICTED BY IDOCK:   -6.56 KCAL/MOL
REMARK 924 INTRA-LIGAND FREE ENERGY PREDICTED BY IDOCK:   -1.64 KCAL/MOL
REMARK 927      BINDING AFFINITY PREDICTED BY RF-SCORE:    0.00 PKD
ROOT
HETATM    1  C   UNL     1      -5.712   5.335  70.526  1.00  0.00    -0.016 C  
HETATM    2  C   UNL     1      -6.937   5.646  69.674  1.00  0.00    -0.063 C  
HETATM    3  C   UNL     1      -8.144   5.947  70.553  1.00  0.00    -0.111 C  
ENDROOT
BRANCH   2   4
HETATM    4  O   UNL     1      -6.680   6.817  68.876  1.00  0.00    -0.049 OA 
BRANCH   4   5
HETATM    5  C   UNL     1      -7.774   7.588  68.609  1.00  0.00    -0.119 C  
HETATM    6  O   UNL     1      -8.657   7.310  67.807  1.00  0.00    -0.120 OA 
BRANCH   5   7
HETATM    7  C   UNL     1      -7.721   8.848  69.435  1.00  0.00    -0.093 C  
BRANCH   7   8
HETATM    8  C   UNL     1      -7.467  10.069  68.549  1.00  0.00    -0.086 C  
BRANCH   8   9
HETATM    9  C   UNL     1      -8.635  11.052  68.532  1.00  0.00    -0.158 C  
BRANCH   9  10
HETATM   10  C   UNL     1      -9.892  10.438  67.983  1.00  0.00    -0.170 C  
HETATM   11  C   UNL     1     -10.966  10.043  68.687  1.00  0.00    -0.247 C  
BRANCH  11  12
HETATM   12  C   UNL     1     -11.154  10.152  70.173  1.00  0.00    -0.378 C  
BRANCH  12  13
HETATM   13  C   UNL     1     -12.609  10.122  70.673  1.00  0.00    -0.353 C  
HETATM   14  C   UNL     1     -13.136   8.677  70.744  1.00  0.00     0.394 C  
HETATM   15  C   UNL     1     -14.401   8.810  71.570  1.00  0.00    -0.342 C  
HETATM   16  O   UNL     1     -12.238   7.822  71.452  1.00  0.00    -0.305 OA 
HETATM   17  C   UNL     1     -13.998   9.782  72.674  1.00  0.00     0.175 C  
HETATM   18  H   UNL     1     -12.563   6.930  71.495  1.00  0.00     0.000 HD 
HETATM   19  C   UNL     1     -12.840  10.650  72.112  1.00  0.00    -0.239 C  
HETATM   20  O   UNL     1     -13.527   9.063  73.812  1.00  0.00     0.049 OA 
HETATM   21  H   UNL     1     -13.275   9.669  74.499  1.00  0.00     0.000 HD 
BRANCH  19  22
HETATM   22  C   UNL     1     -13.193  12.148  72.158  1.00  0.00    -0.438 C  
BRANCH  22  23
HETATM   23  C   UNL     1     -12.771  12.845  70.861  1.00  0.00    -0.291 C  
BRANCH  23  24
HETATM   24  C   UNL     1     -12.458  14.338  71.015  1.00  0.00    -0.362 C  
HETATM   25  O   UNL     1     -11.519  14.534  72.073  1.00  0.00    -0.290 OA 
HETATM   26  H   UNL     1     -11.325  15.459  72.168  1.00  0.00     0.000 HD 
BRANCH  24  27
HETATM   27  C   UNL     1     -11.829  14.913  69.737  1.00  0.00    -0.356 C  
BRANCH  27  28
HETATM   28  C   UNL     1     -11.269  13.833  68.812  1.00  0.00    -0.303 C  
BRANCH  28  29
HETATM   29  C   UNL     1     -11.324  14.238  67.364  1.00  0.00    -0.349 A  
HETATM   30  C   UNL     1     -10.366  15.119  66.844  1.00  0.00    -0.272 A  
HETATM   31  C   UNL     1     -10.408  15.495  65.502  1.00  0.00    -0.419 A  
HETATM   32  C   UNL     1     -11.410  14.998  64.672  1.00  0.00    -0.357 A  
HETATM   33  C   UNL     1     -12.373  14.129  65.183  1.00  0.00    -0.460 A  
HETATM   34  C   UNL     1     -12.332  13.751  66.526  1.00  0.00    -0.432 A  
ENDBRANCH  28  29
ENDBRANCH  27  28
ENDBRANCH  24  27
ENDBRANCH  23  24
ENDBRANCH  22  23
ENDBRANCH  19  22
ENDBRANCH  12  13
ENDBRANCH  11  12
ENDBRANCH   9  10
ENDBRANCH   8   9
ENDBRANCH   7   8
ENDBRANCH   5   7
ENDBRANCH   4   5
ENDBRANCH   2   4
TORSDOF 14
ENDMDL
MODEL      335
REMARK 921   NORMALIZED FREE ENERGY PREDICTED BY IDOCK:   -2.67 KCAL/MOL
REMARK 922        TOTAL FREE ENERGY PREDICTED BY IDOCK:   -8.14 KCAL/MOL
REMARK 923 INTER-LIGAND FREE ENERGY PREDICTED BY IDOCK:   -5.42 KCAL/MOL
REMARK 924 INTRA-LIGAND FREE ENERGY PREDICTED BY IDOCK:   -2.72 KCAL/MOL
REMARK 927      BINDING AFFINITY PREDICTED BY RF-SCORE:    0.00 PKD
ROOT
HETATM    1  C   UNL     1      -9.869  11.084  63.385  1.00  0.00    -0.404 C  
HETATM    2  C   UNL     1     -10.731  12.158  64.038  1.00  0.00    -0.384 C  
HETATM    3  C   UNL     1     -12.153  12.115  63.494  1.00  0.00    -0.649 C  
ENDROOT
BRANCH   2   4
HETATM    4  O   UNL     1     -10.802  11.920  65.456  1.00  0.00    -0.280 OA 
BRANCH   4   5
HETATM    5  C   UNL     1      -9.761  11.208  65.977  1.00  0.00    -0.226 C  
HETATM    6  O   UNL     1      -8.645  11.655  66.211  1.00  0.00    -0.175 OA 
BRANCH   5   7
HETATM    7  C   UNL     1     -10.185   9.779  66.202  1.00  0.00    -0.278 C  
BRANCH   7   8
HETATM    8  C   UNL     1     -10.104   9.414  67.685  1.00  0.00    -0.262 C  
BRANCH   8   9
HETATM    9  C   UNL     1     -10.542  10.548  68.608  1.00  0.00    -0.226 C  
BRANCH   9  10
HETATM   10  C   UNL     1     -11.038  10.047  69.935  1.00  0.00    -0.336 C  
HETATM   11  C   UNL     1     -10.289   9.556  70.938  1.00  0.00    -0.372 C  
BRANCH  11  12
HETATM   12  C   UNL     1      -8.793   9.425  70.961  1.00  0.00    -0.092 C  
BRANCH  12  13
HETATM   13  C   UNL     1      -8.234   8.024  70.659  1.00  0.00    -0.114 C  
HETATM   14  C   UNL     1      -6.747   7.931  71.051  1.00  0.00    -0.038 C  
HETATM   15  C   UNL     1      -6.476   6.438  71.027  1.00  0.00    -0.049 C  
HETATM   16  O   UNL     1      -6.522   8.396  72.382  1.00  0.00    -0.074 OA 
HETATM   17  C   UNL     1      -7.721   5.846  71.680  1.00  0.00    -0.101 C  
HETATM   18  H   UNL     1      -5.605   8.339  72.623  1.00  0.00     0.000 HD 
HETATM   19  C   UNL     1      -8.877   6.855  71.448  1.00  0.00    -0.133 C  
HETATM   20  O   UNL     1      -7.514   5.695  73.083  1.00  0.00    -0.094 OA 
HETATM   21  H   UNL     1      -8.289   5.326  73.489  1.00  0.00     0.000 HD 
BRANCH  19  22
HETATM   22  C   UNL     1     -10.052   6.196  70.701  1.00  0.00    -0.240 C  
BRANCH  22  23
HETATM   23  C   UNL     1      -9.828   6.243  69.187  1.00  0.00    -0.168 C  
BRANCH  23  24
HETATM   24  C   UNL     1      -9.279   4.944  68.585  1.00  0.00    -0.120 C  
HETATM   25  O   UNL     1     -10.150   3.855  68.893  1.00  0.00     0.098 OA 
HETATM   26  H   UNL     1      -9.810   3.051  68.520  1.00  0.00     0.000 HD 
BRANCH  24  27
HETATM   27  C   UNL     1      -9.186   5.031  67.054  1.00  0.00    -0.122 C  
BRANCH  27  28
HETATM   28  C   UNL     1      -7.749   5.163  66.551  1.00  0.00    -0.092 C  
BRANCH  28  29
HETATM   29  C   UNL     1      -7.399   6.581  66.190  1.00  0.00    -0.080 A  
HETATM   30  C   UNL     1      -6.734   7.397  67.115  1.00  0.00    -0.069 A  
HETATM   31  C   UNL     1      -6.402   8.710  66.786  1.00  0.00    -0.059 A  
HETATM   32  C   UNL     1      -6.736   9.219  65.533  1.00  0.00    -0.073 A  
HETATM   33  C   UNL     1      -7.407   8.417  64.610  1.00  0.00    -0.093 A  
HETATM   34  C   UNL     1      -7.739   7.102  64.938  1.00  0.00    -0.117 A  
ENDBRANCH  28  29
ENDBRANCH  27  28
ENDBRANCH  24  27
ENDBRANCH  23  24
ENDBRANCH  22  23
ENDBRANCH  19  22
ENDBRANCH  12  13
ENDBRANCH  11  12
ENDBRANCH   9  10
ENDBRANCH   8   9
ENDBRANCH   7   8
ENDBRANCH   5   7
ENDBRANCH   4   5
ENDBRANCH   2   4
TORSDOF 14
ENDMDL
MODEL      336
REMARK 921   NORMALIZED FREE ENERGY PREDICTED BY IDOCK:   -2.65 KCAL/MOL
REMARK 922        TOTAL FREE ENERGY PREDICTED BY IDOCK:   -8.11 KCAL/MOL
REMARK 923 INTER-LIGAND FREE ENERGY PREDICTED BY IDOCK:   -6.21 KCAL/MOL
REMARK 924 INTRA-LIGAND FREE ENERGY PREDICTED BY IDOCK:   -1.91 KCAL/MOL
REMARK 927      BINDING AFFINITY PREDICTED BY RF-SCORE:    0.00 PKD
ROOT
HETATM    1  C   UNL     1      -6.962   3.805  73.218  1.00  0.00    -0.049 C  
HETATM    2  C   UNL     1      -6.877   5.266  72.791  1.00  0.00    -0.076 C  
HETATM    3  C   UNL     1      -6.696   6.173  74.001  1.00  0.00    -0.079 C  
ENDROOT
BRANCH   2   4
HETATM    4  O   UNL     1      -5.733   5.450  71.937  1.00  0.00    -0.016 OA 
BRANCH   4   5
HETATM    5  C   UNL     1      -6.004   5.985  70.711  1.00  0.00    -0.030 C  
HETATM    6  O   UNL     1      -6.131   7.179  70.472  1.00  0.00    -0.027 OA 
BRANCH   5   7
HETATM    7  C   UNL     1      -6.148   4.880  69.696  1.00  0.00    -0.022 C  
BRANCH   7   8
HETATM    8  C   UNL     1      -7.613   4.466  69.546  1.00  0.00    -0.054 C  
BRANCH   8   9
HETATM    9  C   UNL     1      -7.811   3.290  68.593  1.00  0.00    -0.060 C  
BRANCH   9  10
HETATM   10  C   UNL     1      -8.729   3.626  67.452  1.00  0.00    -0.129 C  
HETATM   11  C   UNL     1      -9.895   4.288  67.528  1.00  0.00    -0.162 C  
BRANCH  11  12
HETATM   12  C   UNL     1     -10.523   4.860  68.767  1.00  0.00     0.050 C  
BRANCH  12  13
HETATM   13  C   UNL     1     -10.715   6.386  68.784  1.00  0.00    -0.339 C  
HETATM   14  C   UNL     1     -11.192   6.864  70.168  1.00  0.00    -0.313 C  
HETATM   15  C   UNL     1     -10.982   8.365  70.107  1.00  0.00    -0.216 C  
HETATM   16  O   UNL     1     -10.371   6.349  71.216  1.00  0.00    -0.201 OA 
HETATM   17  C   UNL     1      -9.630   8.501  69.414  1.00  0.00    -0.170 C  
HETATM   18  H   UNL     1     -10.666   6.643  72.070  1.00  0.00     0.000 HD 
HETATM   19  C   UNL     1      -9.438   7.231  68.543  1.00  0.00    -0.140 C  
HETATM   20  O   UNL     1      -8.586   8.560  70.383  1.00  0.00    -0.130 OA 
HETATM   21  H   UNL     1      -7.744   8.645  69.951  1.00  0.00     0.000 HD 
BRANCH  19  22
HETATM   22  C   UNL     1      -9.225   7.597  67.062  1.00  0.00    -0.168 C  
BRANCH  22  23
HETATM   23  C   UNL     1      -8.147   8.675  66.919  1.00  0.00    -0.098 C  
BRANCH  23  24
HETATM   24  C   UNL     1      -8.367   9.642  65.749  1.00  0.00    -0.128 C  
HETATM   25  O   UNL     1      -9.307   9.089  64.828  1.00  0.00    -0.441 OA 
HETATM   26  H   UNL     1      -9.444   9.688  64.104  1.00  0.00     0.000 HD 
BRANCH  24  27
HETATM   27  C   UNL     1      -8.939  10.984  66.232  1.00  0.00    -0.195 C  
BRANCH  27  28
HETATM   28  C   UNL     1     -10.450  10.939  66.459  1.00  0.00    -0.308 C  
BRANCH  28  29
HETATM   29  C   UNL     1     -11.176  11.993  65.669  1.00  0.00    -0.377 A  
HETATM   30  C   UNL     1     -11.860  13.020  66.333  1.00  0.00    -0.465 A  
HETATM   31  C   UNL     1     -12.532  14.003  65.607  1.00  0.00    -0.531 A  
HETATM   32  C   UNL     1     -12.529  13.964  64.214  1.00  0.00    -0.305 A  
HETATM   33  C   UNL     1     -11.859  12.940  63.546  1.00  0.00    -0.605 A  
HETATM   34  C   UNL     1     -11.186  11.955  64.271  1.00  0.00    -0.424 A  
ENDBRANCH  28  29
ENDBRANCH  27  28
ENDBRANCH  24  27
ENDBRANCH  23  24
ENDBRANCH  22  23
ENDBRANCH  19  22
ENDBRANCH  12  13
ENDBRANCH  11  12
ENDBRANCH   9  10
ENDBRANCH   8   9
ENDBRANCH   7   8
ENDBRANCH   5   7
ENDBRANCH   4   5
ENDBRANCH   2   4
TORSDOF 14
ENDMDL
MODEL      337
REMARK 921   NORMALIZED FREE ENERGY PREDICTED BY IDOCK:   -2.63 KCAL/MOL
REMARK 922        TOTAL FREE ENERGY PREDICTED BY IDOCK:   -8.07 KCAL/MOL
REMARK 923 INTER-LIGAND FREE ENERGY PREDICTED BY IDOCK:   -6.32 KCAL/MOL
REMARK 924 INTRA-LIGAND FREE ENERGY PREDICTED BY IDOCK:   -1.75 KCAL/MOL
REMARK 927      BINDING AFFINITY PREDICTED BY RF-SCORE:    0.00 PKD
ROOT
HETATM    1  C   UNL     1     -11.149  10.009  70.202  1.00  0.00    -0.371 C  
HETATM    2  C   UNL     1     -11.468   9.396  71.561  1.00  0.00    -0.397 C  
HETATM    3  C   UNL     1     -12.967   9.174  71.715  1.00  0.00    -0.448 C  
ENDROOT
BRANCH   2   4
HETATM    4  O   UNL     1     -10.827   8.112  71.670  1.00  0.00    -0.231 OA 
BRANCH   4   5
HETATM    5  C   UNL     1     -11.535   7.064  71.157  1.00  0.00    -0.294 C  
HETATM    6  O   UNL     1     -11.781   6.891  69.970  1.00  0.00    -0.286 OA 
BRANCH   5   7
HETATM    7  C   UNL     1     -11.989   6.162  72.275  1.00  0.00    -0.285 C  
BRANCH   7   8
HETATM    8  C   UNL     1     -10.830   5.307  72.790  1.00  0.00    -0.313 C  
BRANCH   8   9
HETATM    9  C   UNL     1     -10.270   4.356  71.735  1.00  0.00    -0.201 C  
BRANCH   9  10
HETATM   10  C   UNL     1      -8.783   4.496  71.570  1.00  0.00    -0.139 C  
HETATM   11  C   UNL     1      -8.001   3.804  70.725  1.00  0.00    -0.054 C  
BRANCH  11  12
HETATM   12  C   UNL     1      -8.445   2.758  69.743  1.00  0.00    -0.095 C  
BRANCH  12  13
HETATM   13  C   UNL     1      -8.167   3.061  68.261  1.00  0.00    -0.082 C  
HETATM   14  C   UNL     1      -8.621   1.892  67.366  1.00  0.00    -0.091 C  
HETATM   15  C   UNL     1      -8.609   2.496  65.975  1.00  0.00    -0.113 C  
HETATM   16  O   UNL     1      -9.961   1.494  67.659  1.00  0.00    -0.357 OA 
HETATM   17  C   UNL     1      -9.208   3.882  66.190  1.00  0.00    -0.160 C  
HETATM   18  H   UNL     1     -10.240   0.773  67.107  1.00  0.00     0.000 HD 
HETATM   19  C   UNL     1      -8.928   4.273  67.665  1.00  0.00    -0.135 C  
HETATM   20  O   UNL     1     -10.619   3.844  65.981  1.00  0.00    -0.293 OA 
HETATM   21  H   UNL     1     -10.992   4.707  66.115  1.00  0.00     0.000 HD 
BRANCH  19  22
HETATM   22  C   UNL     1      -8.132   5.589  67.752  1.00  0.00    -0.101 C  
BRANCH  22  23
HETATM   23  C   UNL     1      -9.076   6.786  67.898  1.00  0.00    -0.114 C  
BRANCH  23  24
HETATM   24  C   UNL     1      -9.833   7.158  66.618  1.00  0.00    -0.169 C  
HETATM   25  O   UNL     1     -11.241   7.073  66.842  1.00  0.00    -0.594 OA 
HETATM   26  H   UNL     1     -11.711   7.304  66.049  1.00  0.00     0.000 HD 
BRANCH  24  27
HETATM   27  C   UNL     1      -9.529   8.601  66.187  1.00  0.00    -0.308 C  
BRANCH  27  28
HETATM   28  C   UNL     1      -9.058   9.481  67.344  1.00  0.00    -0.144 C  
BRANCH  28  29
HETATM   29  C   UNL     1      -7.728  10.127  67.065  1.00  0.00    -0.096 A  
HETATM   30  C   UNL     1      -7.010  10.732  68.104  1.00  0.00    -0.072 A  
HETATM   31  C   UNL     1      -5.774  11.328  67.853  1.00  0.00    -0.043 A  
HETATM   32  C   UNL     1      -5.251  11.328  66.562  1.00  0.00    -0.127 A  
HETATM   33  C   UNL     1      -5.964  10.737  65.520  1.00  0.00    -0.081 A  
HETATM   34  C   UNL     1      -7.201  10.139  65.769  1.00  0.00    -0.128 A  
ENDBRANCH  28  29
ENDBRANCH  27  28
ENDBRANCH  24  27
ENDBRANCH  23  24
ENDBRANCH  22  23
ENDBRANCH  19  22
ENDBRANCH  12  13
ENDBRANCH  11  12
ENDBRANCH   9  10
ENDBRANCH   8   9
ENDBRANCH   7   8
ENDBRANCH   5   7
ENDBRANCH   4   5
ENDBRANCH   2   4
TORSDOF 14
ENDMDL
MODEL      338
REMARK 921   NORMALIZED FREE ENERGY PREDICTED BY IDOCK:   -2.61 KCAL/MOL
REMARK 922        TOTAL FREE ENERGY PREDICTED BY IDOCK:   -8.04 KCAL/MOL
REMARK 923 INTER-LIGAND FREE ENERGY PREDICTED BY IDOCK:   -6.43 KCAL/MOL
REMARK 924 INTRA-LIGAND FREE ENERGY PREDICTED BY IDOCK:   -1.61 KCAL/MOL
REMARK 927      BINDING AFFINITY PREDICTED BY RF-SCORE:    0.00 PKD
ROOT
HETATM    1  C   UNL     1     -13.513   6.597  71.836  1.00  0.00    -0.031 C  
HETATM    2  C   UNL     1     -13.088   7.925  71.220  1.00  0.00    -0.184 C  
HETATM    3  C   UNL     1     -13.137   9.041  72.255  1.00  0.00    -0.508 C  
ENDROOT
BRANCH   2   4
HETATM    4  O   UNL     1     -11.729   7.825  70.756  1.00  0.00    -0.284 OA 
BRANCH   4   5
HETATM    5  C   UNL     1     -10.775   7.958  71.722  1.00  0.00    -0.232 C  
HETATM    6  O   UNL     1     -10.550   7.146  72.611  1.00  0.00    -0.223 OA 
BRANCH   5   7
HETATM    7  C   UNL     1     -10.051   9.268  71.543  1.00  0.00    -0.306 C  
BRANCH   7   8
HETATM    8  C   UNL     1      -8.705   9.055  70.847  1.00  0.00    -0.280 C  
BRANCH   8   9
HETATM    9  C   UNL     1      -8.777   9.237  69.333  1.00  0.00    -0.148 C  
BRANCH   9  10
HETATM   10  C   UNL     1      -8.644  10.676  68.922  1.00  0.00    -0.158 C  
HETATM   11  C   UNL     1      -9.388  11.321  68.008  1.00  0.00    -0.166 C  
BRANCH  11  12
HETATM   12  C   UNL     1     -10.530  10.752  67.216  1.00  0.00    -0.282 C  
BRANCH  12  13
HETATM   13  C   UNL     1     -10.159  10.076  65.885  1.00  0.00    -0.319 C  
HETATM   14  C   UNL     1     -10.312  11.058  64.709  1.00  0.00    -0.324 C  
HETATM   15  C   UNL     1      -9.582  10.359  63.577  1.00  0.00    -0.361 C  
HETATM   16  O   UNL     1      -9.644  12.294  64.964  1.00  0.00    -0.445 OA 
HETATM   17  C   UNL     1      -8.337   9.800  64.257  1.00  0.00    -0.167 C  
HETATM   18  H   UNL     1      -9.738  12.900  64.238  1.00  0.00     0.000 HD 
HETATM   19  C   UNL     1      -8.690   9.600  65.755  1.00  0.00    -0.168 C  
HETATM   20  O   UNL     1      -7.262  10.731  64.155  1.00  0.00    -0.339 OA 
HETATM   21  H   UNL     1      -6.487  10.382  64.578  1.00  0.00     0.000 HD 
BRANCH  19  22
HETATM   22  C   UNL     1      -8.488   8.136  66.186  1.00  0.00    -0.143 C  
BRANCH  22  23
HETATM   23  C   UNL     1      -9.828   7.396  66.244  1.00  0.00    -0.042 C  
BRANCH  23  24
HETATM   24  C   UNL     1     -10.134   6.740  67.595  1.00  0.00    -0.161 C  
HETATM   25  O   UNL     1     -11.540   6.763  67.842  1.00  0.00    -0.556 OA 
HETATM   26  H   UNL     1     -11.730   6.356  68.679  1.00  0.00     0.000 HD 
BRANCH  24  27
HETATM   27  C   UNL     1      -9.694   5.268  67.616  1.00  0.00    -0.168 C  
BRANCH  27  28
HETATM   28  C   UNL     1      -8.178   5.103  67.723  1.00  0.00    -0.098 C  
BRANCH  28  29
HETATM   29  C   UNL     1      -7.729   4.863  69.139  1.00  0.00    -0.072 A  
HETATM   30  C   UNL     1      -6.608   5.535  69.644  1.00  0.00    -0.050 A  
HETATM   31  C   UNL     1      -6.190   5.322  70.957  1.00  0.00    -0.023 A  
HETATM   32  C   UNL     1      -6.886   4.431  71.772  1.00  0.00    -0.034 A  
HETATM   33  C   UNL     1      -7.996   3.751  71.275  1.00  0.00    -0.064 A  
HETATM   34  C   UNL     1      -8.416   3.964  69.961  1.00  0.00    -0.095 A  
ENDBRANCH  28  29
ENDBRANCH  27  28
ENDBRANCH  24  27
ENDBRANCH  23  24
ENDBRANCH  22  23
ENDBRANCH  19  22
ENDBRANCH  12  13
ENDBRANCH  11  12
ENDBRANCH   9  10
ENDBRANCH   8   9
ENDBRANCH   7   8
ENDBRANCH   5   7
ENDBRANCH   4   5
ENDBRANCH   2   4
TORSDOF 14
ENDMDL
MODEL      339
REMARK 921   NORMALIZED FREE ENERGY PREDICTED BY IDOCK:   -2.57 KCAL/MOL
REMARK 922        TOTAL FREE ENERGY PREDICTED BY IDOCK:   -7.97 KCAL/MOL
REMARK 923 INTER-LIGAND FREE ENERGY PREDICTED BY IDOCK:   -6.45 KCAL/MOL
REMARK 924 INTRA-LIGAND FREE ENERGY PREDICTED BY IDOCK:   -1.52 KCAL/MOL
REMARK 927      BINDING AFFINITY PREDICTED BY RF-SCORE:    0.00 PKD
ROOT
HETATM    1  C   UNL     1      -7.796  11.259  68.827  1.00  0.00    -0.139 C  
HETATM    2  C   UNL     1      -8.340  12.394  67.968  1.00  0.00    -0.170 C  
HETATM    3  C   UNL     1      -7.243  13.398  67.639  1.00  0.00    -0.167 C  
ENDROOT
BRANCH   2   4
HETATM    4  O   UNL     1      -8.826  11.861  66.722  1.00  0.00    -0.184 OA 
BRANCH   4   5
HETATM    5  C   UNL     1      -8.109  10.813  66.220  1.00  0.00    -0.159 C  
HETATM    6  O   UNL     1      -6.896  10.678  66.311  1.00  0.00    -0.118 OA 
BRANCH   5   7
HETATM    7  C   UNL     1      -9.035   9.856  65.515  1.00  0.00    -0.209 C  
BRANCH   7   8
HETATM    8  C   UNL     1      -8.813   9.899  64.002  1.00  0.00    -0.253 C  
BRANCH   8   9
HETATM    9  C   UNL     1      -7.603   9.086  63.549  1.00  0.00    -0.111 C  
BRANCH   9  10
HETATM   10  C   UNL     1      -7.971   7.684  63.153  1.00  0.00    -0.108 C  
HETATM   11  C   UNL     1      -7.818   6.574  63.896  1.00  0.00    -0.109 C  
BRANCH  11  12
HETATM   12  C   UNL     1      -7.271   6.497  65.292  1.00  0.00    -0.073 C  
BRANCH  12  13
HETATM   13  C   UNL     1      -8.273   6.098  66.390  1.00  0.00    -0.113 C  
HETATM   14  C   UNL     1      -8.798   4.669  66.161  1.00  0.00    -0.118 C  
HETATM   15  C   UNL     1      -9.460   4.327  67.482  1.00  0.00    -0.216 C  
HETATM   16  O   UNL     1      -7.732   3.742  65.952  1.00  0.00    -0.087 OA 
HETATM   17  C   UNL     1      -8.484   4.880  68.515  1.00  0.00    -0.094 C  
HETATM   18  H   UNL     1      -8.056   2.860  65.811  1.00  0.00     0.000 HD 
HETATM   19  C   UNL     1      -7.707   6.036  67.831  1.00  0.00    -0.098 C  
HETATM   20  O   UNL     1      -7.559   3.868  68.906  1.00  0.00    -0.054 OA 
HETATM   21  H   UNL     1      -6.951   4.213  69.550  1.00  0.00     0.000 HD 
BRANCH  19  22
HETATM   22  C   UNL     1      -7.876   7.357  68.605  1.00  0.00    -0.122 C  
BRANCH  22  23
HETATM   23  C   UNL     1      -9.317   7.516  69.099  1.00  0.00    -0.147 C  
BRANCH  23  24
HETATM   24  C   UNL     1     -10.285   8.095  68.060  1.00  0.00    -0.212 C  
HETATM   25  O   UNL     1     -11.381   7.201  67.864  1.00  0.00    -0.500 OA 
HETATM   26  H   UNL     1     -11.981   7.560  67.221  1.00  0.00     0.000 HD 
BRANCH  24  27
HETATM   27  C   UNL     1     -10.871   9.436  68.527  1.00  0.00    -0.149 C  
BRANCH  27  28
HETATM   28  C   UNL     1     -11.255   9.435  70.006  1.00  0.00    -0.217 C  
BRANCH  28  29
HETATM   29  C   UNL     1     -11.808  10.762  70.452  1.00  0.00    -0.450 A  
HETATM   30  C   UNL     1     -11.414  11.940  69.804  1.00  0.00    -0.303 A  
HETATM   31  C   UNL     1     -11.926  13.172  70.208  1.00  0.00    -0.366 A  
HETATM   32  C   UNL     1     -12.830  13.236  71.266  1.00  0.00    -0.398 A  
HETATM   33  C   UNL     1     -13.220  12.070  71.923  1.00  0.00    -0.469 A  
HETATM   34  C   UNL     1     -12.709  10.835  71.519  1.00  0.00    -0.536 A  
ENDBRANCH  28  29
ENDBRANCH  27  28
ENDBRANCH  24  27
ENDBRANCH  23  24
ENDBRANCH  22  23
ENDBRANCH  19  22
ENDBRANCH  12  13
ENDBRANCH  11  12
ENDBRANCH   9  10
ENDBRANCH   8   9
ENDBRANCH   7   8
ENDBRANCH   5   7
ENDBRANCH   4   5
ENDBRANCH   2   4
TORSDOF 14
ENDMDL
MODEL      340
REMARK 921   NORMALIZED FREE ENERGY PREDICTED BY IDOCK:   -2.57 KCAL/MOL
REMARK 922        TOTAL FREE ENERGY PREDICTED BY IDOCK:   -7.96 KCAL/MOL
REMARK 923 INTER-LIGAND FREE ENERGY PREDICTED BY IDOCK:   -6.27 KCAL/MOL
REMARK 924 INTRA-LIGAND FREE ENERGY PREDICTED BY IDOCK:   -1.70 KCAL/MOL
REMARK 927      BINDING AFFINITY PREDICTED BY RF-SCORE:    0.00 PKD
ROOT
HETATM    1  C   UNL     1      -6.313   6.348  72.699  1.00  0.00    -0.058 C  
HETATM    2  C   UNL     1      -7.816   6.507  72.900  1.00  0.00    -0.101 C  
HETATM    3  C   UNL     1      -8.119   7.095  74.272  1.00  0.00    -0.168 C  
ENDROOT
BRANCH   2   4
HETATM    4  O   UNL     1      -8.338   7.416  71.914  1.00  0.00    -0.105 OA 
BRANCH   4   5
HETATM    5  C   UNL     1      -9.615   7.161  71.507  1.00  0.00    -0.157 C  
HETATM    6  O   UNL     1     -10.456   8.009  71.239  1.00  0.00    -0.198 OA 
BRANCH   5   7
HETATM    7  C   UNL     1      -9.844   5.671  71.459  1.00  0.00    -0.213 C  
BRANCH   7   8
HETATM    8  C   UNL     1     -10.714   5.293  70.258  1.00  0.00    -0.221 C  
BRANCH   8   9
HETATM    9  C   UNL     1      -9.999   5.466  68.920  1.00  0.00    -0.247 C  
BRANCH   9  10
HETATM   10  C   UNL     1     -10.825   6.230  67.925  1.00  0.00    -0.417 C  
HETATM   11  C   UNL     1     -10.365   6.999  66.923  1.00  0.00    -0.338 C  
BRANCH  11  12
HETATM   12  C   UNL     1      -8.928   7.242  66.565  1.00  0.00    -0.175 C  
BRANCH  12  13
HETATM   13  C   UNL     1      -8.492   8.715  66.480  1.00  0.00    -0.118 C  
HETATM   14  C   UNL     1      -7.881   9.029  65.102  1.00  0.00    -0.108 C  
HETATM   15  C   UNL     1      -7.850  10.546  65.074  1.00  0.00    -0.055 C  
HETATM   16  O   UNL     1      -8.724   8.588  64.038  1.00  0.00    -0.411 OA 
HETATM   17  C   UNL     1      -9.194  10.933  65.683  1.00  0.00    -0.203 C  
HETATM   18  H   UNL     1      -8.346   8.782  63.188  1.00  0.00     0.000 HD 
HETATM   19  C   UNL     1      -9.627   9.763  66.606  1.00  0.00    -0.239 C  
HETATM   20  O   UNL     1     -10.169  11.098  64.656  1.00  0.00    -0.272 OA 
HETATM   21  H   UNL     1     -11.005  11.340  65.036  1.00  0.00     0.000 HD 
BRANCH  19  22
HETATM   22  C   UNL     1      -9.849  10.245  68.052  1.00  0.00    -0.171 C  
BRANCH  22  23
HETATM   23  C   UNL     1      -9.208  11.619  68.271  1.00  0.00    -0.187 C  
BRANCH  23  24
HETATM   24  C   UNL     1     -10.201  12.787  68.288  1.00  0.00    -0.244 C  
HETATM   25  O   UNL     1     -10.857  12.852  69.554  1.00  0.00    -0.442 OA 
HETATM   26  H   UNL     1     -11.472  13.576  69.565  1.00  0.00     0.000 HD 
BRANCH  24  27
HETATM   27  C   UNL     1      -9.487  14.132  68.078  1.00  0.00    -0.213 C  
BRANCH  27  28
HETATM   28  C   UNL     1      -7.965  14.016  68.160  1.00  0.00    -0.149 C  
BRANCH  28  29
HETATM   29  C   UNL     1      -7.299  15.355  68.325  1.00  0.00    -0.113 A  
HETATM   30  C   UNL     1      -5.916  15.479  68.141  1.00  0.00    -0.138 A  
HETATM   31  C   UNL     1      -5.293  16.718  68.288  1.00  0.00    -0.115 A  
HETATM   32  C   UNL     1      -6.048  17.840  68.624  1.00  0.00    -0.192 A  
HETATM   33  C   UNL     1      -7.424  17.724  68.818  1.00  0.00    -0.263 A  
HETATM   34  C   UNL     1      -8.048  16.484  68.672  1.00  0.00    -0.233 A  
ENDBRANCH  28  29
ENDBRANCH  27  28
ENDBRANCH  24  27
ENDBRANCH  23  24
ENDBRANCH  22  23
ENDBRANCH  19  22
ENDBRANCH  12  13
ENDBRANCH  11  12
ENDBRANCH   9  10
ENDBRANCH   8   9
ENDBRANCH   7   8
ENDBRANCH   5   7
ENDBRANCH   4   5
ENDBRANCH   2   4
TORSDOF 14
ENDMDL
MODEL      341
REMARK 921   NORMALIZED FREE ENERGY PREDICTED BY IDOCK:   -2.56 KCAL/MOL
REMARK 922        TOTAL FREE ENERGY PREDICTED BY IDOCK:   -7.95 KCAL/MOL
REMARK 923 INTER-LIGAND FREE ENERGY PREDICTED BY IDOCK:   -6.17 KCAL/MOL
REMARK 924 INTRA-LIGAND FREE ENERGY PREDICTED BY IDOCK:   -1.78 KCAL/MOL
REMARK 927      BINDING AFFINITY PREDICTED BY RF-SCORE:    0.00 PKD
ROOT
HETATM    1  C   UNL     1      -5.997   5.649  72.021  1.00  0.00    -0.030 C  
HETATM    2  C   UNL     1      -7.451   5.259  71.778  1.00  0.00    -0.091 C  
HETATM    3  C   UNL     1      -8.321   5.649  72.966  1.00  0.00    -0.118 C  
ENDROOT
BRANCH   2   4
HETATM    4  O   UNL     1      -7.950   5.965  70.627  1.00  0.00    -0.105 OA 
BRANCH   4   5
HETATM    5  C   UNL     1      -9.302   5.900  70.448  1.00  0.00    -0.159 C  
HETATM    6  O   UNL     1     -10.107   6.741  70.829  1.00  0.00    -0.190 OA 
BRANCH   5   7
HETATM    7  C   UNL     1      -9.659   4.624  69.731  1.00  0.00    -0.258 C  
BRANCH   7   8
HETATM    8  C   UNL     1     -10.054   4.907  68.280  1.00  0.00    -0.143 C  
BRANCH   8   9
HETATM    9  C   UNL     1      -8.876   5.344  67.412  1.00  0.00    -0.105 C  
BRANCH   9  10
HETATM   10  C   UNL     1      -9.313   5.831  66.059  1.00  0.00    -0.134 C  
HETATM   11  C   UNL     1      -8.769   6.838  65.355  1.00  0.00     0.005 C  
BRANCH  11  12
HETATM   12  C   UNL     1      -7.591   7.679  65.755  1.00  0.00    -0.088 C  
BRANCH  12  13
HETATM   13  C   UNL     1      -7.919   9.059  66.351  1.00  0.00    -0.103 C  
HETATM   14  C   UNL     1      -7.827  10.158  65.275  1.00  0.00    -0.143 C  
HETATM   15  C   UNL     1      -8.511  11.342  65.931  1.00  0.00    -0.002 C  
HETATM   16  O   UNL     1      -8.571   9.814  64.106  1.00  0.00    -0.163 OA 
HETATM   17  C   UNL     1      -9.719  10.713  66.617  1.00  0.00    -0.184 C  
HETATM   18  H   UNL     1      -8.515  10.492  63.442  1.00  0.00     0.000 HD 
HETATM   19  C   UNL     1      -9.355   9.232  66.906  1.00  0.00    -0.193 C  
HETATM   20  O   UNL     1     -10.850  10.751  65.749  1.00  0.00    -0.140 OA 
HETATM   21  H   UNL     1     -11.603  10.358  66.176  1.00  0.00     0.000 HD 
BRANCH  19  22
HETATM   22  C   UNL     1      -9.466   8.914  68.408  1.00  0.00    -0.147 C  
BRANCH  22  23
HETATM   23  C   UNL     1      -9.870  10.161  69.200  1.00  0.00    -0.225 C  
BRANCH  23  24
HETATM   24  C   UNL     1     -11.289  10.115  69.778  1.00  0.00    -0.256 C  
HETATM   25  O   UNL     1     -11.237  10.137  71.204  1.00  0.00    -0.325 OA 
HETATM   26  H   UNL     1     -12.116  10.109  71.562  1.00  0.00     0.000 HD 
BRANCH  24  27
HETATM   27  C   UNL     1     -12.113  11.334  69.335  1.00  0.00    -0.384 C  
BRANCH  27  28
HETATM   28  C   UNL     1     -12.528  12.228  70.504  1.00  0.00    -0.272 C  
BRANCH  28  29
HETATM   29  C   UNL     1     -11.965  13.618  70.386  1.00  0.00    -0.372 A  
HETATM   30  C   UNL     1     -12.200  14.559  71.398  1.00  0.00    -0.425 A  
HETATM   31  C   UNL     1     -11.677  15.847  71.297  1.00  0.00    -0.504 A  
HETATM   32  C   UNL     1     -10.921  16.206  70.184  1.00  0.00    -0.359 A  
HETATM   33  C   UNL     1     -10.691  15.280  69.168  1.00  0.00    -0.251 A  
HETATM   34  C   UNL     1     -11.213  13.989  69.267  1.00  0.00    -0.304 A  
ENDBRANCH  28  29
ENDBRANCH  27  28
ENDBRANCH  24  27
ENDBRANCH  23  24
ENDBRANCH  22  23
ENDBRANCH  19  22
ENDBRANCH  12  13
ENDBRANCH  11  12
ENDBRANCH   9  10
ENDBRANCH   8   9
ENDBRANCH   7   8
ENDBRANCH   5   7
ENDBRANCH   4   5
ENDBRANCH   2   4
TORSDOF 14
ENDMDL
MODEL      342
REMARK 921   NORMALIZED FREE ENERGY PREDICTED BY IDOCK:   -2.53 KCAL/MOL
REMARK 922        TOTAL FREE ENERGY PREDICTED BY IDOCK:   -7.90 KCAL/MOL
REMARK 923 INTER-LIGAND FREE ENERGY PREDICTED BY IDOCK:   -6.32 KCAL/MOL
REMARK 924 INTRA-LIGAND FREE ENERGY PREDICTED BY IDOCK:   -1.58 KCAL/MOL
REMARK 927      BINDING AFFINITY PREDICTED BY RF-SCORE:    0.00 PKD
ROOT
HETATM    1  C   UNL     1      -8.446  11.138  68.665  1.00  0.00    -0.153 C  
HETATM    2  C   UNL     1      -9.251  12.365  68.251  1.00  0.00    -0.189 C  
HETATM    3  C   UNL     1      -8.458  13.228  67.277  1.00  0.00    -0.203 C  
ENDROOT
BRANCH   2   4
HETATM    4  O   UNL     1     -10.453  11.946  67.579  1.00  0.00    -0.203 OA 
BRANCH   4   5
HETATM    5  C   UNL     1     -10.260  11.326  66.379  1.00  0.00    -0.230 C  
HETATM    6  O   UNL     1      -9.519  10.369  66.188  1.00  0.00    -0.169 OA 
BRANCH   5   7
HETATM    7  C   UNL     1     -11.081  12.009  65.316  1.00  0.00    -0.367 C  
BRANCH   7   8
HETATM    8  C   UNL     1     -10.206  12.411  64.127  1.00  0.00    -0.377 C  
BRANCH   8   9
HETATM    9  C   UNL     1     -10.256  11.407  62.978  1.00  0.00    -0.311 C  
BRANCH   9  10
HETATM   10  C   UNL     1      -8.887  11.026  62.491  1.00  0.00    -0.358 C  
HETATM   11  C   UNL     1      -8.224   9.890  62.766  1.00  0.00    -0.148 C  
BRANCH  11  12
HETATM   12  C   UNL     1      -8.717   8.742  63.600  1.00  0.00     0.023 C  
BRANCH  12  13
HETATM   13  C   UNL     1      -7.638   7.923  64.328  1.00  0.00    -0.118 C  
HETATM   14  C   UNL     1      -6.428   8.805  64.688  1.00  0.00    -0.066 C  
HETATM   15  C   UNL     1      -5.661   7.952  65.680  1.00  0.00    -0.036 C  
HETATM   16  O   UNL     1      -6.828  10.002  65.356  1.00  0.00    -0.108 OA 
HETATM   17  C   UNL     1      -6.760   7.359  66.555  1.00  0.00    -0.061 C  
HETATM   18  H   UNL     1      -6.082  10.546  65.577  1.00  0.00     0.000 HD 
HETATM   19  C   UNL     1      -8.052   7.322  65.695  1.00  0.00    -0.133 C  
HETATM   20  O   UNL     1      -6.984   8.189  67.692  1.00  0.00    -0.075 OA 
HETATM   21  H   UNL     1      -7.669   7.819  68.237  1.00  0.00     0.000 HD 
BRANCH  19  22
HETATM   22  C   UNL     1      -8.608   5.891  65.584  1.00  0.00    -0.155 C  
BRANCH  22  23
HETATM   23  C   UNL     1      -8.426   5.133  66.902  1.00  0.00    -0.106 C  
BRANCH  23  24
HETATM   24  C   UNL     1      -9.723   4.576  67.501  1.00  0.00    -0.169 C  
HETATM   25  O   UNL     1      -9.900   3.216  67.103  1.00  0.00    -0.360 OA 
HETATM   26  H   UNL     1     -10.703   2.871  67.473  1.00  0.00     0.000 HD 
BRANCH  24  27
HETATM   27  C   UNL     1      -9.686   4.598  69.036  1.00  0.00    -0.242 C  
BRANCH  27  28
HETATM   28  C   UNL     1      -9.119   5.901  69.599  1.00  0.00    -0.145 C  
BRANCH  28  29
HETATM   29  C   UNL     1     -10.167   6.724  70.298  1.00  0.00    -0.216 A  
HETATM   30  C   UNL     1     -10.016   8.113  70.400  1.00  0.00    -0.190 A  
HETATM   31  C   UNL     1     -10.985   8.883  71.042  1.00  0.00    -0.341 A  
HETATM   32  C   UNL     1     -12.109   8.269  71.592  1.00  0.00    -0.346 A  
HETATM   33  C   UNL     1     -12.262   6.886  71.503  1.00  0.00    -0.415 A  
HETATM   34  C   UNL     1     -11.293   6.114  70.860  1.00  0.00    -0.355 A  
ENDBRANCH  28  29
ENDBRANCH  27  28
ENDBRANCH  24  27
ENDBRANCH  23  24
ENDBRANCH  22  23
ENDBRANCH  19  22
ENDBRANCH  12  13
ENDBRANCH  11  12
ENDBRANCH   9  10
ENDBRANCH   8   9
ENDBRANCH   7   8
ENDBRANCH   5   7
ENDBRANCH   4   5
ENDBRANCH   2   4
TORSDOF 14
ENDMDL
MODEL      343
REMARK 921   NORMALIZED FREE ENERGY PREDICTED BY IDOCK:   -2.51 KCAL/MOL
REMARK 922        TOTAL FREE ENERGY PREDICTED BY IDOCK:   -7.86 KCAL/MOL
REMARK 923 INTER-LIGAND FREE ENERGY PREDICTED BY IDOCK:   -7.54 KCAL/MOL
REMARK 924 INTRA-LIGAND FREE ENERGY PREDICTED BY IDOCK:   -0.32 KCAL/MOL
REMARK 927      BINDING AFFINITY PREDICTED BY RF-SCORE:    0.00 PKD
ROOT
HETATM    1  C   UNL     1      -9.714   3.042  65.026  1.00  0.00    -0.011 C  
HETATM    2  C   UNL     1      -8.347   3.712  64.937  1.00  0.00    -0.097 C  
HETATM    3  C   UNL     1      -8.114   4.281  63.543  1.00  0.00    -0.092 C  
ENDROOT
BRANCH   2   4
HETATM    4  O   UNL     1      -8.289   4.809  65.868  1.00  0.00    -0.113 OA 
BRANCH   4   5
HETATM    5  C   UNL     1      -7.309   4.716  66.812  1.00  0.00    -0.081 C  
HETATM    6  O   UNL     1      -6.111   4.613  66.581  1.00  0.00    -0.029 OA 
BRANCH   5   7
HETATM    7  C   UNL     1      -7.925   4.738  68.188  1.00  0.00    -0.085 C  
BRANCH   7   8
HETATM    8  C   UNL     1      -7.670   6.080  68.877  1.00  0.00    -0.092 C  
BRANCH   8   9
HETATM    9  C   UNL     1      -8.577   7.198  68.370  1.00  0.00    -0.123 C  
BRANCH   9  10
HETATM   10  C   UNL     1      -8.402   8.473  69.145  1.00  0.00    -0.120 C  
HETATM   11  C   UNL     1      -9.067   9.625  68.956  1.00  0.00    -0.148 C  
BRANCH  11  12
HETATM   12  C   UNL     1     -10.148   9.882  67.946  1.00  0.00    -0.210 C  
BRANCH  12  13
HETATM   13  C   UNL     1     -11.400  10.610  68.466  1.00  0.00    -0.348 C  
HETATM   14  C   UNL     1     -11.632  10.306  69.957  1.00  0.00    -0.276 C  
HETATM   15  C   UNL     1     -12.649  11.353  70.370  1.00  0.00    -0.267 C  
HETATM   16  O   UNL     1     -10.449  10.514  70.729  1.00  0.00    -0.216 OA 
HETATM   17  C   UNL     1     -12.152  12.616  69.674  1.00  0.00    -0.213 C  
HETATM   18  H   UNL     1     -10.593  10.326  71.649  1.00  0.00     0.000 HD 
HETATM   19  C   UNL     1     -11.345  12.159  68.429  1.00  0.00    -0.336 C  
HETATM   20  O   UNL     1     -11.290  13.348  70.542  1.00  0.00    -0.442 OA 
HETATM   21  H   UNL     1     -10.980  14.134  70.107  1.00  0.00     0.000 HD 
BRANCH  19  22
HETATM   22  C   UNL     1     -11.929  12.755  67.135  1.00  0.00    -0.351 C  
BRANCH  22  23
HETATM   23  C   UNL     1     -11.052  13.900  66.620  1.00  0.00    -0.310 C  
BRANCH  23  24
HETATM   24  C   UNL     1      -9.547  13.691  66.829  1.00  0.00    -0.275 C  
HETATM   25  O   UNL     1      -9.037  12.793  65.844  1.00  0.00    -0.444 OA 
HETATM   26  H   UNL     1      -8.104  12.664  65.973  1.00  0.00     0.000 HD 
BRANCH  24  27
HETATM   27  C   UNL     1      -8.773  15.011  66.685  1.00  0.00    -0.289 C  
BRANCH  27  28
HETATM   28  C   UNL     1      -9.584  16.102  65.985  1.00  0.00    -0.381 C  
BRANCH  28  29
HETATM   29  C   UNL     1      -9.406  17.448  66.633  1.00  0.00    -0.279 A  
HETATM   30  C   UNL     1      -8.120  17.923  66.923  1.00  0.00    -0.250 A  
HETATM   31  C   UNL     1      -7.948  19.172  67.519  1.00  0.00    -0.284 A  
HETATM   32  C   UNL     1      -9.059  19.951  67.834  1.00  0.00    -0.399 A  
HETATM   33  C   UNL     1     -10.342  19.482  67.559  1.00  0.00    -0.567 A  
HETATM   34  C   UNL     1     -10.516  18.232  66.961  1.00  0.00    -0.407 A  
ENDBRANCH  28  29
ENDBRANCH  27  28
ENDBRANCH  24  27
ENDBRANCH  23  24
ENDBRANCH  22  23
ENDBRANCH  19  22
ENDBRANCH  12  13
ENDBRANCH  11  12
ENDBRANCH   9  10
ENDBRANCH   8   9
ENDBRANCH   7   8
ENDBRANCH   5   7
ENDBRANCH   4   5
ENDBRANCH   2   4
TORSDOF 14
ENDMDL
MODEL      344
REMARK 921   NORMALIZED FREE ENERGY PREDICTED BY IDOCK:   -2.45 KCAL/MOL
REMARK 922        TOTAL FREE ENERGY PREDICTED BY IDOCK:   -7.75 KCAL/MOL
REMARK 923 INTER-LIGAND FREE ENERGY PREDICTED BY IDOCK:   -5.25 KCAL/MOL
REMARK 924 INTRA-LIGAND FREE ENERGY PREDICTED BY IDOCK:   -2.49 KCAL/MOL
REMARK 927      BINDING AFFINITY PREDICTED BY RF-SCORE:    0.00 PKD
ROOT
HETATM    1  C   UNL     1     -10.425   5.568  67.791  1.00  0.00    -0.245 C  
HETATM    2  C   UNL     1      -9.157   5.425  66.957  1.00  0.00    -0.112 C  
HETATM    3  C   UNL     1      -8.865   3.959  66.665  1.00  0.00    -0.127 C  
ENDROOT
BRANCH   2   4
HETATM    4  O   UNL     1      -9.336   6.091  65.694  1.00  0.00    -0.043 OA 
BRANCH   4   5
HETATM    5  C   UNL     1      -8.970   7.405  65.674  1.00  0.00     0.043 C  
HETATM    6  O   UNL     1      -9.665   8.339  66.056  1.00  0.00    -0.168 OA 
BRANCH   5   7
HETATM    7  C   UNL     1      -7.587   7.539  65.090  1.00  0.00    -0.096 C  
BRANCH   7   8
HETATM    8  C   UNL     1      -7.177   9.010  64.992  1.00  0.00    -0.092 C  
BRANCH   8   9
HETATM    9  C   UNL     1      -6.177   9.428  66.067  1.00  0.00    -0.067 C  
BRANCH   9  10
HETATM   10  C   UNL     1      -5.928   8.338  67.071  1.00  0.00    -0.053 C  
HETATM   11  C   UNL     1      -6.496   8.218  68.283  1.00  0.00    -0.059 C  
BRANCH  11  12
HETATM   12  C   UNL     1      -7.523   9.131  68.888  1.00  0.00    -0.075 C  
BRANCH  12  13
HETATM   13  C   UNL     1      -8.824   8.463  69.365  1.00  0.00    -0.142 C  
HETATM   14  C   UNL     1      -8.536   7.421  70.462  1.00  0.00    -0.137 C  
HETATM   15  C   UNL     1      -9.909   7.144  71.045  1.00  0.00    -0.181 C  
HETATM   16  O   UNL     1      -7.719   7.961  71.501  1.00  0.00    -0.078 OA 
HETATM   17  C   UNL     1     -10.541   8.529  71.124  1.00  0.00    -0.220 C  
HETATM   18  H   UNL     1      -7.541   7.318  72.177  1.00  0.00     0.000 HD 
HETATM   19  C   UNL     1      -9.858   9.402  70.037  1.00  0.00    -0.253 C  
HETATM   20  O   UNL     1     -10.296   9.108  72.404  1.00  0.00    -0.034 OA 
HETATM   21  H   UNL     1     -10.690   9.970  72.453  1.00  0.00     0.000 HD 
BRANCH  19  22
HETATM   22  C   UNL     1     -10.891   9.971  69.048  1.00  0.00    -0.253 C  
BRANCH  22  23
HETATM   23  C   UNL     1     -10.469  11.361  68.561  1.00  0.00    -0.223 C  
BRANCH  23  24
HETATM   24  C   UNL     1     -10.231  11.459  67.050  1.00  0.00    -0.213 C  
HETATM   25  O   UNL     1     -11.411  11.931  66.399  1.00  0.00    -0.331 OA 
HETATM   26  H   UNL     1     -11.263  11.993  65.463  1.00  0.00     0.000 HD 
BRANCH  24  27
HETATM   27  C   UNL     1      -9.105  12.453  66.724  1.00  0.00    -0.212 C  
BRANCH  27  28
HETATM   28  C   UNL     1      -8.845  13.448  67.855  1.00  0.00    -0.194 C  
BRANCH  28  29
HETATM   29  C   UNL     1      -9.333  14.832  67.520  1.00  0.00    -0.194 A  
HETATM   30  C   UNL     1     -10.225  15.488  68.379  1.00  0.00    -0.215 A  
HETATM   31  C   UNL     1     -10.678  16.772  68.077  1.00  0.00    -0.355 A  
HETATM   32  C   UNL     1     -10.246  17.406  66.915  1.00  0.00    -0.322 A  
HETATM   33  C   UNL     1      -9.366  16.757  66.050  1.00  0.00    -0.245 A  
HETATM   34  C   UNL     1      -8.912  15.472  66.350  1.00  0.00    -0.359 A  
ENDBRANCH  28  29
ENDBRANCH  27  28
ENDBRANCH  24  27
ENDBRANCH  23  24
ENDBRANCH  22  23
ENDBRANCH  19  22
ENDBRANCH  12  13
ENDBRANCH  11  12
ENDBRANCH   9  10
ENDBRANCH   8   9
ENDBRANCH   7   8
ENDBRANCH   5   7
ENDBRANCH   4   5
ENDBRANCH   2   4
TORSDOF 14
ENDMDL
MODEL      345
REMARK 921   NORMALIZED FREE ENERGY PREDICTED BY IDOCK:   -2.43 KCAL/MOL
REMARK 922        TOTAL FREE ENERGY PREDICTED BY IDOCK:   -7.71 KCAL/MOL
REMARK 923 INTER-LIGAND FREE ENERGY PREDICTED BY IDOCK:   -6.48 KCAL/MOL
REMARK 924 INTRA-LIGAND FREE ENERGY PREDICTED BY IDOCK:   -1.23 KCAL/MOL
REMARK 927      BINDING AFFINITY PREDICTED BY RF-SCORE:    0.00 PKD
ROOT
HETATM    1  C   UNL     1     -12.884  11.077  71.228  1.00  0.00    -0.528 C  
HETATM    2  C   UNL     1     -12.690   9.732  71.919  1.00  0.00    -0.410 C  
HETATM    3  C   UNL     1     -13.772   8.746  71.498  1.00  0.00    -0.384 C  
ENDROOT
BRANCH   2   4
HETATM    4  O   UNL     1     -11.421   9.173  71.532  1.00  0.00    -0.312 OA 
BRANCH   4   5
HETATM    5  C   UNL     1     -11.450   7.854  71.183  1.00  0.00    -0.273 C  
HETATM    6  O   UNL     1     -11.649   7.425  70.053  1.00  0.00    -0.142 OA 
BRANCH   5   7
HETATM    7  C   UNL     1     -11.222   7.001  72.404  1.00  0.00    -0.305 C  
BRANCH   7   8
HETATM    8  C   UNL     1      -9.728   6.874  72.708  1.00  0.00    -0.171 C  
BRANCH   8   9
HETATM    9  C   UNL     1      -8.995   5.948  71.741  1.00  0.00    -0.141 C  
BRANCH   9  10
HETATM   10  C   UNL     1      -7.783   6.598  71.134  1.00  0.00    -0.097 C  
HETATM   11  C   UNL     1      -7.092   6.168  70.066  1.00  0.00    -0.072 C  
BRANCH  11  12
HETATM   12  C   UNL     1      -7.394   4.958  69.229  1.00  0.00    -0.056 C  
BRANCH  12  13
HETATM   13  C   UNL     1      -7.794   5.229  67.769  1.00  0.00    -0.092 C  
HETATM   14  C   UNL     1      -8.851   4.216  67.292  1.00  0.00    -0.116 C  
HETATM   15  C   UNL     1      -9.372   4.837  66.009  1.00  0.00    -0.156 C  
HETATM   16  O   UNL     1      -9.942   4.121  68.208  1.00  0.00    -0.063 OA 
HETATM   17  C   UNL     1      -9.492   6.316  66.361  1.00  0.00    -0.133 C  
HETATM   18  H   UNL     1     -10.594   3.496  67.914  1.00  0.00     0.000 HD 
HETATM   19  C   UNL     1      -8.472   6.596  67.496  1.00  0.00    -0.121 C  
HETATM   20  O   UNL     1     -10.805   6.602  66.839  1.00  0.00    -0.385 OA 
HETATM   21  H   UNL     1     -10.880   7.523  67.058  1.00  0.00     0.000 HD 
BRANCH  19  22
HETATM   22  C   UNL     1      -7.473   7.696  67.091  1.00  0.00    -0.096 C  
BRANCH  22  23
HETATM   23  C   UNL     1      -7.992   9.078  67.499  1.00  0.00    -0.101 C  
BRANCH  23  24
HETATM   24  C   UNL     1      -8.943   9.725  66.485  1.00  0.00    -0.150 C  
HETATM   25  O   UNL     1     -10.293   9.606  66.936  1.00  0.00    -0.239 OA 
HETATM   26  H   UNL     1     -10.882  10.007  66.309  1.00  0.00     0.000 HD 
BRANCH  24  27
HETATM   27  C   UNL     1      -8.650  11.224  66.320  1.00  0.00    -0.172 C  
BRANCH  27  28
HETATM   28  C   UNL     1      -9.881  12.028  65.900  1.00  0.00    -0.259 C  
BRANCH  28  29
HETATM   29  C   UNL     1      -9.776  13.477  66.290  1.00  0.00    -0.287 A  
HETATM   30  C   UNL     1      -8.586  13.971  66.840  1.00  0.00    -0.148 A  
HETATM   31  C   UNL     1      -8.480  15.314  67.199  1.00  0.00    -0.235 A  
HETATM   32  C   UNL     1      -9.563  16.171  67.016  1.00  0.00    -0.233 A  
HETATM   33  C   UNL     1     -10.754  15.686  66.478  1.00  0.00    -0.293 A  
HETATM   34  C   UNL     1     -10.862  14.342  66.118  1.00  0.00    -0.310 A  
ENDBRANCH  28  29
ENDBRANCH  27  28
ENDBRANCH  24  27
ENDBRANCH  23  24
ENDBRANCH  22  23
ENDBRANCH  19  22
ENDBRANCH  12  13
ENDBRANCH  11  12
ENDBRANCH   9  10
ENDBRANCH   8   9
ENDBRANCH   7   8
ENDBRANCH   5   7
ENDBRANCH   4   5
ENDBRANCH   2   4
TORSDOF 14
ENDMDL
MODEL      346
REMARK 921   NORMALIZED FREE ENERGY PREDICTED BY IDOCK:   -2.40 KCAL/MOL
REMARK 922        TOTAL FREE ENERGY PREDICTED BY IDOCK:   -7.66 KCAL/MOL
REMARK 923 INTER-LIGAND FREE ENERGY PREDICTED BY IDOCK:   -5.23 KCAL/MOL
REMARK 924 INTRA-LIGAND FREE ENERGY PREDICTED BY IDOCK:   -2.43 KCAL/MOL
REMARK 927      BINDING AFFINITY PREDICTED BY RF-SCORE:    0.00 PKD
ROOT
HETATM    1  C   UNL     1      -9.251   3.550  63.164  1.00  0.00    -0.097 C  
HETATM    2  C   UNL     1      -9.641   3.796  64.617  1.00  0.00    -0.173 C  
HETATM    3  C   UNL     1      -9.169   2.652  65.505  1.00  0.00    -0.099 C  
ENDROOT
BRANCH   2   4
HETATM    4  O   UNL     1      -9.005   4.999  65.087  1.00  0.00    -0.153 OA 
BRANCH   4   5
HETATM    5  C   UNL     1      -7.784   5.262  64.538  1.00  0.00    -0.093 C  
HETATM    6  O   UNL     1      -6.755   4.638  64.768  1.00  0.00    -0.043 OA 
BRANCH   5   7
HETATM    7  C   UNL     1      -7.885   6.452  63.619  1.00  0.00    -0.110 C  
BRANCH   7   8
HETATM    8  C   UNL     1      -7.191   7.672  64.229  1.00  0.00    -0.079 C  
BRANCH   8   9
HETATM    9  C   UNL     1      -7.967   8.285  65.392  1.00  0.00    -0.127 C  
BRANCH   9  10
HETATM   10  C   UNL     1      -7.061   8.844  66.453  1.00  0.00    -0.083 C  
HETATM   11  C   UNL     1      -7.053  10.105  66.917  1.00  0.00    -0.091 C  
BRANCH  11  12
HETATM   12  C   UNL     1      -7.962  11.223  66.496  1.00  0.00    -0.145 C  
BRANCH  12  13
HETATM   13  C   UNL     1      -9.092  11.581  67.477  1.00  0.00    -0.166 C  
HETATM   14  C   UNL     1      -9.070  13.082  67.818  1.00  0.00    -0.200 C  
HETATM   15  C   UNL     1     -10.417  13.308  68.476  1.00  0.00    -0.259 C  
HETATM   16  O   UNL     1      -9.015  13.889  66.641  1.00  0.00    -0.369 OA 
HETATM   17  C   UNL     1     -11.371  12.495  67.607  1.00  0.00    -0.306 C  
HETATM   18  H   UNL     1      -9.001  14.816  66.852  1.00  0.00     0.000 HD 
HETATM   19  C   UNL     1     -10.535  11.363  66.954  1.00  0.00    -0.278 C  
HETATM   20  O   UNL     1     -11.920  13.317  66.579  1.00  0.00    -0.375 OA 
HETATM   21  H   UNL     1     -12.514  12.810  66.039  1.00  0.00     0.000 HD 
BRANCH  19  22
HETATM   22  C   UNL     1     -11.103   9.975  67.306  1.00  0.00    -0.116 C  
BRANCH  22  23
HETATM   23  C   UNL     1     -10.247   9.293  68.377  1.00  0.00    -0.231 C  
BRANCH  23  24
HETATM   24  C   UNL     1     -10.973   9.035  69.702  1.00  0.00    -0.136 C  
HETATM   25  O   UNL     1     -11.498   7.707  69.722  1.00  0.00    -0.465 OA 
HETATM   26  H   UNL     1     -11.947   7.547  70.543  1.00  0.00     0.000 HD 
BRANCH  24  27
HETATM   27  C   UNL     1     -10.018   9.163  70.899  1.00  0.00    -0.357 C  
BRANCH  27  28
HETATM   28  C   UNL     1      -8.560   9.352  70.478  1.00  0.00    -0.265 C  
BRANCH  28  29
HETATM   29  C   UNL     1      -7.789   8.061  70.498  1.00  0.00    -0.094 A  
HETATM   30  C   UNL     1      -8.375   6.901  71.023  1.00  0.00    -0.126 A  
HETATM   31  C   UNL     1      -7.668   5.700  71.040  1.00  0.00    -0.104 A  
HETATM   32  C   UNL     1      -6.370   5.649  70.537  1.00  0.00    -0.031 A  
HETATM   33  C   UNL     1      -5.775   6.801  70.021  1.00  0.00    -0.023 A  
HETATM   34  C   UNL     1      -6.482   8.004  70.003  1.00  0.00    -0.033 A  
ENDBRANCH  28  29
ENDBRANCH  27  28
ENDBRANCH  24  27
ENDBRANCH  23  24
ENDBRANCH  22  23
ENDBRANCH  19  22
ENDBRANCH  12  13
ENDBRANCH  11  12
ENDBRANCH   9  10
ENDBRANCH   8   9
ENDBRANCH   7   8
ENDBRANCH   5   7
ENDBRANCH   4   5
ENDBRANCH   2   4
TORSDOF 14
ENDMDL
MODEL      347
REMARK 921   NORMALIZED FREE ENERGY PREDICTED BY IDOCK:   -2.40 KCAL/MOL
REMARK 922        TOTAL FREE ENERGY PREDICTED BY IDOCK:   -7.66 KCAL/MOL
REMARK 923 INTER-LIGAND FREE ENERGY PREDICTED BY IDOCK:   -6.32 KCAL/MOL
REMARK 924 INTRA-LIGAND FREE ENERGY PREDICTED BY IDOCK:   -1.34 KCAL/MOL
REMARK 927      BINDING AFFINITY PREDICTED BY RF-SCORE:    0.00 PKD
ROOT
HETATM    1  C   UNL     1      -9.214   3.634  63.123  1.00  0.00    -0.102 C  
HETATM    2  C   UNL     1      -9.064   4.059  64.580  1.00  0.00    -0.142 C  
HETATM    3  C   UNL     1      -8.279   3.018  65.368  1.00  0.00    -0.091 C  
ENDROOT
BRANCH   2   4
HETATM    4  O   UNL     1      -8.330   5.295  64.645  1.00  0.00    -0.132 OA 
BRANCH   4   5
HETATM    5  C   UNL     1      -7.379   5.457  63.680  1.00  0.00    -0.053 C  
HETATM    6  O   UNL     1      -6.240   5.009  63.727  1.00  0.00    -0.021 OA 
BRANCH   5   7
HETATM    7  C   UNL     1      -7.934   6.291  62.554  1.00  0.00    -0.097 C  
BRANCH   7   8
HETATM    8  C   UNL     1      -7.284   7.676  62.531  1.00  0.00    -0.085 C  
BRANCH   8   9
HETATM    9  C   UNL     1      -7.955   8.670  63.474  1.00  0.00    -0.160 C  
BRANCH   9  10
HETATM   10  C   UNL     1      -7.004   9.213  64.504  1.00  0.00    -0.090 C  
HETATM   11  C   UNL     1      -7.243  10.214  65.368  1.00  0.00    -0.144 C  
BRANCH  11  12
HETATM   12  C   UNL     1      -8.519  10.993  65.509  1.00  0.00    -0.069 C  
BRANCH  12  13
HETATM   13  C   UNL     1      -9.152  11.003  66.911  1.00  0.00    -0.165 C  
HETATM   14  C   UNL     1      -9.296  12.442  67.439  1.00  0.00    -0.181 C  
HETATM   15  C   UNL     1     -10.235  12.286  68.621  1.00  0.00    -0.177 C  
HETATM   16  O   UNL     1      -9.932  13.293  66.484  1.00  0.00    -0.266 OA 
HETATM   17  C   UNL     1     -11.279  11.300  68.109  1.00  0.00    -0.286 C  
HETATM   18  H   UNL     1     -10.020  14.181  66.810  1.00  0.00     0.000 HD 
HETATM   19  C   UNL     1     -10.598  10.450  67.003  1.00  0.00    -0.305 C  
HETATM   20  O   UNL     1     -12.381  12.004  67.539  1.00  0.00    -0.347 OA 
HETATM   21  H   UNL     1     -13.031  11.389  67.221  1.00  0.00     0.000 HD 
BRANCH  19  22
HETATM   22  C   UNL     1     -10.651   8.949  67.340  1.00  0.00    -0.305 C  
BRANCH  22  23
HETATM   23  C   UNL     1      -9.394   8.517  68.100  1.00  0.00    -0.145 C  
BRANCH  23  24
HETATM   24  C   UNL     1      -9.668   7.732  69.388  1.00  0.00    -0.169 C  
HETATM   25  O   UNL     1      -9.525   6.332  69.146  1.00  0.00    -0.133 OA 
HETATM   26  H   UNL     1      -9.694   5.845  69.944  1.00  0.00     0.000 HD 
BRANCH  24  27
HETATM   27  C   UNL     1      -8.670   8.105  70.495  1.00  0.00    -0.135 C  
BRANCH  27  28
HETATM   28  C   UNL     1      -9.355   8.544  71.790  1.00  0.00    -0.323 C  
BRANCH  28  29
HETATM   29  C   UNL     1     -10.837   8.734  71.614  1.00  0.00    -0.399 A  
HETATM   30  C   UNL     1     -11.351  10.001  71.307  1.00  0.00    -0.336 A  
HETATM   31  C   UNL     1     -12.723  10.184  71.138  1.00  0.00    -0.494 A  
HETATM   32  C   UNL     1     -13.591   9.103  71.280  1.00  0.00    -0.272 A  
HETATM   33  C   UNL     1     -13.089   7.841  71.594  1.00  0.00    -0.378 A  
HETATM   34  C   UNL     1     -11.716   7.657  71.763  1.00  0.00    -0.319 A  
ENDBRANCH  28  29
ENDBRANCH  27  28
ENDBRANCH  24  27
ENDBRANCH  23  24
ENDBRANCH  22  23
ENDBRANCH  19  22
ENDBRANCH  12  13
ENDBRANCH  11  12
ENDBRANCH   9  10
ENDBRANCH   8   9
ENDBRANCH   7   8
ENDBRANCH   5   7
ENDBRANCH   4   5
ENDBRANCH   2   4
TORSDOF 14
ENDMDL
MODEL      348
REMARK 921   NORMALIZED FREE ENERGY PREDICTED BY IDOCK:   -2.37 KCAL/MOL
REMARK 922        TOTAL FREE ENERGY PREDICTED BY IDOCK:   -7.61 KCAL/MOL
REMARK 923 INTER-LIGAND FREE ENERGY PREDICTED BY IDOCK:   -7.01 KCAL/MOL
REMARK 924 INTRA-LIGAND FREE ENERGY PREDICTED BY IDOCK:   -0.60 KCAL/MOL
REMARK 927      BINDING AFFINITY PREDICTED BY RF-SCORE:    0.00 PKD
ROOT
HETATM    1  C   UNL     1      -8.534  17.899  68.841  1.00  0.00    -0.129 C  
HETATM    2  C   UNL     1      -7.583  18.916  68.221  1.00  0.00    -0.287 C  
HETATM    3  C   UNL     1      -8.123  20.331  68.383  1.00  0.00     0.044 C  
ENDROOT
BRANCH   2   4
HETATM    4  O   UNL     1      -6.313  18.857  68.896  1.00  0.00    -0.236 OA 
BRANCH   4   5
HETATM    5  C   UNL     1      -5.604  17.708  68.699  1.00  0.00    -0.156 C  
HETATM    6  O   UNL     1      -5.236  17.281  67.612  1.00  0.00    -0.109 OA 
BRANCH   5   7
HETATM    7  C   UNL     1      -5.360  17.029  70.022  1.00  0.00    -0.201 C  
BRANCH   7   8
HETATM    8  C   UNL     1      -5.129  15.529  69.830  1.00  0.00    -0.098 C  
BRANCH   8   9
HETATM    9  C   UNL     1      -6.142  14.881  68.889  1.00  0.00    -0.085 C  
BRANCH   9  10
HETATM   10  C   UNL     1      -7.554  15.020  69.384  1.00  0.00    -0.195 C  
HETATM   11  C   UNL     1      -8.665  14.566  68.779  1.00  0.00    -0.147 C  
BRANCH  11  12
HETATM   12  C   UNL     1      -8.735  13.800  67.490  1.00  0.00    -0.194 C  
BRANCH  12  13
HETATM   13  C   UNL     1      -9.856  12.750  67.388  1.00  0.00    -0.210 C  
HETATM   14  C   UNL     1     -11.222  13.425  67.169  1.00  0.00    -0.302 C  
HETATM   15  C   UNL     1     -12.113  12.273  66.742  1.00  0.00    -0.043 C  
HETATM   16  O   UNL     1     -11.179  14.366  66.096  1.00  0.00    -0.324 OA 
HETATM   17  C   UNL     1     -11.225  11.479  65.790  1.00  0.00    -0.164 C  
HETATM   18  H   UNL     1     -12.022  14.783  65.960  1.00  0.00     0.000 HD 
HETATM   19  C   UNL     1      -9.755  11.767  66.194  1.00  0.00    -0.250 C  
HETATM   20  O   UNL     1     -11.431  11.918  64.448  1.00  0.00    -0.340 OA 
HETATM   21  H   UNL     1     -10.878  11.423  63.855  1.00  0.00     0.000 HD 
BRANCH  19  22
HETATM   22  C   UNL     1      -9.007  10.467  66.542  1.00  0.00    -0.161 C  
BRANCH  22  23
HETATM   23  C   UNL     1      -9.633   9.790  67.765  1.00  0.00    -0.157 C  
BRANCH  23  24
HETATM   24  C   UNL     1     -10.529   8.590  67.438  1.00  0.00    -0.280 C  
HETATM   25  O   UNL     1      -9.989   7.864  66.334  1.00  0.00    -0.410 OA 
HETATM   26  H   UNL     1     -10.544   7.120  66.131  1.00  0.00     0.000 HD 
BRANCH  24  27
HETATM   27  C   UNL     1     -10.614   7.615  68.623  1.00  0.00    -0.161 C  
BRANCH  27  28
HETATM   28  C   UNL     1     -10.410   8.302  69.974  1.00  0.00    -0.212 C  
BRANCH  28  29
HETATM   29  C   UNL     1     -11.673   8.339  70.791  1.00  0.00    -0.213 A  
HETATM   30  C   UNL     1     -12.519   7.223  70.826  1.00  0.00    -0.189 A  
HETATM   31  C   UNL     1     -13.689   7.248  71.584  1.00  0.00    -0.446 A  
HETATM   32  C   UNL     1     -14.023   8.390  72.309  1.00  0.00    -0.370 A  
HETATM   33  C   UNL     1     -13.192   9.509  72.272  1.00  0.00    -0.507 A  
HETATM   34  C   UNL     1     -12.020   9.485  71.513  1.00  0.00    -0.475 A  
ENDBRANCH  28  29
ENDBRANCH  27  28
ENDBRANCH  24  27
ENDBRANCH  23  24
ENDBRANCH  22  23
ENDBRANCH  19  22
ENDBRANCH  12  13
ENDBRANCH  11  12
ENDBRANCH   9  10
ENDBRANCH   8   9
ENDBRANCH   7   8
ENDBRANCH   5   7
ENDBRANCH   4   5
ENDBRANCH   2   4
TORSDOF 14
ENDMDL
MODEL      349
REMARK 921   NORMALIZED FREE ENERGY PREDICTED BY IDOCK:   -2.31 KCAL/MOL
REMARK 922        TOTAL FREE ENERGY PREDICTED BY IDOCK:   -7.49 KCAL/MOL
REMARK 923 INTER-LIGAND FREE ENERGY PREDICTED BY IDOCK:   -6.00 KCAL/MOL
REMARK 924 INTRA-LIGAND FREE ENERGY PREDICTED BY IDOCK:   -1.49 KCAL/MOL
REMARK 927      BINDING AFFINITY PREDICTED BY RF-SCORE:    0.00 PKD
ROOT
HETATM    1  C   UNL     1      -6.574   3.206  66.883  1.00  0.00    -0.037 C  
HETATM    2  C   UNL     1      -6.595   3.912  65.531  1.00  0.00    -0.040 C  
HETATM    3  C   UNL     1      -6.990   2.944  64.423  1.00  0.00    -0.045 C  
ENDROOT
BRANCH   2   4
HETATM    4  O   UNL     1      -7.575   4.966  65.556  1.00  0.00    -0.083 OA 
BRANCH   4   5
HETATM    5  C   UNL     1      -7.148   6.143  66.097  1.00  0.00    -0.067 C  
HETATM    6  O   UNL     1      -6.221   6.822  65.672  1.00  0.00    -0.037 OA 
BRANCH   5   7
HETATM    7  C   UNL     1      -7.974   6.473  67.313  1.00  0.00    -0.113 C  
BRANCH   7   8
HETATM    8  C   UNL     1      -7.948   7.976  67.598  1.00  0.00    -0.123 C  
BRANCH   8   9
HETATM    9  C   UNL     1      -8.821   8.784  66.641  1.00  0.00    -0.153 C  
BRANCH   9  10
HETATM   10  C   UNL     1      -8.527  10.256  66.703  1.00  0.00    -0.124 C  
HETATM   11  C   UNL     1      -9.393  11.235  67.015  1.00  0.00    -0.183 C  
BRANCH  11  12
HETATM   12  C   UNL     1     -10.836  11.070  67.394  1.00  0.00    -0.327 C  
BRANCH  12  13
HETATM   13  C   UNL     1     -11.551  12.335  67.899  1.00  0.00    -0.416 C  
HETATM   14  C   UNL     1     -12.117  12.119  69.315  1.00  0.00    -0.178 C  
HETATM   15  C   UNL     1     -12.449  13.526  69.774  1.00  0.00    -0.155 C  
HETATM   16  O   UNL     1     -11.131  11.589  70.201  1.00  0.00    -0.470 OA 
HETATM   17  C   UNL     1     -11.256  14.342  69.288  1.00  0.00    -0.275 C  
HETATM   18  H   UNL     1     -11.481  11.455  71.075  1.00  0.00     0.000 HD 
HETATM   19  C   UNL     1     -10.661  13.593  68.067  1.00  0.00    -0.258 C  
HETATM   20  O   UNL     1     -10.266  14.419  70.311  1.00  0.00    -0.117 OA 
HETATM   21  H   UNL     1      -9.523  14.928  70.009  1.00  0.00     0.000 HD 
BRANCH  19  22
HETATM   22  C   UNL     1     -10.641  14.491  66.816  1.00  0.00    -0.276 C  
BRANCH  22  23
HETATM   23  C   UNL     1      -9.230  15.024  66.552  1.00  0.00    -0.320 C  
BRANCH  23  24
HETATM   24  C   UNL     1      -8.191  14.619  67.604  1.00  0.00    -0.171 C  
HETATM   25  O   UNL     1      -7.181  13.806  67.007  1.00  0.00    -0.351 OA 
HETATM   26  H   UNL     1      -6.537  13.556  67.658  1.00  0.00     0.000 HD 
BRANCH  24  27
HETATM   27  C   UNL     1      -7.489  15.849  68.200  1.00  0.00    -0.132 C  
BRANCH  27  28
HETATM   28  C   UNL     1      -6.214  16.229  67.447  1.00  0.00    -0.205 C  
BRANCH  28  29
HETATM   29  C   UNL     1      -6.137  17.705  67.164  1.00  0.00    -0.169 A  
HETATM   30  C   UNL     1      -6.799  18.241  66.051  1.00  0.00    -0.311 A  
HETATM   31  C   UNL     1      -6.737  19.608  65.785  1.00  0.00    -0.283 A  
HETATM   32  C   UNL     1      -6.009  20.448  66.625  1.00  0.00    -0.215 A  
HETATM   33  C   UNL     1      -5.340  19.922  67.729  1.00  0.00    -0.196 A  
HETATM   34  C   UNL     1      -5.401  18.553  67.997  1.00  0.00    -0.170 A  
ENDBRANCH  28  29
ENDBRANCH  27  28
ENDBRANCH  24  27
ENDBRANCH  23  24
ENDBRANCH  22  23
ENDBRANCH  19  22
ENDBRANCH  12  13
ENDBRANCH  11  12
ENDBRANCH   9  10
ENDBRANCH   8   9
ENDBRANCH   7   8
ENDBRANCH   5   7
ENDBRANCH   4   5
ENDBRANCH   2   4
TORSDOF 14
ENDMDL
MODEL      350
REMARK 921   NORMALIZED FREE ENERGY PREDICTED BY IDOCK:   -2.30 KCAL/MOL
REMARK 922        TOTAL FREE ENERGY PREDICTED BY IDOCK:   -7.48 KCAL/MOL
REMARK 923 INTER-LIGAND FREE ENERGY PREDICTED BY IDOCK:   -4.58 KCAL/MOL
REMARK 924 INTRA-LIGAND FREE ENERGY PREDICTED BY IDOCK:   -2.90 KCAL/MOL
REMARK 927      BINDING AFFINITY PREDICTED BY RF-SCORE:    0.00 PKD
ROOT
HETATM    1  C   UNL     1      -5.683   8.097  70.538  1.00  0.00    -0.029 C  
HETATM    2  C   UNL     1      -6.220   7.871  71.947  1.00  0.00    -0.041 C  
HETATM    3  C   UNL     1      -5.216   8.344  72.990  1.00  0.00    -0.046 C  
ENDROOT
BRANCH   2   4
HETATM    4  O   UNL     1      -7.426   8.636  72.128  1.00  0.00    -0.231 OA 
BRANCH   4   5
HETATM    5  C   UNL     1      -8.387   8.032  72.886  1.00  0.00    -0.172 C  
HETATM    6  O   UNL     1      -8.188   7.141  73.703  1.00  0.00    -0.116 OA 
BRANCH   5   7
HETATM    7  C   UNL     1      -9.737   8.612  72.550  1.00  0.00    -0.259 C  
BRANCH   7   8
HETATM    8  C   UNL     1     -10.855   7.813  73.223  1.00  0.00    -0.312 C  
BRANCH   8   9
HETATM    9  C   UNL     1     -12.001   7.468  72.275  1.00  0.00    -0.303 C  
BRANCH   9  10
HETATM   10  C   UNL     1     -11.721   7.891  70.860  1.00  0.00    -0.271 C  
HETATM   11  C   UNL     1     -11.094   7.169  69.916  1.00  0.00    -0.264 C  
BRANCH  11  12
HETATM   12  C   UNL     1     -10.560   5.773  70.060  1.00  0.00    -0.380 C  
BRANCH  12  13
HETATM   13  C   UNL     1      -9.064   5.587  69.751  1.00  0.00    -0.157 C  
HETATM   14  C   UNL     1      -8.338   4.918  70.933  1.00  0.00    -0.107 C  
HETATM   15  C   UNL     1      -7.011   4.498  70.331  1.00  0.00    -0.041 C  
HETATM   16  O   UNL     1      -9.015   3.739  71.368  1.00  0.00    -0.098 OA 
HETATM   17  C   UNL     1      -7.404   3.954  68.962  1.00  0.00    -0.054 C  
HETATM   18  H   UNL     1      -8.567   3.327  72.098  1.00  0.00     0.000 HD 
HETATM   19  C   UNL     1      -8.731   4.652  68.561  1.00  0.00    -0.113 C  
HETATM   20  O   UNL     1      -7.626   2.547  69.040  1.00  0.00    -0.044 OA 
HETATM   21  H   UNL     1      -7.872   2.208  68.187  1.00  0.00     0.000 HD 
BRANCH  19  22
HETATM   22  C   UNL     1      -8.585   5.401  67.224  1.00  0.00    -0.108 C  
BRANCH  22  23
HETATM   23  C   UNL     1      -7.176   5.982  67.077  1.00  0.00    -0.075 C  
BRANCH  23  24
HETATM   24  C   UNL     1      -7.132   7.414  66.533  1.00  0.00    -0.074 C  
HETATM   25  O   UNL     1      -5.848   7.683  65.968  1.00  0.00    -0.036 OA 
HETATM   26  H   UNL     1      -5.821   8.570  65.630  1.00  0.00     0.000 HD 
BRANCH  24  27
HETATM   27  C   UNL     1      -8.170   7.623  65.419  1.00  0.00    -0.137 C  
BRANCH  27  28
HETATM   28  C   UNL     1      -9.167   8.737  65.737  1.00  0.00    -0.269 C  
BRANCH  28  29
HETATM   29  C   UNL     1      -8.669   9.656  66.819  1.00  0.00    -0.144 A  
HETATM   30  C   UNL     1      -7.911  10.787  66.486  1.00  0.00    -0.145 A  
HETATM   31  C   UNL     1      -7.450  11.645  67.483  1.00  0.00    -0.123 A  
HETATM   32  C   UNL     1      -7.738  11.378  68.819  1.00  0.00    -0.135 A  
HETATM   33  C   UNL     1      -8.484  10.250  69.161  1.00  0.00    -0.164 A  
HETATM   34  C   UNL     1      -8.946   9.389  68.163  1.00  0.00    -0.128 A  
ENDBRANCH  28  29
ENDBRANCH  27  28
ENDBRANCH  24  27
ENDBRANCH  23  24
ENDBRANCH  22  23
ENDBRANCH  19  22
ENDBRANCH  12  13
ENDBRANCH  11  12
ENDBRANCH   9  10
ENDBRANCH   8   9
ENDBRANCH   7   8
ENDBRANCH   5   7
ENDBRANCH   4   5
ENDBRANCH   2   4
TORSDOF 14
ENDMDL
MODEL      351
REMARK 921   NORMALIZED FREE ENERGY PREDICTED BY IDOCK:   -2.30 KCAL/MOL
REMARK 922        TOTAL FREE ENERGY PREDICTED BY IDOCK:   -7.48 KCAL/MOL
REMARK 923 INTER-LIGAND FREE ENERGY PREDICTED BY IDOCK:   -5.96 KCAL/MOL
REMARK 924 INTRA-LIGAND FREE ENERGY PREDICTED BY IDOCK:   -1.52 KCAL/MOL
REMARK 927      BINDING AFFINITY PREDICTED BY RF-SCORE:    0.00 PKD
ROOT
HETATM    1  C   UNL     1      -6.154  15.065  69.448  1.00  0.00    -0.110 C  
HETATM    2  C   UNL     1      -6.604  16.026  68.354  1.00  0.00    -0.120 C  
HETATM    3  C   UNL     1      -5.404  16.679  67.680  1.00  0.00    -0.156 C  
ENDROOT
BRANCH   2   4
HETATM    4  O   UNL     1      -7.324  15.297  67.343  1.00  0.00    -0.183 OA 
BRANCH   4   5
HETATM    5  C   UNL     1      -7.974  14.181  67.785  1.00  0.00    -0.170 C  
HETATM    6  O   UNL     1      -8.822  14.159  68.669  1.00  0.00    -0.184 OA 
BRANCH   5   7
HETATM    7  C   UNL     1      -7.475  12.972  67.035  1.00  0.00     0.131 C  
BRANCH   7   8
HETATM    8  C   UNL     1      -6.428  12.217  67.856  1.00  0.00    -0.088 C  
BRANCH   8   9
HETATM    9  C   UNL     1      -6.914  11.847  69.255  1.00  0.00    -0.046 C  
BRANCH   9  10
HETATM   10  C   UNL     1      -7.778  10.618  69.254  1.00  0.00    -0.142 C  
HETATM   11  C   UNL     1      -7.537   9.468  68.602  1.00  0.00    -0.080 C  
BRANCH  11  12
HETATM   12  C   UNL     1      -6.340   9.152  67.752  1.00  0.00    -0.055 C  
BRANCH  12  13
HETATM   13  C   UNL     1      -6.615   8.927  66.255  1.00  0.00    -0.066 C  
HETATM   14  C   UNL     1      -6.099   7.549  65.802  1.00  0.00    -0.038 C  
HETATM   15  C   UNL     1      -6.757   7.359  64.449  1.00  0.00    -0.047 C  
HETATM   16  O   UNL     1      -6.557   6.506  66.663  1.00  0.00    -0.045 OA 
HETATM   17  C   UNL     1      -8.176   7.870  64.676  1.00  0.00    -0.091 C  
HETATM   18  H   UNL     1      -6.239   5.655  66.384  1.00  0.00     0.000 HD 
HETATM   19  C   UNL     1      -8.108   8.895  65.839  1.00  0.00    -0.109 C  
HETATM   20  O   UNL     1      -9.030   6.793  65.058  1.00  0.00    -0.347 OA 
HETATM   21  H   UNL     1      -9.914   7.112  65.200  1.00  0.00     0.000 HD 
BRANCH  19  22
HETATM   22  C   UNL     1      -8.644  10.271  65.403  1.00  0.00    -0.169 C  
BRANCH  22  23
HETATM   23  C   UNL     1     -10.153  10.369  65.648  1.00  0.00    -0.337 C  
BRANCH  23  24
HETATM   24  C   UNL     1     -10.547  11.265  66.829  1.00  0.00    -0.260 C  
HETATM   25  O   UNL     1     -11.481  12.256  66.399  1.00  0.00    -0.340 OA 
HETATM   26  H   UNL     1     -11.726  12.811  67.130  1.00  0.00     0.000 HD 
BRANCH  24  27
HETATM   27  C   UNL     1     -11.227  10.455  67.944  1.00  0.00    -0.332 C  
BRANCH  27  28
HETATM   28  C   UNL     1     -11.245  11.189  69.285  1.00  0.00    -0.331 C  
BRANCH  28  29
HETATM   29  C   UNL     1     -11.616  10.281  70.426  1.00  0.00    -0.411 A  
HETATM   30  C   UNL     1     -12.965  10.044  70.724  1.00  0.00    -0.330 A  
HETATM   31  C   UNL     1     -13.316   9.199  71.777  1.00  0.00    -0.469 A  
HETATM   32  C   UNL     1     -12.323   8.592  72.542  1.00  0.00    -0.372 A  
HETATM   33  C   UNL     1     -10.979   8.830  72.258  1.00  0.00    -0.336 A  
HETATM   34  C   UNL     1     -10.626   9.674  71.204  1.00  0.00    -0.327 A  
ENDBRANCH  28  29
ENDBRANCH  27  28
ENDBRANCH  24  27
ENDBRANCH  23  24
ENDBRANCH  22  23
ENDBRANCH  19  22
ENDBRANCH  12  13
ENDBRANCH  11  12
ENDBRANCH   9  10
ENDBRANCH   8   9
ENDBRANCH   7   8
ENDBRANCH   5   7
ENDBRANCH   4   5
ENDBRANCH   2   4
TORSDOF 14
ENDMDL
MODEL      352
REMARK 921   NORMALIZED FREE ENERGY PREDICTED BY IDOCK:   -2.27 KCAL/MOL
REMARK 922        TOTAL FREE ENERGY PREDICTED BY IDOCK:   -7.42 KCAL/MOL
REMARK 923 INTER-LIGAND FREE ENERGY PREDICTED BY IDOCK:   -6.96 KCAL/MOL
REMARK 924 INTRA-LIGAND FREE ENERGY PREDICTED BY IDOCK:   -0.46 KCAL/MOL
REMARK 927      BINDING AFFINITY PREDICTED BY RF-SCORE:    0.00 PKD
ROOT
HETATM    1  C   UNL     1      -6.467   9.253  68.954  1.00  0.00    -0.047 C  
HETATM    2  C   UNL     1      -6.901   8.091  68.069  1.00  0.00    -0.072 C  
HETATM    3  C   UNL     1      -6.080   8.052  66.786  1.00  0.00    -0.053 C  
ENDROOT
BRANCH   2   4
HETATM    4  O   UNL     1      -6.677   6.850  68.763  1.00  0.00    -0.052 OA 
BRANCH   4   5
HETATM    5  C   UNL     1      -7.143   5.736  68.126  1.00  0.00    -0.074 C  
HETATM    6  O   UNL     1      -6.821   4.584  68.388  1.00  0.00    -0.049 OA 
BRANCH   5   7
HETATM    7  C   UNL     1      -8.099   6.140  67.033  1.00  0.00    -0.106 C  
BRANCH   7   8
HETATM    8  C   UNL     1      -9.547   5.874  67.450  1.00  0.00    -0.117 C  
BRANCH   8   9
HETATM    9  C   UNL     1     -10.539   6.861  66.841  1.00  0.00    -0.372 C  
BRANCH   9  10
HETATM   10  C   UNL     1     -11.003   7.891  67.832  1.00  0.00     0.069 C  
HETATM   11  C   UNL     1     -10.707   9.201  67.825  1.00  0.00    -0.243 C  
BRANCH  11  12
HETATM   12  C   UNL     1      -9.869   9.927  66.812  1.00  0.00    -0.256 C  
BRANCH  12  13
HETATM   13  C   UNL     1     -10.133  11.437  66.674  1.00  0.00    -0.247 C  
HETATM   14  C   UNL     1     -11.644  11.730  66.650  1.00  0.00    -0.197 C  
HETATM   15  C   UNL     1     -11.710  13.230  66.872  1.00  0.00    -0.437 C  
HETATM   16  O   UNL     1     -12.322  11.097  67.735  1.00  0.00    -0.294 OA 
HETATM   17  C   UNL     1     -10.662  13.469  67.954  1.00  0.00    -0.247 C  
HETATM   18  H   UNL     1     -13.255  11.278  67.720  1.00  0.00     0.000 HD 
HETATM   19  C   UNL     1      -9.624  12.321  67.841  1.00  0.00    -0.203 C  
HETATM   20  O   UNL     1     -11.270  13.418  69.244  1.00  0.00    -0.301 OA 
HETATM   21  H   UNL     1     -10.617  13.567  69.918  1.00  0.00     0.000 HD 
BRANCH  19  22
HETATM   22  C   UNL     1      -8.205  12.873  67.608  1.00  0.00    -0.177 C  
BRANCH  22  23
HETATM   23  C   UNL     1      -8.227  14.401  67.502  1.00  0.00    -0.201 C  
BRANCH  23  24
HETATM   24  C   UNL     1      -7.032  15.101  68.160  1.00  0.00    -0.125 C  
HETATM   25  O   UNL     1      -6.032  15.383  67.181  1.00  0.00    -0.306 OA 
HETATM   26  H   UNL     1      -5.292  15.817  67.588  1.00  0.00     0.000 HD 
BRANCH  24  27
HETATM   27  C   UNL     1      -7.444  16.441  68.788  1.00  0.00    -0.207 C  
BRANCH  27  28
HETATM   28  C   UNL     1      -8.960  16.604  68.901  1.00  0.00    -0.239 C  
BRANCH  28  29
HETATM   29  C   UNL     1      -9.451  17.855  68.224  1.00  0.00    -0.300 A  
HETATM   30  C   UNL     1      -9.744  18.995  68.983  1.00  0.00    -0.388 A  
HETATM   31  C   UNL     1     -10.194  20.159  68.362  1.00  0.00    -0.438 A  
HETATM   32  C   UNL     1     -10.360  20.190  66.979  1.00  0.00    -0.502 A  
HETATM   33  C   UNL     1     -10.080  19.056  66.217  1.00  0.00    -0.479 A  
HETATM   34  C   UNL     1      -9.628  17.891  66.837  1.00  0.00    -0.300 A  
ENDBRANCH  28  29
ENDBRANCH  27  28
ENDBRANCH  24  27
ENDBRANCH  23  24
ENDBRANCH  22  23
ENDBRANCH  19  22
ENDBRANCH  12  13
ENDBRANCH  11  12
ENDBRANCH   9  10
ENDBRANCH   8   9
ENDBRANCH   7   8
ENDBRANCH   5   7
ENDBRANCH   4   5
ENDBRANCH   2   4
TORSDOF 14
ENDMDL
MODEL      353
REMARK 921   NORMALIZED FREE ENERGY PREDICTED BY IDOCK:   -2.27 KCAL/MOL
REMARK 922        TOTAL FREE ENERGY PREDICTED BY IDOCK:   -7.42 KCAL/MOL
REMARK 923 INTER-LIGAND FREE ENERGY PREDICTED BY IDOCK:   -5.93 KCAL/MOL
REMARK 924 INTRA-LIGAND FREE ENERGY PREDICTED BY IDOCK:   -1.49 KCAL/MOL
REMARK 927      BINDING AFFINITY PREDICTED BY RF-SCORE:    0.00 PKD
ROOT
HETATM    1  C   UNL     1      -6.473   6.172  70.283  1.00  0.00    -0.043 C  
HETATM    2  C   UNL     1      -7.405   5.826  71.439  1.00  0.00    -0.083 C  
HETATM    3  C   UNL     1      -6.785   6.225  72.772  1.00  0.00    -0.066 C  
ENDROOT
BRANCH   2   4
HETATM    4  O   UNL     1      -8.636   6.559  71.298  1.00  0.00    -0.126 OA 
BRANCH   4   5
HETATM    5  C   UNL     1      -9.716   5.812  70.924  1.00  0.00    -0.174 C  
HETATM    6  O   UNL     1      -9.963   4.679  71.318  1.00  0.00    -0.186 OA 
BRANCH   5   7
HETATM    7  C   UNL     1     -10.549   6.585  69.934  1.00  0.00    -0.282 C  
BRANCH   7   8
HETATM    8  C   UNL     1     -12.018   6.607  70.359  1.00  0.00    -0.342 C  
BRANCH   8   9
HETATM    9  C   UNL     1     -12.638   8.002  70.306  1.00  0.00     0.864 C  
BRANCH   9  10
HETATM   10  C   UNL     1     -11.736   9.051  70.893  1.00  0.00    -0.327 C  
HETATM   11  C   UNL     1     -11.392  10.221  70.327  1.00  0.00    -0.398 C  
BRANCH  11  12
HETATM   12  C   UNL     1     -11.854  10.745  68.998  1.00  0.00    -0.325 C  
BRANCH  12  13
HETATM   13  C   UNL     1     -10.747  11.200  68.030  1.00  0.00    -0.254 C  
HETATM   14  C   UNL     1     -10.137   9.996  67.288  1.00  0.00    -0.209 C  
HETATM   15  C   UNL     1      -9.356  10.644  66.161  1.00  0.00    -0.207 C  
HETATM   16  O   UNL     1     -11.145   9.170  66.705  1.00  0.00    -0.036 OA 
HETATM   17  C   UNL     1     -10.291  11.747  65.677  1.00  0.00    -0.252 C  
HETATM   18  H   UNL     1     -10.769   8.427  66.248  1.00  0.00     0.000 HD 
HETATM   19  C   UNL     1     -11.199  12.130  66.876  1.00  0.00    -0.375 C  
HETATM   20  O   UNL     1     -11.109  11.265  64.612  1.00  0.00    -0.264 OA 
HETATM   21  H   UNL     1     -11.691  11.953  64.311  1.00  0.00     0.000 HD 
BRANCH  19  22
HETATM   22  C   UNL     1     -11.070  13.626  67.218  1.00  0.00    -0.309 C  
BRANCH  22  23
HETATM   23  C   UNL     1     -11.621  14.493  66.082  1.00  0.00    -0.366 C  
BRANCH  23  24
HETATM   24  C   UNL     1     -10.672  15.600  65.609  1.00  0.00    -0.364 C  
HETATM   25  O   UNL     1     -11.295  16.875  65.759  1.00  0.00     0.317 OA 
HETATM   26  H   UNL     1     -10.707  17.561  65.466  1.00  0.00     0.000 HD 
BRANCH  24  27
HETATM   27  C   UNL     1      -9.381  15.625  66.443  1.00  0.00    -0.332 C  
BRANCH  27  28
HETATM   28  C   UNL     1      -9.491  16.514  67.682  1.00  0.00    -0.225 C  
BRANCH  28  29
HETATM   29  C   UNL     1      -8.566  17.699  67.617  1.00  0.00    -0.224 A  
HETATM   30  C   UNL     1      -9.089  18.999  67.604  1.00  0.00    -0.327 A  
HETATM   31  C   UNL     1      -8.237  20.101  67.549  1.00  0.00    -0.373 A  
HETATM   32  C   UNL     1      -6.857  19.912  67.501  1.00  0.00    -0.266 A  
HETATM   33  C   UNL     1      -6.329  18.622  67.502  1.00  0.00    -0.195 A  
HETATM   34  C   UNL     1      -7.180  17.518  67.558  1.00  0.00    -0.184 A  
ENDBRANCH  28  29
ENDBRANCH  27  28
ENDBRANCH  24  27
ENDBRANCH  23  24
ENDBRANCH  22  23
ENDBRANCH  19  22
ENDBRANCH  12  13
ENDBRANCH  11  12
ENDBRANCH   9  10
ENDBRANCH   8   9
ENDBRANCH   7   8
ENDBRANCH   5   7
ENDBRANCH   4   5
ENDBRANCH   2   4
TORSDOF 14
ENDMDL
MODEL      354
REMARK 921   NORMALIZED FREE ENERGY PREDICTED BY IDOCK:   -2.27 KCAL/MOL
REMARK 922        TOTAL FREE ENERGY PREDICTED BY IDOCK:   -7.41 KCAL/MOL
REMARK 923 INTER-LIGAND FREE ENERGY PREDICTED BY IDOCK:   -6.67 KCAL/MOL
REMARK 924 INTRA-LIGAND FREE ENERGY PREDICTED BY IDOCK:   -0.75 KCAL/MOL
REMARK 927      BINDING AFFINITY PREDICTED BY RF-SCORE:    0.00 PKD
ROOT
HETATM    1  C   UNL     1     -10.664   5.868  73.348  1.00  0.00    -0.293 C  
HETATM    2  C   UNL     1      -9.751   5.619  72.153  1.00  0.00    -0.153 C  
HETATM    3  C   UNL     1     -10.383   6.147  70.871  1.00  0.00    -0.267 C  
ENDROOT
BRANCH   2   4
HETATM    4  O   UNL     1      -8.509   6.321  72.344  1.00  0.00    -0.115 OA 
BRANCH   4   5
HETATM    5  C   UNL     1      -8.347   7.435  71.572  1.00  0.00    -0.108 C  
HETATM    6  O   UNL     1      -8.749   8.556  71.855  1.00  0.00    -0.176 OA 
BRANCH   5   7
HETATM    7  C   UNL     1      -7.617   7.073  70.304  1.00  0.00    -0.087 C  
BRANCH   7   8
HETATM    8  C   UNL     1      -7.735   8.193  69.269  1.00  0.00    -0.104 C  
BRANCH   8   9
HETATM    9  C   UNL     1      -8.178   7.697  67.895  1.00  0.00    -0.123 C  
BRANCH   9  10
HETATM   10  C   UNL     1      -9.486   8.299  67.464  1.00  0.00    -0.182 C  
HETATM   11  C   UNL     1      -9.708   9.026  66.356  1.00  0.00    -0.337 C  
BRANCH  11  12
HETATM   12  C   UNL     1      -8.705   9.373  65.294  1.00  0.00    -0.204 C  
BRANCH  12  13
HETATM   13  C   UNL     1      -8.923  10.713  64.571  1.00  0.00    -0.214 C  
HETATM   14  C   UNL     1      -8.888  10.526  63.043  1.00  0.00    -0.225 C  
HETATM   15  C   UNL     1      -9.463  11.829  62.521  1.00  0.00     0.483 C  
HETATM   16  O   UNL     1      -9.748   9.467  62.622  1.00  0.00    -0.509 OA 
HETATM   17  C   UNL     1     -10.626  12.102  63.468  1.00  0.00    -0.458 C  
HETATM   18  H   UNL     1      -9.727   9.351  61.679  1.00  0.00     0.000 HD 
HETATM   19  C   UNL     1     -10.295  11.394  64.809  1.00  0.00    -0.349 C  
HETATM   20  O   UNL     1     -11.830  11.550  62.938  1.00  0.00    -0.859 OA 
HETATM   21  H   UNL     1     -12.554  11.721  63.528  1.00  0.00     0.000 HD 
BRANCH  19  22
HETATM   22  C   UNL     1     -10.280  12.394  65.980  1.00  0.00    -0.267 C  
BRANCH  22  23
HETATM   23  C   UNL     1      -8.912  13.073  66.097  1.00  0.00     0.181 C  
BRANCH  23  24
HETATM   24  C   UNL     1      -8.866  14.243  67.087  1.00  0.00    -0.229 C  
HETATM   25  O   UNL     1      -7.749  14.097  67.964  1.00  0.00    -0.120 OA 
HETATM   26  H   UNL     1      -7.720  14.822  68.577  1.00  0.00     0.000 HD 
BRANCH  24  27
HETATM   27  C   UNL     1      -8.699  15.586  66.359  1.00  0.00    -0.333 C  
BRANCH  27  28
HETATM   28  C   UNL     1      -7.352  16.252  66.643  1.00  0.00    -0.204 C  
BRANCH  28  29
HETATM   29  C   UNL     1      -7.510  17.607  67.278  1.00  0.00    -0.210 A  
HETATM   30  C   UNL     1      -7.834  18.719  66.489  1.00  0.00    -0.286 A  
HETATM   31  C   UNL     1      -7.987  19.976  67.072  1.00  0.00    -0.350 A  
HETATM   32  C   UNL     1      -7.811  20.133  68.445  1.00  0.00    -0.117 A  
HETATM   33  C   UNL     1      -7.478  19.034  69.236  1.00  0.00    -0.185 A  
HETATM   34  C   UNL     1      -7.326  17.774  68.655  1.00  0.00    -0.269 A  
ENDBRANCH  28  29
ENDBRANCH  27  28
ENDBRANCH  24  27
ENDBRANCH  23  24
ENDBRANCH  22  23
ENDBRANCH  19  22
ENDBRANCH  12  13
ENDBRANCH  11  12
ENDBRANCH   9  10
ENDBRANCH   8   9
ENDBRANCH   7   8
ENDBRANCH   5   7
ENDBRANCH   4   5
ENDBRANCH   2   4
TORSDOF 14
ENDMDL
MODEL      355
REMARK 921   NORMALIZED FREE ENERGY PREDICTED BY IDOCK:   -2.20 KCAL/MOL
REMARK 922        TOTAL FREE ENERGY PREDICTED BY IDOCK:   -7.30 KCAL/MOL
REMARK 923 INTER-LIGAND FREE ENERGY PREDICTED BY IDOCK:   -6.65 KCAL/MOL
REMARK 924 INTRA-LIGAND FREE ENERGY PREDICTED BY IDOCK:   -0.65 KCAL/MOL
REMARK 927      BINDING AFFINITY PREDICTED BY RF-SCORE:    0.00 PKD
ROOT
HETATM    1  C   UNL     1      -8.686  10.808  69.310  1.00  0.00    -0.044 C  
HETATM    2  C   UNL     1      -8.445  10.175  67.944  1.00  0.00    -0.118 C  
HETATM    3  C   UNL     1      -7.034   9.608  67.852  1.00  0.00    -0.079 C  
ENDROOT
BRANCH   2   4
HETATM    4  O   UNL     1      -9.363   9.083  67.754  1.00  0.00    -0.139 OA 
BRANCH   4   5
HETATM    5  C   UNL     1      -8.864   7.847  68.047  1.00  0.00    -0.124 C  
HETATM    6  O   UNL     1      -7.933   7.623  68.810  1.00  0.00    -0.121 OA 
BRANCH   5   7
HETATM    7  C   UNL     1      -9.617   6.797  67.271  1.00  0.00    -0.165 C  
BRANCH   7   8
HETATM    8  C   UNL     1      -8.651   5.848  66.559  1.00  0.00    -0.123 C  
BRANCH   8   9
HETATM    9  C   UNL     1      -8.346   4.588  67.364  1.00  0.00    -0.104 C  
BRANCH   9  10
HETATM   10  C   UNL     1      -9.544   4.088  68.121  1.00  0.00    -0.189 C  
HETATM   11  C   UNL     1      -9.790   4.252  69.431  1.00  0.00    -0.205 C  
BRANCH  11  12
HETATM   12  C   UNL     1      -8.936   4.991  70.420  1.00  0.00    -0.159 C  
BRANCH  12  13
HETATM   13  C   UNL     1      -9.688   5.815  71.480  1.00  0.00    -0.193 C  
HETATM   14  C   UNL     1     -10.164   4.918  72.638  1.00  0.00    -0.188 C  
HETATM   15  C   UNL     1     -10.543   5.915  73.715  1.00  0.00    -0.275 C  
HETATM   16  O   UNL     1      -9.104   4.106  73.145  1.00  0.00    -0.109 OA 
HETATM   17  C   UNL     1      -9.423   6.948  73.646  1.00  0.00    -0.188 C  
HETATM   18  H   UNL     1      -9.398   3.552  73.859  1.00  0.00     0.000 HD 
HETATM   19  C   UNL     1      -8.857   6.906  72.202  1.00  0.00    -0.136 C  
HETATM   20  O   UNL     1      -8.384   6.605  74.561  1.00  0.00    -0.129 OA 
HETATM   21  H   UNL     1      -7.686   7.249  74.518  1.00  0.00     0.000 HD 
BRANCH  19  22
HETATM   22  C   UNL     1      -8.952   8.286  71.525  1.00  0.00    -0.223 C  
BRANCH  22  23
HETATM   23  C   UNL     1     -10.306   8.941  71.814  1.00  0.00    -0.426 C  
BRANCH  23  24
HETATM   24  C   UNL     1     -11.433   8.516  70.866  1.00  0.00    -0.267 C  
HETATM   25  O   UNL     1     -12.525   7.980  71.613  1.00  0.00    -0.302 OA 
HETATM   26  H   UNL     1     -13.224   7.717  71.026  1.00  0.00     0.000 HD 
BRANCH  24  27
HETATM   27  C   UNL     1     -11.974   9.712  70.067  1.00  0.00     0.065 C  
BRANCH  27  28
HETATM   28  C   UNL     1     -12.132  10.973  70.918  1.00  0.00    -0.444 C  
BRANCH  28  29
HETATM   29  C   UNL     1     -12.040  12.230  70.096  1.00  0.00    -0.364 A  
HETATM   30  C   UNL     1     -11.689  12.158  68.741  1.00  0.00    -0.374 A  
HETATM   31  C   UNL     1     -11.607  13.319  67.973  1.00  0.00    -0.371 A  
HETATM   32  C   UNL     1     -11.869  14.558  68.553  1.00  0.00    -0.355 A  
HETATM   33  C   UNL     1     -12.209  14.639  69.903  1.00  0.00    -0.365 A  
HETATM   34  C   UNL     1     -12.292  13.478  70.674  1.00  0.00    -0.432 A  
ENDBRANCH  28  29
ENDBRANCH  27  28
ENDBRANCH  24  27
ENDBRANCH  23  24
ENDBRANCH  22  23
ENDBRANCH  19  22
ENDBRANCH  12  13
ENDBRANCH  11  12
ENDBRANCH   9  10
ENDBRANCH   8   9
ENDBRANCH   7   8
ENDBRANCH   5   7
ENDBRANCH   4   5
ENDBRANCH   2   4
TORSDOF 14
ENDMDL
MODEL      356
REMARK 921   NORMALIZED FREE ENERGY PREDICTED BY IDOCK:   -2.17 KCAL/MOL
REMARK 922        TOTAL FREE ENERGY PREDICTED BY IDOCK:   -7.24 KCAL/MOL
REMARK 923 INTER-LIGAND FREE ENERGY PREDICTED BY IDOCK:   -5.77 KCAL/MOL
REMARK 924 INTRA-LIGAND FREE ENERGY PREDICTED BY IDOCK:   -1.47 KCAL/MOL
REMARK 927      BINDING AFFINITY PREDICTED BY RF-SCORE:    0.00 PKD
ROOT
HETATM    1  C   UNL     1     -10.761  12.014  69.017  1.00  0.00    -0.178 C  
HETATM    2  C   UNL     1      -9.950  11.821  67.740  1.00  0.00    -0.190 C  
HETATM    3  C   UNL     1      -8.581  12.477  67.865  1.00  0.00    -0.179 C  
ENDROOT
BRANCH   2   4
HETATM    4  O   UNL     1      -9.737  10.415  67.516  1.00  0.00    -0.165 OA 
BRANCH   4   5
HETATM    5  C   UNL     1      -8.904   9.805  68.408  1.00  0.00    -0.120 C  
HETATM    6  O   UNL     1      -8.570  10.265  69.493  1.00  0.00    -0.169 OA 
BRANCH   5   7
HETATM    7  C   UNL     1      -8.438   8.485  67.848  1.00  0.00    -0.130 C  
BRANCH   7   8
HETATM    8  C   UNL     1      -7.016   8.168  68.314  1.00  0.00    -0.076 C  
BRANCH   8   9
HETATM    9  C   UNL     1      -5.973   8.328  67.211  1.00  0.00    -0.050 C  
BRANCH   9  10
HETATM   10  C   UNL     1      -6.516   9.050  66.010  1.00  0.00    -0.064 C  
HETATM   11  C   UNL     1      -6.654   8.551  64.769  1.00  0.00    -0.065 C  
BRANCH  11  12
HETATM   12  C   UNL     1      -6.320   7.158  64.319  1.00  0.00    -0.040 C  
BRANCH  12  13
HETATM   13  C   UNL     1      -7.440   6.114  64.466  1.00  0.00    -0.083 C  
HETATM   14  C   UNL     1      -7.715   5.410  63.124  1.00  0.00    -0.080 C  
HETATM   15  C   UNL     1      -8.553   4.211  63.527  1.00  0.00    -0.105 C  
HETATM   16  O   UNL     1      -6.513   4.924  62.528  1.00  0.00    -0.024 OA 
HETATM   17  C   UNL     1      -7.865   3.714  64.794  1.00  0.00    -0.082 C  
HETATM   18  H   UNL     1      -6.682   4.490  61.700  1.00  0.00     0.000 HD 
HETATM   19  C   UNL     1      -7.142   4.934  65.426  1.00  0.00    -0.063 C  
HETATM   20  O   UNL     1      -6.896   2.720  64.468  1.00  0.00    -0.038 OA 
HETATM   21  H   UNL     1      -6.468   2.410  65.258  1.00  0.00     0.000 HD 
BRANCH  19  22
HETATM   22  C   UNL     1      -7.627   5.186  66.865  1.00  0.00    -0.088 C  
BRANCH  22  23
HETATM   23  C   UNL     1      -9.045   4.643  67.064  1.00  0.00    -0.126 C  
BRANCH  23  24
HETATM   24  C   UNL     1     -10.159   5.593  66.607  1.00  0.00    -0.198 C  
HETATM   25  O   UNL     1     -11.159   4.865  65.893  1.00  0.00    -0.753 OA 
HETATM   26  H   UNL     1     -11.849   5.453  65.610  1.00  0.00     0.000 HD 
BRANCH  24  27
HETATM   27  C   UNL     1     -10.852   6.260  67.805  1.00  0.00    -0.424 C  
BRANCH  27  28
HETATM   28  C   UNL     1     -10.381   5.706  69.149  1.00  0.00    -0.328 C  
BRANCH  28  29
HETATM   29  C   UNL     1     -10.796   6.579  70.302  1.00  0.00    -0.333 A  
HETATM   30  C   UNL     1      -9.827   7.112  71.163  1.00  0.00    -0.180 A  
HETATM   31  C   UNL     1     -10.204   7.926  72.231  1.00  0.00    -0.302 A  
HETATM   32  C   UNL     1     -11.551   8.208  72.449  1.00  0.00    -0.463 A  
HETATM   33  C   UNL     1     -12.522   7.674  71.603  1.00  0.00    -0.362 A  
HETATM   34  C   UNL     1     -12.147   6.860  70.533  1.00  0.00    -0.315 A  
ENDBRANCH  28  29
ENDBRANCH  27  28
ENDBRANCH  24  27
ENDBRANCH  23  24
ENDBRANCH  22  23
ENDBRANCH  19  22
ENDBRANCH  12  13
ENDBRANCH  11  12
ENDBRANCH   9  10
ENDBRANCH   8   9
ENDBRANCH   7   8
ENDBRANCH   5   7
ENDBRANCH   4   5
ENDBRANCH   2   4
TORSDOF 14
ENDMDL
MODEL      357
REMARK 921   NORMALIZED FREE ENERGY PREDICTED BY IDOCK:   -2.01 KCAL/MOL
REMARK 922        TOTAL FREE ENERGY PREDICTED BY IDOCK:   -6.94 KCAL/MOL
REMARK 923 INTER-LIGAND FREE ENERGY PREDICTED BY IDOCK:   -4.89 KCAL/MOL
REMARK 924 INTRA-LIGAND FREE ENERGY PREDICTED BY IDOCK:   -2.05 KCAL/MOL
REMARK 927      BINDING AFFINITY PREDICTED BY RF-SCORE:    0.00 PKD
ROOT
HETATM    1  C   UNL     1      -8.326   9.402  67.217  1.00  0.00    -0.125 C  
HETATM    2  C   UNL     1      -7.319   8.989  68.284  1.00  0.00    -0.082 C  
HETATM    3  C   UNL     1      -6.206   8.142  67.679  1.00  0.00    -0.052 C  
ENDROOT
BRANCH   2   4
HETATM    4  O   UNL     1      -6.710  10.165  68.849  1.00  0.00    -0.052 OA 
BRANCH   4   5
HETATM    5  C   UNL     1      -6.506  11.190  67.972  1.00  0.00    -0.057 C  
HETATM    6  O   UNL     1      -5.847  11.121  66.942  1.00  0.00    -0.065 OA 
BRANCH   5   7
HETATM    7  C   UNL     1      -7.197  12.432  68.474  1.00  0.00    -0.103 C  
BRANCH   7   8
HETATM    8  C   UNL     1      -6.780  12.744  69.912  1.00  0.00     0.246 C  
BRANCH   8   9
HETATM    9  C   UNL     1      -5.571  13.672  69.999  1.00  0.00    -0.115 C  
BRANCH   9  10
HETATM   10  C   UNL     1      -5.625  14.570  71.202  1.00  0.00    -0.161 C  
HETATM   11  C   UNL     1      -5.492  15.907  71.212  1.00  0.00     0.144 C  
BRANCH  11  12
HETATM   12  C   UNL     1      -5.287  16.798  70.020  1.00  0.00    -0.194 C  
BRANCH  12  13
HETATM   13  C   UNL     1      -6.552  17.453  69.440  1.00  0.00    -0.213 C  
HETATM   14  C   UNL     1      -6.189  18.494  68.365  1.00  0.00    -0.206 C  
HETATM   15  C   UNL     1      -7.514  18.757  67.676  1.00  0.00    -0.244 C  
HETATM   16  O   UNL     1      -5.289  17.958  67.395  1.00  0.00    -0.131 OA 
HETATM   17  C   UNL     1      -8.127  17.366  67.553  1.00  0.00    -0.196 C  
HETATM   18  H   UNL     1      -5.065  18.600  66.732  1.00  0.00     0.000 HD 
HETATM   19  C   UNL     1      -7.523  16.503  68.693  1.00  0.00    -0.202 C  
HETATM   20  O   UNL     1      -7.778  16.785  66.299  1.00  0.00    -0.296 OA 
HETATM   21  H   UNL     1      -8.160  15.919  66.223  1.00  0.00     0.000 HD 
BRANCH  19  22
HETATM   22  C   UNL     1      -8.625  15.927  69.602  1.00  0.00     0.044 C  
BRANCH  22  23
HETATM   23  C   UNL     1      -9.954  15.826  68.847  1.00  0.00    -0.223 C  
BRANCH  23  24
HETATM   24  C   UNL     1     -10.972  14.867  69.476  1.00  0.00    -0.273 C  
HETATM   25  O   UNL     1     -11.866  15.590  70.322  1.00  0.00    -0.303 OA 
HETATM   26  H   UNL     1     -12.496  14.997  70.712  1.00  0.00     0.000 HD 
BRANCH  24  27
HETATM   27  C   UNL     1     -11.824  14.173  68.403  1.00  0.00    -0.388 C  
BRANCH  27  28
HETATM   28  C   UNL     1     -10.990  13.351  67.421  1.00  0.00    -0.287 C  
BRANCH  28  29
HETATM   29  C   UNL     1     -11.371  13.616  65.989  1.00  0.00    -0.322 A  
HETATM   30  C   UNL     1     -11.540  12.547  65.099  1.00  0.00    -0.395 A  
HETATM   31  C   UNL     1     -11.898  12.785  63.773  1.00  0.00    -0.572 A  
HETATM   32  C   UNL     1     -12.084  14.091  63.325  1.00  0.00     0.359 A  
HETATM   33  C   UNL     1     -11.908  15.161  64.202  1.00  0.00    -0.164 A  
HETATM   34  C   UNL     1     -11.550  14.924  65.530  1.00  0.00    -0.263 A  
ENDBRANCH  28  29
ENDBRANCH  27  28
ENDBRANCH  24  27
ENDBRANCH  23  24
ENDBRANCH  22  23
ENDBRANCH  19  22
ENDBRANCH  12  13
ENDBRANCH  11  12
ENDBRANCH   9  10
ENDBRANCH   8   9
ENDBRANCH   7   8
ENDBRANCH   5   7
ENDBRANCH   4   5
ENDBRANCH   2   4
TORSDOF 14
ENDMDL
MODEL      358
REMARK 921   NORMALIZED FREE ENERGY PREDICTED BY IDOCK:   -1.99 KCAL/MOL
REMARK 922        TOTAL FREE ENERGY PREDICTED BY IDOCK:   -6.90 KCAL/MOL
REMARK 923 INTER-LIGAND FREE ENERGY PREDICTED BY IDOCK:   -5.79 KCAL/MOL
REMARK 924 INTRA-LIGAND FREE ENERGY PREDICTED BY IDOCK:   -1.12 KCAL/MOL
REMARK 927      BINDING AFFINITY PREDICTED BY RF-SCORE:    0.00 PKD
ROOT
HETATM    1  C   UNL     1     -11.333  11.856  63.730  1.00  0.00    -0.532 C  
HETATM    2  C   UNL     1     -11.359  12.857  64.879  1.00  0.00    -0.307 C  
HETATM    3  C   UNL     1     -12.599  13.739  64.800  1.00  0.00    -0.330 C  
ENDROOT
BRANCH   2   4
HETATM    4  O   UNL     1     -11.411  12.148  66.131  1.00  0.00    -0.346 OA 
BRANCH   4   5
HETATM    5  C   UNL     1     -10.198  11.869  66.690  1.00  0.00    -0.208 C  
HETATM    6  O   UNL     1      -9.268  11.312  66.121  1.00  0.00    -0.194 OA 
BRANCH   5   7
HETATM    7  C   UNL     1     -10.182  12.329  68.125  1.00  0.00    -0.212 C  
BRANCH   7   8
HETATM    8  C   UNL     1     -11.161  11.511  68.970  1.00  0.00    -0.324 C  
BRANCH   8   9
HETATM    9  C   UNL     1     -10.792  10.033  69.054  1.00  0.00    -0.253 C  
BRANCH   9  10
HETATM   10  C   UNL     1     -10.729   9.538  70.472  1.00  0.00    -0.359 C  
HETATM   11  C   UNL     1      -9.618   9.310  71.193  1.00  0.00    -0.305 C  
BRANCH  11  12
HETATM   12  C   UNL     1      -8.200   9.522  70.749  1.00  0.00    -0.084 C  
BRANCH  12  13
HETATM   13  C   UNL     1      -7.916   9.282  69.256  1.00  0.00    -0.098 C  
HETATM   14  C   UNL     1      -6.759  10.172  68.766  1.00  0.00    -0.053 C  
HETATM   15  C   UNL     1      -6.394   9.559  67.427  1.00  0.00    -0.065 C  
HETATM   16  O   UNL     1      -5.619  10.071  69.620  1.00  0.00    -0.037 OA 
HETATM   17  C   UNL     1      -6.455   8.060  67.700  1.00  0.00    -0.057 C  
HETATM   18  H   UNL     1      -4.905  10.620  69.318  1.00  0.00     0.000 HD 
HETATM   19  C   UNL     1      -7.444   7.855  68.879  1.00  0.00    -0.094 C  
HETATM   20  O   UNL     1      -5.170   7.578  68.085  1.00  0.00    -0.023 OA 
HETATM   21  H   UNL     1      -5.208   6.644  68.255  1.00  0.00     0.000 HD 
BRANCH  19  22
HETATM   22  C   UNL     1      -8.601   6.919  68.481  1.00  0.00    -0.123 C  
BRANCH  22  23
HETATM   23  C   UNL     1      -9.206   6.247  69.716  1.00  0.00    -0.150 C  
BRANCH  23  24
HETATM   24  C   UNL     1      -9.370   4.728  69.597  1.00  0.00    -0.133 C  
HETATM   25  O   UNL     1      -9.880   4.391  68.307  1.00  0.00    -0.138 OA 
HETATM   26  H   UNL     1      -9.981   3.449  68.233  1.00  0.00     0.000 HD 
BRANCH  24  27
HETATM   27  C   UNL     1      -8.024   4.005  69.756  1.00  0.00    -0.057 C  
BRANCH  27  28
HETATM   28  C   UNL     1      -7.636   3.785  71.218  1.00  0.00    -0.055 C  
BRANCH  28  29
HETATM   29  C   UNL     1      -8.710   4.241  72.168  1.00  0.00    -0.120 A  
HETATM   30  C   UNL     1      -8.581   5.465  72.838  1.00  0.00    -0.119 A  
HETATM   31  C   UNL     1      -9.575   5.897  73.715  1.00  0.00    -0.147 A  
HETATM   32  C   UNL     1     -10.701   5.106  73.933  1.00  0.00    -0.342 A  
HETATM   33  C   UNL     1     -10.833   3.882  73.279  1.00  0.00    -0.297 A  
HETATM   34  C   UNL     1      -9.839   3.449  72.399  1.00  0.00    -0.227 A  
ENDBRANCH  28  29
ENDBRANCH  27  28
ENDBRANCH  24  27
ENDBRANCH  23  24
ENDBRANCH  22  23
ENDBRANCH  19  22
ENDBRANCH  12  13
ENDBRANCH  11  12
ENDBRANCH   9  10
ENDBRANCH   8   9
ENDBRANCH   7   8
ENDBRANCH   5   7
ENDBRANCH   4   5
ENDBRANCH   2   4
TORSDOF 14
ENDMDL
MODEL      359
REMARK 921   NORMALIZED FREE ENERGY PREDICTED BY IDOCK:   -1.92 KCAL/MOL
REMARK 922        TOTAL FREE ENERGY PREDICTED BY IDOCK:   -6.78 KCAL/MOL
REMARK 923 INTER-LIGAND FREE ENERGY PREDICTED BY IDOCK:   -5.57 KCAL/MOL
REMARK 924 INTRA-LIGAND FREE ENERGY PREDICTED BY IDOCK:   -1.21 KCAL/MOL
REMARK 927      BINDING AFFINITY PREDICTED BY RF-SCORE:    0.00 PKD
ROOT
HETATM    1  C   UNL     1      -9.210   3.638  63.121  1.00  0.00    -0.102 C  
HETATM    2  C   UNL     1      -9.058   4.096  64.567  1.00  0.00    -0.147 C  
HETATM    3  C   UNL     1      -8.304   3.057  65.387  1.00  0.00    -0.097 C  
ENDROOT
BRANCH   2   4
HETATM    4  O   UNL     1      -8.294   5.316  64.606  1.00  0.00    -0.132 OA 
BRANCH   4   5
HETATM    5  C   UNL     1      -7.314   5.416  63.661  1.00  0.00    -0.053 C  
HETATM    6  O   UNL     1      -6.190   4.937  63.753  1.00  0.00    -0.021 OA 
BRANCH   5   7
HETATM    7  C   UNL     1      -7.815   6.227  62.493  1.00  0.00    -0.094 C  
BRANCH   7   8
HETATM    8  C   UNL     1      -7.102   7.579  62.423  1.00  0.00    -0.080 C  
BRANCH   8   9
HETATM    9  C   UNL     1      -7.758   8.649  63.293  1.00  0.00    -0.134 C  
BRANCH   9  10
HETATM   10  C   UNL     1      -6.826   9.181  64.345  1.00  0.00    -0.087 C  
HETATM   11  C   UNL     1      -7.034  10.248  65.135  1.00  0.00    -0.122 C  
BRANCH  11  12
HETATM   12  C   UNL     1      -8.252  11.126  65.156  1.00  0.00     0.259 C  
BRANCH  12  13
HETATM   13  C   UNL     1      -8.971  11.251  66.510  1.00  0.00    -0.189 C  
HETATM   14  C   UNL     1      -9.009  12.718  66.979  1.00  0.00    -0.221 C  
HETATM   15  C   UNL     1     -10.033  12.697  68.098  1.00  0.00    -0.225 C  
HETATM   16  O   UNL     1      -9.496  13.586  65.955  1.00  0.00    -0.456 OA 
HETATM   17  C   UNL     1     -11.133  11.795  67.549  1.00  0.00    -0.272 C  
HETATM   18  H   UNL     1      -9.519  14.491  66.244  1.00  0.00     0.000 HD 
HETATM   19  C   UNL     1     -10.466  10.842  66.521  1.00  0.00    -0.308 C  
HETATM   20  O   UNL     1     -12.121  12.577  66.881  1.00  0.00    -0.537 OA 
HETATM   21  H   UNL     1     -12.806  12.014  66.540  1.00  0.00     0.000 HD 
BRANCH  19  22
HETATM   22  C   UNL     1     -10.687   9.366  66.903  1.00  0.00    -0.174 C  
BRANCH  22  23
HETATM   23  C   UNL     1      -9.538   8.854  67.776  1.00  0.00    -0.176 C  
BRANCH  23  24
HETATM   24  C   UNL     1      -9.984   8.153  69.066  1.00  0.00    -0.189 C  
HETATM   25  O   UNL     1     -11.316   7.660  68.919  1.00  0.00    -0.329 OA 
HETATM   26  H   UNL     1     -11.591   7.226  69.717  1.00  0.00     0.000 HD 
BRANCH  24  27
HETATM   27  C   UNL     1      -9.087   6.948  69.387  1.00  0.00    -0.141 C  
BRANCH  27  28
HETATM   28  C   UNL     1      -8.477   7.018  70.788  1.00  0.00    -0.135 C  
BRANCH  28  29
HETATM   29  C   UNL     1      -9.343   6.348  71.820  1.00  0.00    -0.152 A  
HETATM   30  C   UNL     1      -9.551   6.958  73.064  1.00  0.00    -0.178 A  
HETATM   31  C   UNL     1     -10.356   6.346  74.024  1.00  0.00    -0.340 A  
HETATM   32  C   UNL     1     -10.954   5.118  73.749  1.00  0.00    -0.297 A  
HETATM   33  C   UNL     1     -10.745   4.500  72.517  1.00  0.00    -0.192 A  
HETATM   34  C   UNL     1      -9.939   5.112  71.555  1.00  0.00    -0.248 A  
ENDBRANCH  28  29
ENDBRANCH  27  28
ENDBRANCH  24  27
ENDBRANCH  23  24
ENDBRANCH  22  23
ENDBRANCH  19  22
ENDBRANCH  12  13
ENDBRANCH  11  12
ENDBRANCH   9  10
ENDBRANCH   8   9
ENDBRANCH   7   8
ENDBRANCH   5   7
ENDBRANCH   4   5
ENDBRANCH   2   4
TORSDOF 14
ENDMDL
MODEL      360
REMARK 921   NORMALIZED FREE ENERGY PREDICTED BY IDOCK:   -1.90 KCAL/MOL
REMARK 922        TOTAL FREE ENERGY PREDICTED BY IDOCK:   -6.74 KCAL/MOL
REMARK 923 INTER-LIGAND FREE ENERGY PREDICTED BY IDOCK:   -6.14 KCAL/MOL
REMARK 924 INTRA-LIGAND FREE ENERGY PREDICTED BY IDOCK:   -0.61 KCAL/MOL
REMARK 927      BINDING AFFINITY PREDICTED BY RF-SCORE:    0.00 PKD
ROOT
HETATM    1  C   UNL     1      -8.711  10.313  66.861  1.00  0.00    -0.131 C  
HETATM    2  C   UNL     1      -8.198   9.058  67.559  1.00  0.00    -0.109 C  
HETATM    3  C   UNL     1      -7.429   8.174  66.585  1.00  0.00    -0.089 C  
ENDROOT
BRANCH   2   4
HETATM    4  O   UNL     1      -7.291   9.432  68.612  1.00  0.00    -0.074 OA 
BRANCH   4   5
HETATM    5  C   UNL     1      -5.970   9.418  68.272  1.00  0.00    -0.044 C  
HETATM    6  O   UNL     1      -5.199   8.486  68.469  1.00  0.00    -0.032 OA 
BRANCH   5   7
HETATM    7  C   UNL     1      -5.594  10.732  67.638  1.00  0.00    -0.043 C  
BRANCH   7   8
HETATM    8  C   UNL     1      -6.131  11.906  68.458  1.00  0.00    -0.050 C  
BRANCH   8   9
HETATM    9  C   UNL     1      -5.141  12.409  69.506  1.00  0.00    -0.070 C  
BRANCH   9  10
HETATM   10  C   UNL     1      -5.822  13.114  70.645  1.00  0.00    -0.143 C  
HETATM   11  C   UNL     1      -6.747  14.085  70.550  1.00  0.00     0.272 C  
BRANCH  11  12
HETATM   12  C   UNL     1      -7.318  14.660  69.286  1.00  0.00    -0.149 C  
BRANCH  12  13
HETATM   13  C   UNL     1      -7.990  16.038  69.413  1.00  0.00    -0.152 C  
HETATM   14  C   UNL     1      -7.232  17.096  68.590  1.00  0.00    -0.229 C  
HETATM   15  C   UNL     1      -8.205  18.259  68.541  1.00  0.00    -0.329 C  
HETATM   16  O   UNL     1      -7.005  16.658  67.250  1.00  0.00    -0.143 OA 
HETATM   17  C   UNL     1      -9.550  17.580  68.301  1.00  0.00    -0.299 C  
HETATM   18  H   UNL     1      -6.537  17.311  66.742  1.00  0.00     0.000 HD 
HETATM   19  C   UNL     1      -9.436  16.139  68.866  1.00  0.00    -0.244 C  
HETATM   20  O   UNL     1      -9.820  17.509  66.903  1.00  0.00    -0.277 OA 
HETATM   21  H   UNL     1     -10.658  17.086  66.754  1.00  0.00     0.000 HD 
BRANCH  19  22
HETATM   22  C   UNL     1     -10.509  15.873  69.939  1.00  0.00    -0.311 C  
BRANCH  22  23
HETATM   23  C   UNL     1     -11.743  15.211  69.320  1.00  0.00    -0.352 C  
BRANCH  23  24
HETATM   24  C   UNL     1     -12.254  13.982  70.082  1.00  0.00    -0.359 C  
HETATM   25  O   UNL     1     -13.645  14.130  70.371  1.00  0.00    -0.182 OA 
HETATM   26  H   UNL     1     -13.961  13.368  70.843  1.00  0.00     0.000 HD 
BRANCH  24  27
HETATM   27  C   UNL     1     -12.098  12.701  69.248  1.00  0.00    -0.218 C  
BRANCH  27  28
HETATM   28  C   UNL     1     -11.072  11.731  69.836  1.00  0.00     0.030 C  
BRANCH  28  29
HETATM   29  C   UNL     1     -11.721  10.613  70.606  1.00  0.00    -0.454 A  
HETATM   30  C   UNL     1     -10.996   9.450  70.898  1.00  0.00    -0.391 A  
HETATM   31  C   UNL     1     -11.589   8.412  71.616  1.00  0.00    -0.348 A  
HETATM   32  C   UNL     1     -12.911   8.527  72.041  1.00  0.00    -0.414 A  
HETATM   33  C   UNL     1     -13.642   9.676  71.745  1.00  0.00    -0.424 A  
HETATM   34  C   UNL     1     -13.050  10.716  71.027  1.00  0.00    -0.376 A  
ENDBRANCH  28  29
ENDBRANCH  27  28
ENDBRANCH  24  27
ENDBRANCH  23  24
ENDBRANCH  22  23
ENDBRANCH  19  22
ENDBRANCH  12  13
ENDBRANCH  11  12
ENDBRANCH   9  10
ENDBRANCH   8   9
ENDBRANCH   7   8
ENDBRANCH   5   7
ENDBRANCH   4   5
ENDBRANCH   2   4
TORSDOF 14
ENDMDL
MODEL      361
REMARK 921   NORMALIZED FREE ENERGY PREDICTED BY IDOCK:   -1.88 KCAL/MOL
REMARK 922        TOTAL FREE ENERGY PREDICTED BY IDOCK:   -6.70 KCAL/MOL
REMARK 923 INTER-LIGAND FREE ENERGY PREDICTED BY IDOCK:   -5.29 KCAL/MOL
REMARK 924 INTRA-LIGAND FREE ENERGY PREDICTED BY IDOCK:   -1.41 KCAL/MOL
REMARK 927      BINDING AFFINITY PREDICTED BY RF-SCORE:    0.00 PKD
ROOT
HETATM    1  C   UNL     1     -13.019   6.470  72.265  1.00  0.00     0.101 C  
HETATM    2  C   UNL     1     -12.706   7.524  71.209  1.00  0.00    -0.302 C  
HETATM    3  C   UNL     1     -12.763   8.923  71.807  1.00  0.00    -0.421 C  
ENDROOT
BRANCH   2   4
HETATM    4  O   UNL     1     -11.371   7.320  70.710  1.00  0.00    -0.269 OA 
BRANCH   4   5
HETATM    5  C   UNL     1     -10.481   6.827  71.620  1.00  0.00    -0.209 C  
HETATM    6  O   UNL     1     -10.263   5.639  71.824  1.00  0.00    -0.189 OA 
BRANCH   5   7
HETATM    7  C   UNL     1      -9.820   7.966  72.353  1.00  0.00    -0.287 C  
BRANCH   7   8
HETATM    8  C   UNL     1      -8.320   8.007  72.056  1.00  0.00    -0.179 C  
BRANCH   8   9
HETATM    9  C   UNL     1      -7.981   8.776  70.782  1.00  0.00    -0.142 C  
BRANCH   9  10
HETATM   10  C   UNL     1      -9.049   9.764  70.408  1.00  0.00    -0.154 C  
HETATM   11  C   UNL     1      -9.767   9.779  69.272  1.00  0.00    -0.204 C  
BRANCH  11  12
HETATM   12  C   UNL     1      -9.675   8.797  68.140  1.00  0.00    -0.177 C  
BRANCH  12  13
HETATM   13  C   UNL     1      -8.507   9.002  67.160  1.00  0.00    -0.113 C  
HETATM   14  C   UNL     1      -8.029   7.656  66.585  1.00  0.00    -0.107 C  
HETATM   15  C   UNL     1      -7.160   8.070  65.413  1.00  0.00    -0.060 C  
HETATM   16  O   UNL     1      -9.117   6.885  66.073  1.00  0.00    -0.259 OA 
HETATM   17  C   UNL     1      -7.952   9.205  64.773  1.00  0.00    -0.126 C  
HETATM   18  H   UNL     1      -8.822   6.055  65.719  1.00  0.00     0.000 HD 
HETATM   19  C   UNL     1      -8.829   9.831  65.890  1.00  0.00    -0.175 C  
HETATM   20  O   UNL     1      -8.802   8.693  63.749  1.00  0.00    -0.425 OA 
HETATM   21  H   UNL     1      -9.295   9.401  63.351  1.00  0.00     0.000 HD 
BRANCH  19  22
HETATM   22  C   UNL     1      -8.533  11.333  66.056  1.00  0.00    -0.102 C  
BRANCH  22  23
HETATM   23  C   UNL     1      -7.078  11.557  66.479  1.00  0.00    -0.009 C  
BRANCH  23  24
HETATM   24  C   UNL     1      -6.873  11.722  67.990  1.00  0.00    -0.074 C  
HETATM   25  O   UNL     1      -5.687  11.041  68.399  1.00  0.00    -0.043 OA 
HETATM   26  H   UNL     1      -5.559  11.144  69.335  1.00  0.00     0.000 HD 
BRANCH  24  27
HETATM   27  C   UNL     1      -6.704  13.200  68.373  1.00  0.00    -0.095 C  
BRANCH  27  28
HETATM   28  C   UNL     1      -7.523  14.141  67.490  1.00  0.00    -0.192 C  
BRANCH  28  29
HETATM   29  C   UNL     1      -8.870  14.452  68.083  1.00  0.00    -0.180 A  
HETATM   30  C   UNL     1     -10.018  14.403  67.282  1.00  0.00    -0.247 A  
HETATM   31  C   UNL     1     -11.270  14.684  67.826  1.00  0.00    -0.320 A  
HETATM   32  C   UNL     1     -11.383  15.022  69.173  1.00  0.00    -0.311 A  
HETATM   33  C   UNL     1     -10.245  15.083  69.976  1.00  0.00    -0.059 A  
HETATM   34  C   UNL     1      -8.990  14.801  69.432  1.00  0.00     0.037 A  
ENDBRANCH  28  29
ENDBRANCH  27  28
ENDBRANCH  24  27
ENDBRANCH  23  24
ENDBRANCH  22  23
ENDBRANCH  19  22
ENDBRANCH  12  13
ENDBRANCH  11  12
ENDBRANCH   9  10
ENDBRANCH   8   9
ENDBRANCH   7   8
ENDBRANCH   5   7
ENDBRANCH   4   5
ENDBRANCH   2   4
TORSDOF 14
ENDMDL
MODEL      362
REMARK 921   NORMALIZED FREE ENERGY PREDICTED BY IDOCK:   -1.73 KCAL/MOL
REMARK 922        TOTAL FREE ENERGY PREDICTED BY IDOCK:   -6.44 KCAL/MOL
REMARK 923 INTER-LIGAND FREE ENERGY PREDICTED BY IDOCK:   -4.66 KCAL/MOL
REMARK 924 INTRA-LIGAND FREE ENERGY PREDICTED BY IDOCK:   -1.78 KCAL/MOL
REMARK 927      BINDING AFFINITY PREDICTED BY RF-SCORE:    0.00 PKD
ROOT
HETATM    1  C   UNL     1      -8.860  12.582  69.409  1.00  0.00     1.251 C  
HETATM    2  C   UNL     1     -10.097  12.265  68.576  1.00  0.00    -0.187 C  
HETATM    3  C   UNL     1     -11.323  12.972  69.137  1.00  0.00    -0.328 C  
ENDROOT
BRANCH   2   4
HETATM    4  O   UNL     1      -9.903  12.739  67.230  1.00  0.00    -0.202 OA 
BRANCH   4   5
HETATM    5  C   UNL     1     -10.764  12.226  66.305  1.00  0.00    -0.259 C  
HETATM    6  O   UNL     1     -11.982  12.170  66.426  1.00  0.00    -0.611 OA 
BRANCH   5   7
HETATM    7  C   UNL     1      -9.989  11.716  65.117  1.00  0.00    -0.297 C  
BRANCH   7   8
HETATM    8  C   UNL     1     -10.152  10.202  64.969  1.00  0.00    -0.305 C  
BRANCH   8   9
HETATM    9  C   UNL     1      -9.882   9.440  66.264  1.00  0.00    -0.351 C  
BRANCH   9  10
HETATM   10  C   UNL     1      -8.550   8.745  66.252  1.00  0.00    -0.144 C  
HETATM   11  C   UNL     1      -7.712   8.599  67.292  1.00  0.00    -0.097 C  
BRANCH  11  12
HETATM   12  C   UNL     1      -7.934   9.077  68.698  1.00  0.00    -0.102 C  
BRANCH  12  13
HETATM   13  C   UNL     1      -8.325   7.999  69.724  1.00  0.00    -0.122 C  
HETATM   14  C   UNL     1      -8.202   8.538  71.161  1.00  0.00    -0.144 C  
HETATM   15  C   UNL     1      -8.948   7.505  71.984  1.00  0.00    -0.151 C  
HETATM   16  O   UNL     1      -8.875   9.789  71.314  1.00  0.00    -0.240 OA 
HETATM   17  C   UNL     1     -10.175   7.199  71.132  1.00  0.00    -0.191 C  
HETATM   18  H   UNL     1      -8.799  10.121  72.201  1.00  0.00     0.000 HD 
HETATM   19  C   UNL     1      -9.793   7.506  69.659  1.00  0.00    -0.180 C  
HETATM   20  O   UNL     1     -11.259   8.044  71.514  1.00  0.00    -0.245 OA 
HETATM   21  H   UNL     1     -12.024   7.853  70.983  1.00  0.00     0.000 HD 
BRANCH  19  22
HETATM   22  C   UNL     1      -9.975   6.265  68.765  1.00  0.00    -0.173 C  
BRANCH  22  23
HETATM   23  C   UNL     1     -10.473   5.072  69.587  1.00  0.00    -0.166 C  
BRANCH  23  24
HETATM   24  C   UNL     1      -9.415   3.994  69.847  1.00  0.00    -0.194 C  
HETATM   25  O   UNL     1      -9.877   3.088  70.849  1.00  0.00    -0.140 OA 
HETATM   26  H   UNL     1      -9.221   2.420  71.010  1.00  0.00     0.000 HD 
BRANCH  24  27
HETATM   27  C   UNL     1      -9.133   3.168  68.583  1.00  0.00    -0.209 C  
BRANCH  27  28
HETATM   28  C   UNL     1      -8.222   3.891  67.591  1.00  0.00    -0.093 C  
BRANCH  28  29
HETATM   29  C   UNL     1      -8.687   3.730  66.169  1.00  0.00    -0.117 A  
HETATM   30  C   UNL     1     -10.008   4.047  65.823  1.00  0.00    -0.153 A  
HETATM   31  C   UNL     1     -10.444   3.906  64.506  1.00  0.00    -0.221 A  
HETATM   32  C   UNL     1      -9.567   3.443  63.528  1.00  0.00    -0.120 A  
HETATM   33  C   UNL     1      -8.254   3.116  63.866  1.00  0.00    -0.086 A  
HETATM   34  C   UNL     1      -7.815   3.257  65.183  1.00  0.00    -0.082 A  
ENDBRANCH  28  29
ENDBRANCH  27  28
ENDBRANCH  24  27
ENDBRANCH  23  24
ENDBRANCH  22  23
ENDBRANCH  19  22
ENDBRANCH  12  13
ENDBRANCH  11  12
ENDBRANCH   9  10
ENDBRANCH   8   9
ENDBRANCH   7   8
ENDBRANCH   5   7
ENDBRANCH   4   5
ENDBRANCH   2   4
TORSDOF 14
ENDMDL
MODEL      363
REMARK 921   NORMALIZED FREE ENERGY PREDICTED BY IDOCK:   -1.54 KCAL/MOL
REMARK 922        TOTAL FREE ENERGY PREDICTED BY IDOCK:   -6.10 KCAL/MOL
REMARK 923 INTER-LIGAND FREE ENERGY PREDICTED BY IDOCK:   -4.76 KCAL/MOL
REMARK 924 INTRA-LIGAND FREE ENERGY PREDICTED BY IDOCK:   -1.33 KCAL/MOL
REMARK 927      BINDING AFFINITY PREDICTED BY RF-SCORE:    0.00 PKD
ROOT
HETATM    1  C   UNL     1      -6.649  14.575  72.372  1.00  0.00     1.643 C  
HETATM    2  C   UNL     1      -5.312  14.176  71.758  1.00  0.00    -0.211 C  
HETATM    3  C   UNL     1      -5.282  12.684  71.451  1.00  0.00    -0.123 C  
ENDROOT
BRANCH   2   4
HETATM    4  O   UNL     1      -5.126  14.878  70.515  1.00  0.00    -0.105 OA 
BRANCH   4   5
HETATM    5  C   UNL     1      -6.175  14.805  69.646  1.00  0.00    -0.133 C  
HETATM    6  O   UNL     1      -7.085  15.621  69.565  1.00  0.00    -0.188 OA 
BRANCH   5   7
HETATM    7  C   UNL     1      -6.059  13.554  68.813  1.00  0.00    -0.086 C  
BRANCH   7   8
HETATM    8  C   UNL     1      -6.889  13.673  67.533  1.00  0.00    -0.152 C  
BRANCH   8   9
HETATM    9  C   UNL     1      -7.742  12.438  67.254  1.00  0.00    -0.158 C  
BRANCH   9  10
HETATM   10  C   UNL     1      -7.504  11.341  68.252  1.00  0.00    -0.099 C  
HETATM   11  C   UNL     1      -7.304  10.040  67.982  1.00  0.00    -0.087 C  
BRANCH  11  12
HETATM   12  C   UNL     1      -7.249   9.403  66.622  1.00  0.00    -0.086 C  
BRANCH  12  13
HETATM   13  C   UNL     1      -7.904  10.197  65.478  1.00  0.00    -0.147 C  
HETATM   14  C   UNL     1      -7.019  10.176  64.218  1.00  0.00    -0.103 C  
HETATM   15  C   UNL     1      -7.953  10.673  63.131  1.00  0.00    -0.021 C  
HETATM   16  O   UNL     1      -6.617   8.849  63.878  1.00  0.00    -0.086 OA 
HETATM   17  C   UNL     1      -9.264   9.959  63.443  1.00  0.00    -0.240 C  
HETATM   18  H   UNL     1      -6.071   8.836  63.101  1.00  0.00     0.000 HD 
HETATM   19  C   UNL     1      -9.259   9.647  64.963  1.00  0.00    -0.310 C  
HETATM   20  O   UNL     1      -9.340   8.733  62.719  1.00  0.00    -0.367 OA 
HETATM   21  H   UNL     1     -10.157   8.289  62.914  1.00  0.00     0.000 HD 
BRANCH  19  22
HETATM   22  C   UNL     1     -10.475  10.277  65.667  1.00  0.00    -0.152 C  
BRANCH  22  23
HETATM   23  C   UNL     1     -10.492  11.796  65.467  1.00  0.00    -0.311 C  
BRANCH  23  24
HETATM   24  C   UNL     1     -11.753  12.492  65.991  1.00  0.00    -0.417 C  
HETATM   25  O   UNL     1     -12.822  12.333  65.058  1.00  0.00    -0.563 OA 
HETATM   26  H   UNL     1     -13.604  12.763  65.382  1.00  0.00     0.000 HD 
BRANCH  24  27
HETATM   27  C   UNL     1     -12.218  11.882  67.322  1.00  0.00     0.500 C  
BRANCH  27  28
HETATM   28  C   UNL     1     -11.300  12.237  68.492  1.00  0.00    -0.332 C  
BRANCH  28  29
HETATM   29  C   UNL     1     -11.474  11.301  69.657  1.00  0.00    -0.380 A  
HETATM   30  C   UNL     1     -12.525  11.496  70.563  1.00  0.00    -0.367 A  
HETATM   31  C   UNL     1     -12.695  10.630  71.642  1.00  0.00    -0.531 A  
HETATM   32  C   UNL     1     -11.813   9.567  71.827  1.00  0.00    -0.430 A  
HETATM   33  C   UNL     1     -10.759   9.372  70.935  1.00  0.00    -0.393 A  
HETATM   34  C   UNL     1     -10.588  10.237  69.854  1.00  0.00    -0.324 A  
ENDBRANCH  28  29
ENDBRANCH  27  28
ENDBRANCH  24  27
ENDBRANCH  23  24
ENDBRANCH  22  23
ENDBRANCH  19  22
ENDBRANCH  12  13
ENDBRANCH  11  12
ENDBRANCH   9  10
ENDBRANCH   8   9
ENDBRANCH   7   8
ENDBRANCH   5   7
ENDBRANCH   4   5
ENDBRANCH   2   4
TORSDOF 14
ENDMDL
MODEL      364
REMARK 921   NORMALIZED FREE ENERGY PREDICTED BY IDOCK:   -1.47 KCAL/MOL
REMARK 922        TOTAL FREE ENERGY PREDICTED BY IDOCK:   -5.97 KCAL/MOL
REMARK 923 INTER-LIGAND FREE ENERGY PREDICTED BY IDOCK:   -4.79 KCAL/MOL
REMARK 924 INTRA-LIGAND FREE ENERGY PREDICTED BY IDOCK:   -1.18 KCAL/MOL
REMARK 927      BINDING AFFINITY PREDICTED BY RF-SCORE:    0.00 PKD
ROOT
HETATM    1  C   UNL     1      -9.914   3.293  62.764  1.00  0.00    -0.108 C  
HETATM    2  C   UNL     1      -9.800   3.545  64.263  1.00  0.00    -0.179 C  
HETATM    3  C   UNL     1      -9.185   2.343  64.969  1.00  0.00    -0.123 C  
ENDROOT
BRANCH   2   4
HETATM    4  O   UNL     1      -8.935   4.672  64.495  1.00  0.00    -0.151 OA 
BRANCH   4   5
HETATM    5  C   UNL     1      -7.943   4.842  63.573  1.00  0.00    -0.091 C  
HETATM    6  O   UNL     1      -6.905   4.194  63.522  1.00  0.00    -0.041 OA 
BRANCH   5   7
HETATM    7  C   UNL     1      -8.308   5.964  62.636  1.00  0.00    -0.056 C  
BRANCH   7   8
HETATM    8  C   UNL     1      -7.156   6.962  62.506  1.00  0.00    -0.054 C  
BRANCH   8   9
HETATM    9  C   UNL     1      -7.163   8.033  63.594  1.00  0.00    -0.093 C  
BRANCH   9  10
HETATM   10  C   UNL     1      -5.951   7.957  64.480  1.00  0.00    -0.048 C  
HETATM   11  C   UNL     1      -5.550   8.878  65.372  1.00  0.00    -0.046 C  
BRANCH  11  12
HETATM   12  C   UNL     1      -6.240  10.173  65.697  1.00  0.00    -0.101 C  
BRANCH  12  13
HETATM   13  C   UNL     1      -6.645  10.371  67.168  1.00  0.00    -0.073 C  
HETATM   14  C   UNL     1      -5.889  11.560  67.790  1.00  0.00    -0.049 C  
HETATM   15  C   UNL     1      -6.654  11.823  69.073  1.00  0.00    -0.094 C  
HETATM   16  O   UNL     1      -5.982  12.729  66.976  1.00  0.00    -0.460 OA 
HETATM   17  C   UNL     1      -8.111  11.678  68.648  1.00  0.00    -0.121 C  
HETATM   18  H   UNL     1      -5.515  13.462  67.360  1.00  0.00     0.000 HD 
HETATM   19  C   UNL     1      -8.131  10.734  67.416  1.00  0.00    -0.112 C  
HETATM   20  O   UNL     1      -8.639  12.947  68.266  1.00  0.00    -0.180 OA 
HETATM   21  H   UNL     1      -9.547  12.856  68.001  1.00  0.00     0.000 HD 
BRANCH  19  22
HETATM   22  C   UNL     1      -9.020   9.502  67.672  1.00  0.00    -0.124 C  
BRANCH  22  23
HETATM   23  C   UNL     1      -8.219   8.385  68.346  1.00  0.00    -0.124 C  
BRANCH  23  24
HETATM   24  C   UNL     1      -8.904   7.759  69.567  1.00  0.00    -0.139 C  
HETATM   25  O   UNL     1      -8.722   6.343  69.556  1.00  0.00    -0.131 OA 
HETATM   26  H   UNL     1      -9.146   5.955  70.313  1.00  0.00     0.000 HD 
BRANCH  24  27
HETATM   27  C   UNL     1      -8.302   8.284  70.879  1.00  0.00    -0.139 C  
BRANCH  27  28
HETATM   28  C   UNL     1      -9.356   8.836  71.838  1.00  0.00    -0.343 C  
BRANCH  28  29
HETATM   29  C   UNL     1     -10.639   8.052  71.788  1.00  0.00    -0.296 A  
HETATM   30  C   UNL     1     -11.821   8.666  71.351  1.00  0.00    -0.352 A  
HETATM   31  C   UNL     1     -13.012   7.944  71.297  1.00  0.00    -0.230 A  
HETATM   32  C   UNL     1     -13.032   6.606  71.683  1.00  0.00    -0.186 A  
HETATM   33  C   UNL     1     -11.863   5.989  72.128  1.00  0.00    -0.304 A  
HETATM   34  C   UNL     1     -10.670   6.711  72.182  1.00  0.00    -0.246 A  
ENDBRANCH  28  29
ENDBRANCH  27  28
ENDBRANCH  24  27
ENDBRANCH  23  24
ENDBRANCH  22  23
ENDBRANCH  19  22
ENDBRANCH  12  13
ENDBRANCH  11  12
ENDBRANCH   9  10
ENDBRANCH   8   9
ENDBRANCH   7   8
ENDBRANCH   5   7
ENDBRANCH   4   5
ENDBRANCH   2   4
TORSDOF 14
ENDMDL
MODEL      365
REMARK 921   NORMALIZED FREE ENERGY PREDICTED BY IDOCK:   -1.33 KCAL/MOL
REMARK 922        TOTAL FREE ENERGY PREDICTED BY IDOCK:   -5.71 KCAL/MOL
REMARK 923 INTER-LIGAND FREE ENERGY PREDICTED BY IDOCK:   -5.44 KCAL/MOL
REMARK 924 INTRA-LIGAND FREE ENERGY PREDICTED BY IDOCK:   -0.27 KCAL/MOL
REMARK 927      BINDING AFFINITY PREDICTED BY RF-SCORE:    0.00 PKD
ROOT
HETATM    1  C   UNL     1      -8.253  17.019  68.599  1.00  0.00    -0.261 C  
HETATM    2  C   UNL     1      -7.275  18.147  68.293  1.00  0.00    -0.254 C  
HETATM    3  C   UNL     1      -7.884  19.500  68.640  1.00  0.00    -0.383 C  
ENDROOT
BRANCH   2   4
HETATM    4  O   UNL     1      -6.091  17.987  69.097  1.00  0.00    -0.212 OA 
BRANCH   4   5
HETATM    5  C   UNL     1      -5.527  16.745  69.056  1.00  0.00    -0.131 C  
HETATM    6  O   UNL     1      -5.127  16.182  68.045  1.00  0.00    -0.101 OA 
BRANCH   5   7
HETATM    7  C   UNL     1      -5.491  16.158  70.444  1.00  0.00    -0.164 C  
BRANCH   7   8
HETATM    8  C   UNL     1      -5.278  14.644  70.389  1.00  0.00    -0.111 C  
BRANCH   8   9
HETATM    9  C   UNL     1      -5.953  13.986  69.189  1.00  0.00    -0.091 C  
BRANCH   9  10
HETATM   10  C   UNL     1      -7.452  13.989  69.302  1.00  0.00     0.059 C  
HETATM   11  C   UNL     1      -8.323  13.447  68.435  1.00  0.00    -0.137 C  
BRANCH  11  12
HETATM   12  C   UNL     1      -7.990  12.697  67.177  1.00  0.00    -0.123 C  
BRANCH  12  13
HETATM   13  C   UNL     1      -8.882  11.486  66.856  1.00  0.00    -0.182 C  
HETATM   14  C   UNL     1     -10.371  11.839  67.029  1.00  0.00    -0.214 C  
HETATM   15  C   UNL     1     -11.082  10.688  66.344  1.00  0.00     0.039 C  
HETATM   16  O   UNL     1     -10.712  13.040  66.335  1.00  0.00    -0.278 OA 
HETATM   17  C   UNL     1     -10.248  10.460  65.087  1.00  0.00    -0.256 C  
HETATM   18  H   UNL     1     -11.630  13.258  66.442  1.00  0.00     0.000 HD 
HETATM   19  C   UNL     1      -8.814  10.964  65.398  1.00  0.00    -0.192 C  
HETATM   20  O   UNL     1     -10.780  11.217  64.002  1.00  0.00    -0.353 OA 
HETATM   21  H   UNL     1     -10.260  11.075  63.220  1.00  0.00     0.000 HD 
BRANCH  19  22
HETATM   22  C   UNL     1      -7.775   9.843  65.205  1.00  0.00    -0.131 C  
BRANCH  22  23
HETATM   23  C   UNL     1      -7.958   8.745  66.256  1.00  0.00    -0.106 C  
BRANCH  23  24
HETATM   24  C   UNL     1      -8.727   7.514  65.763  1.00  0.00    -0.118 C  
HETATM   25  O   UNL     1      -8.447   7.284  64.382  1.00  0.00    -0.359 OA 
HETATM   26  H   UNL     1      -8.924   6.522  64.076  1.00  0.00     0.000 HD 
BRANCH  24  27
HETATM   27  C   UNL     1      -8.310   6.249  66.527  1.00  0.00    -0.114 C  
BRANCH  27  28
HETATM   28  C   UNL     1      -7.662   6.556  67.877  1.00  0.00    -0.104 C  
BRANCH  28  29
HETATM   29  C   UNL     1      -8.638   6.439  69.017  1.00  0.00    -0.124 A  
HETATM   30  C   UNL     1      -8.986   5.176  69.515  1.00  0.00    -0.128 A  
HETATM   31  C   UNL     1      -9.886   5.060  70.574  1.00  0.00    -0.290 A  
HETATM   32  C   UNL     1     -10.448   6.203  71.138  1.00  0.00    -0.281 A  
HETATM   33  C   UNL     1     -10.114   7.463  70.642  1.00  0.00    -0.191 A  
HETATM   34  C   UNL     1      -9.214   7.581  69.582  1.00  0.00    -0.146 A  
ENDBRANCH  28  29
ENDBRANCH  27  28
ENDBRANCH  24  27
ENDBRANCH  23  24
ENDBRANCH  22  23
ENDBRANCH  19  22
ENDBRANCH  12  13
ENDBRANCH  11  12
ENDBRANCH   9  10
ENDBRANCH   8   9
ENDBRANCH   7   8
ENDBRANCH   5   7
ENDBRANCH   4   5
ENDBRANCH   2   4
TORSDOF 14
ENDMDL
MODEL      366
REMARK 921   NORMALIZED FREE ENERGY PREDICTED BY IDOCK:   -1.30 KCAL/MOL
REMARK 922        TOTAL FREE ENERGY PREDICTED BY IDOCK:   -5.66 KCAL/MOL
REMARK 923 INTER-LIGAND FREE ENERGY PREDICTED BY IDOCK:   -5.16 KCAL/MOL
REMARK 924 INTRA-LIGAND FREE ENERGY PREDICTED BY IDOCK:   -0.51 KCAL/MOL
REMARK 927      BINDING AFFINITY PREDICTED BY RF-SCORE:    0.00 PKD
ROOT
HETATM    1  C   UNL     1     -13.077   6.440  72.353  1.00  0.00     0.307 C  
HETATM    2  C   UNL     1     -12.739   7.340  71.170  1.00  0.00    -0.306 C  
HETATM    3  C   UNL     1     -12.502   8.773  71.630  1.00  0.00    -0.392 C  
ENDROOT
BRANCH   2   4
HETATM    4  O   UNL     1     -11.526   6.878  70.547  1.00  0.00    -0.303 OA 
BRANCH   4   5
HETATM    5  C   UNL     1     -10.590   6.376  71.403  1.00  0.00    -0.230 C  
HETATM    6  O   UNL     1     -10.609   5.253  71.893  1.00  0.00    -0.220 OA 
BRANCH   5   7
HETATM    7  C   UNL     1      -9.538   7.420  71.675  1.00  0.00    -0.165 C  
BRANCH   7   8
HETATM    8  C   UNL     1      -8.219   7.055  70.989  1.00  0.00    -0.117 C  
BRANCH   8   9
HETATM    9  C   UNL     1      -8.173   7.463  69.519  1.00  0.00    -0.131 C  
BRANCH   9  10
HETATM   10  C   UNL     1      -9.267   8.429  69.159  1.00  0.00    -0.150 C  
HETATM   11  C   UNL     1      -9.723   8.700  67.925  1.00  0.00    -0.192 C  
BRANCH  11  12
HETATM   12  C   UNL     1      -9.259   8.079  66.639  1.00  0.00    -0.225 C  
BRANCH  12  13
HETATM   13  C   UNL     1      -8.129   8.818  65.901  1.00  0.00    -0.110 C  
HETATM   14  C   UNL     1      -7.459   7.900  64.862  1.00  0.00    -0.082 C  
HETATM   15  C   UNL     1      -6.653   8.867  64.014  1.00  0.00    -0.083 C  
HETATM   16  O   UNL     1      -8.421   7.271  64.015  1.00  0.00    -0.358 OA 
HETATM   17  C   UNL     1      -7.599  10.050  63.840  1.00  0.00    -0.138 C  
HETATM   18  H   UNL     1      -8.007   6.704  63.375  1.00  0.00     0.000 HD 
HETATM   19  C   UNL     1      -8.562  10.044  65.057  1.00  0.00    -0.173 C  
HETATM   20  O   UNL     1      -8.363   9.896  62.645  1.00  0.00    -0.133 OA 
HETATM   21  H   UNL     1      -8.952  10.633  62.537  1.00  0.00     0.000 HD 
BRANCH  19  22
HETATM   22  C   UNL     1      -8.488  11.371  65.834  1.00  0.00    -0.002 C  
BRANCH  22  23
HETATM   23  C   UNL     1      -7.417  11.301  66.927  1.00  0.00    -0.145 C  
BRANCH  23  24
HETATM   24  C   UNL     1      -7.892  11.758  68.312  1.00  0.00    -0.137 C  
HETATM   25  O   UNL     1      -7.305  10.939  69.324  1.00  0.00    -0.112 OA 
HETATM   26  H   UNL     1      -7.599  11.222  70.182  1.00  0.00     0.000 HD 
BRANCH  24  27
HETATM   27  C   UNL     1      -7.468  13.207  68.599  1.00  0.00    -0.092 C  
BRANCH  27  28
HETATM   28  C   UNL     1      -7.406  14.069  67.339  1.00  0.00    -0.135 C  
BRANCH  28  29
HETATM   29  C   UNL     1      -7.509  15.538  67.648  1.00  0.00    -0.189 A  
HETATM   30  C   UNL     1      -8.637  16.038  68.314  1.00  0.00    -0.179 A  
HETATM   31  C   UNL     1      -8.737  17.397  68.608  1.00  0.00    -0.261 A  
HETATM   32  C   UNL     1      -7.714  18.267  68.234  1.00  0.00    -0.303 A  
HETATM   33  C   UNL     1      -6.593  17.780  67.563  1.00  0.00    -0.177 A  
HETATM   34  C   UNL     1      -6.492  16.419  67.268  1.00  0.00    -0.222 A  
ENDBRANCH  28  29
ENDBRANCH  27  28
ENDBRANCH  24  27
ENDBRANCH  23  24
ENDBRANCH  22  23
ENDBRANCH  19  22
ENDBRANCH  12  13
ENDBRANCH  11  12
ENDBRANCH   9  10
ENDBRANCH   8   9
ENDBRANCH   7   8
ENDBRANCH   5   7
ENDBRANCH   4   5
ENDBRANCH   2   4
TORSDOF 14
ENDMDL
MODEL      367
REMARK 921   NORMALIZED FREE ENERGY PREDICTED BY IDOCK:   -1.22 KCAL/MOL
REMARK 922        TOTAL FREE ENERGY PREDICTED BY IDOCK:   -5.51 KCAL/MOL
REMARK 923 INTER-LIGAND FREE ENERGY PREDICTED BY IDOCK:   -4.38 KCAL/MOL
REMARK 924 INTRA-LIGAND FREE ENERGY PREDICTED BY IDOCK:   -1.13 KCAL/MOL
REMARK 927      BINDING AFFINITY PREDICTED BY RF-SCORE:    0.00 PKD
ROOT
HETATM    1  C   UNL     1      -6.103  14.163  70.303  1.00  0.00    -0.164 C  
HETATM    2  C   UNL     1      -6.812  15.146  69.377  1.00  0.00    -0.170 C  
HETATM    3  C   UNL     1      -5.806  15.898  68.515  1.00  0.00    -0.103 C  
ENDROOT
BRANCH   2   4
HETATM    4  O   UNL     1      -7.687  14.424  68.491  1.00  0.00    -0.121 OA 
BRANCH   4   5
HETATM    5  C   UNL     1      -7.515  13.070  68.482  1.00  0.00    -0.123 C  
HETATM    6  O   UNL     1      -7.760  12.320  69.419  1.00  0.00     0.284 OA 
BRANCH   5   7
HETATM    7  C   UNL     1      -6.955  12.637  67.151  1.00  0.00    -0.031 C  
BRANCH   7   8
HETATM    8  C   UNL     1      -5.590  11.969  67.326  1.00  0.00    -0.133 C  
BRANCH   8   9
HETATM    9  C   UNL     1      -5.541  11.005  68.509  1.00  0.00    -0.043 C  
BRANCH   9  10
HETATM   10  C   UNL     1      -6.194   9.687  68.200  1.00  0.00    -0.055 C  
HETATM   11  C   UNL     1      -6.140   9.017  67.037  1.00  0.00    -0.058 C  
BRANCH  11  12
HETATM   12  C   UNL     1      -5.394   9.427  65.799  1.00  0.00    -0.040 C  
BRANCH  12  13
HETATM   13  C   UNL     1      -6.177   9.337  64.478  1.00  0.00    -0.076 C  
HETATM   14  C   UNL     1      -5.708   8.132  63.642  1.00  0.00    -0.065 C  
HETATM   15  C   UNL     1      -6.795   7.995  62.593  1.00  0.00    -0.086 C  
HETATM   16  O   UNL     1      -5.688   6.931  64.413  1.00  0.00    -0.031 OA 
HETATM   17  C   UNL     1      -8.077   8.222  63.387  1.00  0.00    -0.133 C  
HETATM   18  H   UNL     1      -5.399   6.187  63.897  1.00  0.00     0.000 HD 
HETATM   19  C   UNL     1      -7.702   9.098  64.612  1.00  0.00    -0.113 C  
HETATM   20  O   UNL     1      -8.595   6.977  63.849  1.00  0.00    -0.328 OA 
HETATM   21  H   UNL     1      -9.394   7.119  64.344  1.00  0.00     0.000 HD 
BRANCH  19  22
HETATM   22  C   UNL     1      -8.520  10.403  64.636  1.00  0.00    -0.176 C  
BRANCH  22  23
HETATM   23  C   UNL     1      -9.945  10.142  65.132  1.00  0.00    -0.379 C  
BRANCH  23  24
HETATM   24  C   UNL     1     -10.182  10.505  66.603  1.00  0.00    -0.233 C  
HETATM   25  O   UNL     1     -11.403  11.235  66.736  1.00  0.00    -0.357 OA 
HETATM   26  H   UNL     1     -11.550  11.459  67.647  1.00  0.00     0.000 HD 
BRANCH  24  27
HETATM   27  C   UNL     1     -10.308   9.248  67.477  1.00  0.00    -0.323 C  
BRANCH  27  28
HETATM   28  C   UNL     1      -9.833   9.472  68.913  1.00  0.00    -0.179 C  
BRANCH  28  29
HETATM   29  C   UNL     1      -9.656   8.180  69.663  1.00  0.00    -0.168 A  
HETATM   30  C   UNL     1     -10.765   7.541  70.232  1.00  0.00    -0.247 A  
HETATM   31  C   UNL     1     -10.609   6.340  70.924  1.00  0.00    -0.293 A  
HETATM   32  C   UNL     1      -9.344   5.773  71.056  1.00  0.00    -0.183 A  
HETATM   33  C   UNL     1      -8.233   6.407  70.501  1.00  0.00    -0.118 A  
HETATM   34  C   UNL     1      -8.388   7.608  69.807  1.00  0.00    -0.133 A  
ENDBRANCH  28  29
ENDBRANCH  27  28
ENDBRANCH  24  27
ENDBRANCH  23  24
ENDBRANCH  22  23
ENDBRANCH  19  22
ENDBRANCH  12  13
ENDBRANCH  11  12
ENDBRANCH   9  10
ENDBRANCH   8   9
ENDBRANCH   7   8
ENDBRANCH   5   7
ENDBRANCH   4   5
ENDBRANCH   2   4
TORSDOF 14
ENDMDL
MODEL      368
REMARK 921   NORMALIZED FREE ENERGY PREDICTED BY IDOCK:   -1.07 KCAL/MOL
REMARK 922        TOTAL FREE ENERGY PREDICTED BY IDOCK:   -5.24 KCAL/MOL
REMARK 923 INTER-LIGAND FREE ENERGY PREDICTED BY IDOCK:   -7.06 KCAL/MOL
REMARK 924 INTRA-LIGAND FREE ENERGY PREDICTED BY IDOCK:    1.82 KCAL/MOL
REMARK 927      BINDING AFFINITY PREDICTED BY RF-SCORE:    0.00 PKD
ROOT
HETATM    1  C   UNL     1     -13.176  11.952  72.246  1.00  0.00    -0.191 C  
HETATM    2  C   UNL     1     -12.781  10.838  71.282  1.00  0.00    -0.441 C  
HETATM    3  C   UNL     1     -11.914  11.382  70.154  1.00  0.00    -0.460 C  
ENDROOT
BRANCH   2   4
HETATM    4  O   UNL     1     -12.008   9.849  71.985  1.00  0.00    -0.247 OA 
BRANCH   4   5
HETATM    5  C   UNL     1     -11.244   9.040  71.194  1.00  0.00    -0.305 C  
HETATM    6  O   UNL     1     -11.646   8.046  70.602  1.00  0.00    -0.272 OA 
BRANCH   5   7
HETATM    7  C   UNL     1      -9.823   9.542  71.176  1.00  0.00    -0.177 C  
BRANCH   7   8
HETATM    8  C   UNL     1      -9.215   9.406  69.779  1.00  0.00    -0.209 C  
BRANCH   8   9
HETATM    9  C   UNL     1      -9.874   8.314  68.941  1.00  0.00    -0.183 C  
BRANCH   9  10
HETATM   10  C   UNL     1     -10.989   8.844  68.084  1.00  0.00     0.054 C  
HETATM   11  C   UNL     1     -10.877   9.356  66.847  1.00  0.00    -0.055 C  
BRANCH  11  12
HETATM   12  C   UNL     1      -9.616   9.486  66.040  1.00  0.00    -0.316 C  
BRANCH  12  13
HETATM   13  C   UNL     1      -8.322   9.706  66.842  1.00  0.00    -0.117 C  
HETATM   14  C   UNL     1      -7.299   8.592  66.550  1.00  0.00    -0.081 C  
HETATM   15  C   UNL     1      -6.008   9.151  67.118  1.00  0.00    -0.050 C  
HETATM   16  O   UNL     1      -7.114   8.400  65.148  1.00  0.00    -0.073 OA 
HETATM   17  C   UNL     1      -6.041  10.614  66.689  1.00  0.00    -0.081 C  
HETATM   18  H   UNL     1      -6.484   7.712  64.968  1.00  0.00     0.000 HD 
HETATM   19  C   UNL     1      -7.534  11.000  66.510  1.00  0.00    -0.145 C  
HETATM   20  O   UNL     1      -5.369  10.774  65.441  1.00  0.00    -0.126 OA 
HETATM   21  H   UNL     1      -5.390  11.686  65.174  1.00  0.00     0.000 HD 
BRANCH  19  22
HETATM   22  C   UNL     1      -7.915  12.188  67.413  1.00  0.00    -0.168 C  
BRANCH  22  23
HETATM   23  C   UNL     1      -9.436  12.351  67.484  1.00  0.00    -0.187 C  
BRANCH  23  24
HETATM   24  C   UNL     1     -10.025  13.288  66.422  1.00  0.00    -0.288 C  
HETATM   25  O   UNL     1     -11.302  12.809  66.002  1.00  0.00    -0.295 OA 
HETATM   26  H   UNL     1     -11.668  13.389  65.345  1.00  0.00     0.000 HD 
BRANCH  24  27
HETATM   27  C   UNL     1     -10.232  14.705  66.979  1.00  0.00    -0.261 C  
BRANCH  27  28
HETATM   28  C   UNL     1      -8.928  15.493  67.101  1.00  0.00    -0.232 C  
BRANCH  28  29
HETATM   29  C   UNL     1      -9.152  16.979  67.040  1.00  0.00    -0.234 A  
HETATM   30  C   UNL     1      -8.285  17.848  67.715  1.00  0.00    -0.233 A  
HETATM   31  C   UNL     1      -8.484  19.227  67.658  1.00  0.00    -0.327 A  
HETATM   32  C   UNL     1      -9.553  19.746  66.932  1.00  0.00    -0.494 A  
HETATM   33  C   UNL     1     -10.427  18.888  66.265  1.00  0.00    -0.510 A  
HETATM   34  C   UNL     1     -10.229  17.508  66.321  1.00  0.00    -0.356 A  
ENDBRANCH  28  29
ENDBRANCH  27  28
ENDBRANCH  24  27
ENDBRANCH  23  24
ENDBRANCH  22  23
ENDBRANCH  19  22
ENDBRANCH  12  13
ENDBRANCH  11  12
ENDBRANCH   9  10
ENDBRANCH   8   9
ENDBRANCH   7   8
ENDBRANCH   5   7
ENDBRANCH   4   5
ENDBRANCH   2   4
TORSDOF 14
ENDMDL
MODEL      369
REMARK 921   NORMALIZED FREE ENERGY PREDICTED BY IDOCK:   -0.66 KCAL/MOL
REMARK 922        TOTAL FREE ENERGY PREDICTED BY IDOCK:   -4.49 KCAL/MOL
REMARK 923 INTER-LIGAND FREE ENERGY PREDICTED BY IDOCK:   -4.46 KCAL/MOL
REMARK 924 INTRA-LIGAND FREE ENERGY PREDICTED BY IDOCK:   -0.02 KCAL/MOL
REMARK 927      BINDING AFFINITY PREDICTED BY RF-SCORE:    0.00 PKD
ROOT
HETATM    1  C   UNL     1      -6.468  14.601  72.184  1.00  0.00     1.155 C  
HETATM    2  C   UNL     1      -5.294  14.129  71.335  1.00  0.00    -0.185 C  
HETATM    3  C   UNL     1      -5.476  12.674  70.922  1.00  0.00    -0.167 C  
ENDROOT
BRANCH   2   4
HETATM    4  O   UNL     1      -5.226  14.915  70.131  1.00  0.00    -0.099 OA 
BRANCH   4   5
HETATM    5  C   UNL     1      -6.425  15.152  69.525  1.00  0.00    -0.151 C  
HETATM    6  O   UNL     1      -7.134  16.132  69.716  1.00  0.00    -0.151 OA 
BRANCH   5   7
HETATM    7  C   UNL     1      -6.759  14.011  68.597  1.00  0.00    -0.096 C  
BRANCH   7   8
HETATM    8  C   UNL     1      -7.649  14.487  67.447  1.00  0.00    -0.209 C  
BRANCH   8   9
HETATM    9  C   UNL     1      -8.830  13.559  67.178  1.00  0.00    -0.231 C  
BRANCH   9  10
HETATM   10  C   UNL     1      -9.139  12.671  68.351  1.00  0.00    -0.128 C  
HETATM   11  C   UNL     1      -8.949  11.343  68.423  1.00  0.00    -0.172 C  
BRANCH  11  12
HETATM   12  C   UNL     1      -8.364  10.460  67.359  1.00  0.00    -0.121 C  
BRANCH  12  13
HETATM   13  C   UNL     1      -8.599   8.950  67.529  1.00  0.00    -0.120 C  
HETATM   14  C   UNL     1      -8.733   8.257  66.160  1.00  0.00    -0.150 C  
HETATM   15  C   UNL     1      -8.597   6.785  66.502  1.00  0.00    -0.128 C  
HETATM   16  O   UNL     1      -7.659   8.605  65.286  1.00  0.00    -0.084 OA 
HETATM   17  C   UNL     1      -7.466   6.767  67.525  1.00  0.00    -0.097 C  
HETATM   18  H   UNL     1      -7.742   8.177  64.441  1.00  0.00     0.000 HD 
HETATM   19  C   UNL     1      -7.453   8.160  68.210  1.00  0.00    -0.097 C  
HETATM   20  O   UNL     1      -6.216   6.561  66.871  1.00  0.00    -0.036 OA 
HETATM   21  H   UNL     1      -5.512   6.550  67.508  1.00  0.00     0.000 HD 
BRANCH  19  22
HETATM   22  C   UNL     1      -7.628   8.033  69.735  1.00  0.00    -0.092 C  
BRANCH  22  23
HETATM   23  C   UNL     1      -8.965   7.370  70.076  1.00  0.00    -0.144 C  
BRANCH  23  24
HETATM   24  C   UNL     1      -9.038   6.772  71.486  1.00  0.00    -0.145 C  
HETATM   25  O   UNL     1      -7.828   6.075  71.783  1.00  0.00    -0.100 OA 
HETATM   26  H   UNL     1      -7.872   5.705  72.657  1.00  0.00     0.000 HD 
BRANCH  24  27
HETATM   27  C   UNL     1      -9.204   7.867  72.551  1.00  0.00    -0.250 C  
BRANCH  27  28
HETATM   28  C   UNL     1     -10.126   9.000  72.099  1.00  0.00    -0.141 C  
BRANCH  28  29
HETATM   29  C   UNL     1     -11.557   8.555  71.974  1.00  0.00    -0.432 A  
HETATM   30  C   UNL     1     -12.580   9.306  72.569  1.00  0.00    -0.266 A  
HETATM   31  C   UNL     1     -13.910   8.902  72.452  1.00  0.00    -0.518 A  
HETATM   32  C   UNL     1     -14.226   7.743  71.746  1.00  0.00    -0.558 A  
HETATM   33  C   UNL     1     -13.213   6.985  71.159  1.00  0.00    -0.223 A  
HETATM   34  C   UNL     1     -11.882   7.388  71.274  1.00  0.00    -0.330 A  
ENDBRANCH  28  29
ENDBRANCH  27  28
ENDBRANCH  24  27
ENDBRANCH  23  24
ENDBRANCH  22  23
ENDBRANCH  19  22
ENDBRANCH  12  13
ENDBRANCH  11  12
ENDBRANCH   9  10
ENDBRANCH   8   9
ENDBRANCH   7   8
ENDBRANCH   5   7
ENDBRANCH   4   5
ENDBRANCH   2   4
TORSDOF 14
ENDMDL
MODEL      370
REMARK 921   NORMALIZED FREE ENERGY PREDICTED BY IDOCK:   -0.52 KCAL/MOL
REMARK 922        TOTAL FREE ENERGY PREDICTED BY IDOCK:   -4.23 KCAL/MOL
REMARK 923 INTER-LIGAND FREE ENERGY PREDICTED BY IDOCK:   -4.92 KCAL/MOL
REMARK 924 INTRA-LIGAND FREE ENERGY PREDICTED BY IDOCK:    0.69 KCAL/MOL
REMARK 927      BINDING AFFINITY PREDICTED BY RF-SCORE:    0.00 PKD
ROOT
HETATM    1  C   UNL     1     -10.777  18.711  68.343  1.00  0.00     0.022 C  
HETATM    2  C   UNL     1      -9.933  19.677  67.519  1.00  0.00    -0.388 C  
HETATM    3  C   UNL     1      -9.266  20.712  68.415  1.00  0.00     0.359 C  
ENDROOT
BRANCH   2   4
HETATM    4  O   UNL     1      -8.889  18.948  66.848  1.00  0.00    -0.280 OA 
BRANCH   4   5
HETATM    5  C   UNL     1      -9.319  17.993  65.973  1.00  0.00    -0.013 C  
HETATM    6  O   UNL     1     -10.292  18.094  65.236  1.00  0.00    -0.411 OA 
BRANCH   5   7
HETATM    7  C   UNL     1      -8.426  16.782  66.064  1.00  0.00    -0.201 C  
BRANCH   7   8
HETATM    8  C   UNL     1      -9.250  15.494  66.008  1.00  0.00    -0.361 C  
BRANCH   8   9
HETATM    9  C   UNL     1     -10.756  15.743  66.001  1.00  0.00    -0.311 C  
BRANCH   9  10
HETATM   10  C   UNL     1     -11.412  15.319  67.284  1.00  0.00    -0.227 C  
HETATM   11  C   UNL     1     -10.804  15.097  68.462  1.00  0.00    -0.247 C  
BRANCH  11  12
HETATM   12  C   UNL     1      -9.340  15.250  68.759  1.00  0.00    -0.210 C  
BRANCH  12  13
HETATM   13  C   UNL     1      -8.417  14.162  68.182  1.00  0.00    -0.173 C  
HETATM   14  C   UNL     1      -6.938  14.500  68.447  1.00  0.00    -0.107 C  
HETATM   15  C   UNL     1      -6.226  13.194  68.149  1.00  0.00    -0.106 C  
HETATM   16  O   UNL     1      -6.708  14.821  69.819  1.00  0.00    -0.155 OA 
HETATM   17  C   UNL     1      -7.139  12.146  68.775  1.00  0.00    -0.110 C  
HETATM   18  H   UNL     1      -5.795  15.029  69.983  1.00  0.00     0.000 HD 
HETATM   19  C   UNL     1      -8.569  12.749  68.801  1.00  0.00     0.172 C  
HETATM   20  O   UNL     1      -6.728  11.874  70.113  1.00  0.00    -0.417 OA 
HETATM   21  H   UNL     1      -7.297  11.221  70.504  1.00  0.00     0.000 HD 
BRANCH  19  22
HETATM   22  C   UNL     1      -9.565  11.857  68.036  1.00  0.00    -0.193 C  
BRANCH  22  23
HETATM   23  C   UNL     1      -9.302  11.918  66.529  1.00  0.00    -0.222 C  
BRANCH  23  24
HETATM   24  C   UNL     1      -9.930  10.772  65.727  1.00  0.00    -0.251 C  
HETATM   25  O   UNL     1      -9.543  10.866  64.356  1.00  0.00    -0.226 OA 
HETATM   26  H   UNL     1      -9.932  10.156  63.859  1.00  0.00     0.000 HD 
BRANCH  24  27
HETATM   27  C   UNL     1      -9.455   9.404  66.240  1.00  0.00    -0.273 C  
BRANCH  27  28
HETATM   28  C   UNL     1     -10.599   8.405  66.416  1.00  0.00     0.311 C  
BRANCH  28  29
HETATM   29  C   UNL     1     -10.606   7.783  67.785  1.00  0.00    -0.254 A  
HETATM   30  C   UNL     1     -10.111   6.485  67.969  1.00  0.00    -0.168 A  
HETATM   31  C   UNL     1     -10.109   5.903  69.236  1.00  0.00    -0.251 A  
HETATM   32  C   UNL     1     -10.608   6.612  70.327  1.00  0.00    -0.265 A  
HETATM   33  C   UNL     1     -11.112   7.900  70.152  1.00  0.00    -0.204 A  
HETATM   34  C   UNL     1     -11.113   8.484  68.884  1.00  0.00     0.236 A  
ENDBRANCH  28  29
ENDBRANCH  27  28
ENDBRANCH  24  27
ENDBRANCH  23  24
ENDBRANCH  22  23
ENDBRANCH  19  22
ENDBRANCH  12  13
ENDBRANCH  11  12
ENDBRANCH   9  10
ENDBRANCH   8   9
ENDBRANCH   7   8
ENDBRANCH   5   7
ENDBRANCH   4   5
ENDBRANCH   2   4
TORSDOF 14
ENDMDL
MODEL      371
REMARK 921   NORMALIZED FREE ENERGY PREDICTED BY IDOCK:   -0.48 KCAL/MOL
REMARK 922        TOTAL FREE ENERGY PREDICTED BY IDOCK:   -4.16 KCAL/MOL
REMARK 923 INTER-LIGAND FREE ENERGY PREDICTED BY IDOCK:   -5.70 KCAL/MOL
REMARK 924 INTRA-LIGAND FREE ENERGY PREDICTED BY IDOCK:    1.53 KCAL/MOL
REMARK 927      BINDING AFFINITY PREDICTED BY RF-SCORE:    0.00 PKD
ROOT
HETATM    1  C   UNL     1      -9.882  11.733  66.302  1.00  0.00    -0.245 C  
HETATM    2  C   UNL     1     -10.099  10.246  66.050  1.00  0.00    -0.244 C  
HETATM    3  C   UNL     1      -9.533   9.838  64.696  1.00  0.00    -0.295 C  
ENDROOT
BRANCH   2   4
HETATM    4  O   UNL     1      -9.407   9.483  67.056  1.00  0.00    -0.142 OA 
BRANCH   4   5
HETATM    5  C   UNL     1      -8.116   9.161  66.754  1.00  0.00    -0.111 C  
HETATM    6  O   UNL     1      -7.501   8.203  67.205  1.00  0.00    -0.087 OA 
BRANCH   5   7
HETATM    7  C   UNL     1      -7.550  10.178  65.796  1.00  0.00    -0.134 C  
BRANCH   7   8
HETATM    8  C   UNL     1      -6.918  11.347  66.553  1.00  0.00    -0.062 C  
BRANCH   8   9
HETATM    9  C   UNL     1      -5.492  11.061  67.018  1.00  0.00    -0.060 C  
BRANCH   9  10
HETATM   10  C   UNL     1      -5.184  11.696  68.345  1.00  0.00    -0.039 C  
HETATM   11  C   UNL     1      -5.699  12.840  68.825  1.00  0.00    -0.067 C  
BRANCH  11  12
HETATM   12  C   UNL     1      -6.712  13.722  68.152  1.00  0.00    -0.124 C  
BRANCH  12  13
HETATM   13  C   UNL     1      -6.911  15.116  68.771  1.00  0.00    -0.111 C  
HETATM   14  C   UNL     1      -6.076  16.173  68.025  1.00  0.00    -0.120 C  
HETATM   15  C   UNL     1      -6.657  17.485  68.517  1.00  0.00    -0.198 C  
HETATM   16  O   UNL     1      -6.278  16.105  66.614  1.00  0.00    -0.253 OA 
HETATM   17  C   UNL     1      -8.159  17.220  68.524  1.00  0.00    -0.262 C  
HETATM   18  H   UNL     1      -5.763  16.757  66.153  1.00  0.00     0.000 HD 
HETATM   19  C   UNL     1      -8.349  15.689  68.695  1.00  0.00    -0.177 C  
HETATM   20  O   UNL     1      -8.733  17.622  67.281  1.00  0.00    -0.229 OA 
HETATM   21  H   UNL     1      -9.669  17.457  67.286  1.00  0.00     0.000 HD 
BRANCH  19  22
HETATM   22  C   UNL     1      -9.196  15.368  69.941  1.00  0.00     0.040 C  
BRANCH  22  23
HETATM   23  C   UNL     1     -10.613  15.929  69.794  1.00  0.00    -0.322 C  
BRANCH  23  24
HETATM   24  C   UNL     1     -11.728  14.885  69.932  1.00  0.00    -0.305 C  
HETATM   25  O   UNL     1     -12.989  15.470  69.609  1.00  0.00    -0.497 OA 
HETATM   26  H   UNL     1     -13.679  14.824  69.694  1.00  0.00     0.000 HD 
BRANCH  24  27
HETATM   27  C   UNL     1     -11.514  13.706  68.970  1.00  0.00    -0.346 C  
BRANCH  27  28
HETATM   28  C   UNL     1     -12.594  13.616  67.892  1.00  0.00     0.579 C  
BRANCH  28  29
HETATM   29  C   UNL     1     -12.111  14.118  66.558  1.00  0.00    -0.481 A  
HETATM   30  C   UNL     1     -11.305  15.262  66.489  1.00  0.00    -0.168 A  
HETATM   31  C   UNL     1     -10.850  15.730  65.257  1.00  0.00    -0.409 A  
HETATM   32  C   UNL     1     -11.200  15.061  64.086  1.00  0.00     0.180 A  
HETATM   33  C   UNL     1     -12.010  13.928  64.145  1.00  0.00    -0.464 A  
HETATM   34  C   UNL     1     -12.466  13.458  65.377  1.00  0.00    -0.543 A  
ENDBRANCH  28  29
ENDBRANCH  27  28
ENDBRANCH  24  27
ENDBRANCH  23  24
ENDBRANCH  22  23
ENDBRANCH  19  22
ENDBRANCH  12  13
ENDBRANCH  11  12
ENDBRANCH   9  10
ENDBRANCH   8   9
ENDBRANCH   7   8
ENDBRANCH   5   7
ENDBRANCH   4   5
ENDBRANCH   2   4
TORSDOF 14
ENDMDL
MODEL      372
REMARK 921   NORMALIZED FREE ENERGY PREDICTED BY IDOCK:    0.13 KCAL/MOL
REMARK 922        TOTAL FREE ENERGY PREDICTED BY IDOCK:   -3.05 KCAL/MOL
REMARK 923 INTER-LIGAND FREE ENERGY PREDICTED BY IDOCK:   -3.10 KCAL/MOL
REMARK 924 INTRA-LIGAND FREE ENERGY PREDICTED BY IDOCK:    0.05 KCAL/MOL
REMARK 927      BINDING AFFINITY PREDICTED BY RF-SCORE:    0.00 PKD
ROOT
HETATM    1  C   UNL     1      -7.233  13.971  70.423  1.00  0.00     0.838 C  
HETATM    2  C   UNL     1      -7.493  15.204  69.565  1.00  0.00    -0.213 C  
HETATM    3  C   UNL     1      -6.182  15.867  69.160  1.00  0.00    -0.140 C  
ENDROOT
BRANCH   2   4
HETATM    4  O   UNL     1      -8.172  14.814  68.358  1.00  0.00    -0.140 OA 
BRANCH   4   5
HETATM    5  C   UNL     1      -8.195  13.471  68.113  1.00  0.00    -0.162 C  
HETATM    6  O   UNL     1      -8.818  12.643  68.766  1.00  0.00    -0.000 OA 
BRANCH   5   7
HETATM    7  C   UNL     1      -7.317  13.156  66.929  1.00  0.00     0.427 C  
BRANCH   7   8
HETATM    8  C   UNL     1      -6.087  12.355  67.361  1.00  0.00    -0.158 C  
BRANCH   8   9
HETATM    9  C   UNL     1      -6.266  11.659  68.707  1.00  0.00    -0.052 C  
BRANCH   9  10
HETATM   10  C   UNL     1      -6.508  10.183  68.560  1.00  0.00    -0.049 C  
HETATM   11  C   UNL     1      -6.306   9.443  67.457  1.00  0.00    -0.062 C  
BRANCH  11  12
HETATM   12  C   UNL     1      -5.770   9.923  66.139  1.00  0.00    -0.058 C  
BRANCH  12  13
HETATM   13  C   UNL     1      -6.756   9.893  64.958  1.00  0.00    -0.121 C  
HETATM   14  C   UNL     1      -6.139   9.172  63.746  1.00  0.00    -0.087 C  
HETATM   15  C   UNL     1      -7.334   8.925  62.844  1.00  0.00    -0.097 C  
HETATM   16  O   UNL     1      -5.593   7.903  64.108  1.00  0.00    -0.043 OA 
HETATM   17  C   UNL     1      -8.422   8.489  63.819  1.00  0.00    -0.022 C  
HETATM   18  H   UNL     1      -5.212   7.458  63.360  1.00  0.00     0.000 HD 
HETATM   19  C   UNL     1      -8.073   9.111  65.197  1.00  0.00    -0.130 C  
HETATM   20  O   UNL     1      -8.430   7.068  63.942  1.00  0.00    -0.347 OA 
HETATM   21  H   UNL     1      -9.108   6.796  64.549  1.00  0.00     0.000 HD 
BRANCH  19  22
HETATM   22  C   UNL     1      -9.219  10.001  65.714  1.00  0.00    -0.222 C  
BRANCH  22  23
HETATM   23  C   UNL     1     -10.374   9.145  66.244  1.00  0.00    -0.166 C  
BRANCH  23  24
HETATM   24  C   UNL     1      -9.942   7.979  67.140  1.00  0.00    -0.235 C  
HETATM   25  O   UNL     1      -9.622   8.459  68.446  1.00  0.00    -0.145 OA 
HETATM   26  H   UNL     1      -9.355   7.737  69.002  1.00  0.00     0.000 HD 
BRANCH  24  27
HETATM   27  C   UNL     1     -11.069   6.947  67.300  1.00  0.00    -0.355 C  
BRANCH  27  28
HETATM   28  C   UNL     1     -10.599   5.512  67.065  1.00  0.00    -0.332 C  
BRANCH  28  29
HETATM   29  C   UNL     1      -9.821   4.969  68.233  1.00  0.00    -0.211 A  
HETATM   30  C   UNL     1      -8.633   4.257  68.015  1.00  0.00    -0.106 A  
HETATM   31  C   UNL     1      -7.904   3.756  69.092  1.00  0.00    -0.052 A  
HETATM   32  C   UNL     1      -8.359   3.957  70.394  1.00  0.00    -0.080 A  
HETATM   33  C   UNL     1      -9.545   4.655  70.619  1.00  0.00    -0.261 A  
HETATM   34  C   UNL     1     -10.275   5.158  69.541  1.00  0.00    -0.318 A  
ENDBRANCH  28  29
ENDBRANCH  27  28
ENDBRANCH  24  27
ENDBRANCH  23  24
ENDBRANCH  22  23
ENDBRANCH  19  22
ENDBRANCH  12  13
ENDBRANCH  11  12
ENDBRANCH   9  10
ENDBRANCH   8   9
ENDBRANCH   7   8
ENDBRANCH   5   7
ENDBRANCH   4   5
ENDBRANCH   2   4
TORSDOF 14
ENDMDL
MODEL      373
REMARK 921   NORMALIZED FREE ENERGY PREDICTED BY IDOCK:    0.50 KCAL/MOL
REMARK 922        TOTAL FREE ENERGY PREDICTED BY IDOCK:   -2.38 KCAL/MOL
REMARK 923 INTER-LIGAND FREE ENERGY PREDICTED BY IDOCK:   -3.95 KCAL/MOL
REMARK 924 INTRA-LIGAND FREE ENERGY PREDICTED BY IDOCK:    1.57 KCAL/MOL
REMARK 927      BINDING AFFINITY PREDICTED BY RF-SCORE:    0.00 PKD
ROOT
HETATM    1  C   UNL     1     -12.987  12.852  64.288  1.00  0.00    -0.051 C  
HETATM    2  C   UNL     1     -12.072  14.043  64.028  1.00  0.00    -0.376 C  
HETATM    3  C   UNL     1     -11.981  14.934  65.260  1.00  0.00    -0.168 C  
ENDROOT
BRANCH   2   4
HETATM    4  O   UNL     1     -10.744  13.573  63.735  1.00  0.00    -0.045 OA 
BRANCH   4   5
HETATM    5  C   UNL     1     -10.610  12.216  63.669  1.00  0.00    -0.461 C  
HETATM    6  O   UNL     1     -10.696  11.545  62.648  1.00  0.00     0.160 OA 
BRANCH   5   7
HETATM    7  C   UNL     1     -10.365  11.662  65.050  1.00  0.00    -0.329 C  
BRANCH   7   8
HETATM    8  C   UNL     1     -10.854  12.637  66.122  1.00  0.00    -0.301 C  
BRANCH   8   9
HETATM    9  C   UNL     1     -10.156  12.450  67.467  1.00  0.00    -0.205 C  
BRANCH   9  10
HETATM   10  C   UNL     1      -8.659  12.420  67.335  1.00  0.00    -0.181 C  
HETATM   11  C   UNL     1      -7.810  11.627  68.010  1.00  0.00    -0.128 C  
BRANCH  11  12
HETATM   12  C   UNL     1      -8.173  10.580  69.024  1.00  0.00    -0.145 C  
BRANCH  12  13
HETATM   13  C   UNL     1      -7.033   9.648  69.470  1.00  0.00    -0.059 C  
HETATM   14  C   UNL     1      -7.046   9.457  70.999  1.00  0.00    -0.044 C  
HETATM   15  C   UNL     1      -6.124   8.271  71.207  1.00  0.00    -0.036 C  
HETATM   16  O   UNL     1      -8.343   9.094  71.473  1.00  0.00    -0.336 OA 
HETATM   17  C   UNL     1      -6.513   7.323  70.078  1.00  0.00    -0.035 C  
HETATM   18  H   UNL     1      -8.351   8.976  72.416  1.00  0.00     0.000 HD 
HETATM   19  C   UNL     1      -7.099   8.195  68.936  1.00  0.00    -0.066 C  
HETATM   20  O   UNL     1      -7.515   6.412  70.526  1.00  0.00    -0.086 OA 
HETATM   21  H   UNL     1      -7.757   5.822  69.822  1.00  0.00     0.000 HD 
BRANCH  19  22
HETATM   22  C   UNL     1      -6.316   7.996  67.625  1.00  0.00    -0.052 C  
BRANCH  22  23
HETATM   23  C   UNL     1      -7.000   6.953  66.736  1.00  0.00    -0.066 C  
BRANCH  23  24
HETATM   24  C   UNL     1      -8.532   7.003  66.761  1.00  0.00    -0.118 C  
HETATM   25  O   UNL     1      -8.995   8.162  66.067  1.00  0.00    -0.166 OA 
HETATM   26  H   UNL     1      -9.944   8.193  66.082  1.00  0.00     0.000 HD 
BRANCH  24  27
HETATM   27  C   UNL     1      -9.144   5.780  66.062  1.00  0.00    -0.163 C  
BRANCH  27  28
HETATM   28  C   UNL     1      -8.770   5.692  64.582  1.00  0.00     0.028 C  
BRANCH  28  29
HETATM   29  C   UNL     1      -8.493   4.278  64.148  1.00  0.00    -0.111 A  
HETATM   30  C   UNL     1      -9.426   3.267  64.414  1.00  0.00    -0.145 A  
HETATM   31  C   UNL     1      -9.179   1.956  64.010  1.00  0.00    -0.114 A  
HETATM   32  C   UNL     1      -7.996   1.645  63.343  1.00  0.00    -0.060 A  
HETATM   33  C   UNL     1      -7.058   2.643  63.083  1.00  0.00    -0.037 A  
HETATM   34  C   UNL     1      -7.304   3.956  63.486  1.00  0.00    -0.051 A  
ENDBRANCH  28  29
ENDBRANCH  27  28
ENDBRANCH  24  27
ENDBRANCH  23  24
ENDBRANCH  22  23
ENDBRANCH  19  22
ENDBRANCH  12  13
ENDBRANCH  11  12
ENDBRANCH   9  10
ENDBRANCH   8   9
ENDBRANCH   7   8
ENDBRANCH   5   7
ENDBRANCH   4   5
ENDBRANCH   2   4
TORSDOF 14
ENDMDL
MODEL      374
REMARK 921   NORMALIZED FREE ENERGY PREDICTED BY IDOCK:    0.51 KCAL/MOL
REMARK 922        TOTAL FREE ENERGY PREDICTED BY IDOCK:   -2.37 KCAL/MOL
REMARK 923 INTER-LIGAND FREE ENERGY PREDICTED BY IDOCK:   -5.29 KCAL/MOL
REMARK 924 INTRA-LIGAND FREE ENERGY PREDICTED BY IDOCK:    2.92 KCAL/MOL
REMARK 927      BINDING AFFINITY PREDICTED BY RF-SCORE:    0.00 PKD
ROOT
HETATM    1  C   UNL     1      -9.081  11.012  62.934  1.00  0.00    -0.333 C  
HETATM    2  C   UNL     1     -10.040  12.162  63.222  1.00  0.00    -0.259 C  
HETATM    3  C   UNL     1     -11.459  11.645  63.424  1.00  0.00    -0.360 C  
ENDROOT
BRANCH   2   4
HETATM    4  O   UNL     1      -9.643  12.823  64.438  1.00  0.00     0.061 OA 
BRANCH   4   5
HETATM    5  C   UNL     1      -9.443  12.000  65.507  1.00  0.00    -0.104 C  
HETATM    6  O   UNL     1      -8.710  12.241  66.459  1.00  0.00    -0.176 OA 
BRANCH   5   7
HETATM    7  C   UNL     1     -10.244  10.735  65.332  1.00  0.00    -0.341 C  
BRANCH   7   8
HETATM    8  C   UNL     1     -11.447  10.717  66.277  1.00  0.00     0.591 C  
BRANCH   8   9
HETATM    9  C   UNL     1     -11.506  11.933  67.198  1.00  0.00    -0.386 C  
BRANCH   9  10
HETATM   10  C   UNL     1     -12.066  11.599  68.552  1.00  0.00    -0.148 C  
HETATM   11  C   UNL     1     -11.412  11.012  69.568  1.00  0.00    -0.370 C  
BRANCH  11  12
HETATM   12  C   UNL     1      -9.972  10.586  69.582  1.00  0.00    -0.149 C  
BRANCH  12  13
HETATM   13  C   UNL     1      -9.717   9.069  69.637  1.00  0.00    -0.177 C  
HETATM   14  C   UNL     1      -9.892   8.534  71.070  1.00  0.00    -0.195 C  
HETATM   15  C   UNL     1      -9.962   7.032  70.873  1.00  0.00    -0.200 C  
HETATM   16  O   UNL     1     -11.128   8.959  71.645  1.00  0.00    -0.298 OA 
HETATM   17  C   UNL     1     -10.841   6.882  69.636  1.00  0.00    -0.259 C  
HETATM   18  H   UNL     1     -11.235   8.629  72.529  1.00  0.00     0.000 HD 
HETATM   19  C   UNL     1     -10.693   8.190  68.814  1.00  0.00    -0.074 C  
HETATM   20  O   UNL     1     -12.206   6.729  70.021  1.00  0.00    -0.641 OA 
HETATM   21  H   UNL     1     -12.754   6.636  69.250  1.00  0.00     0.000 HD 
BRANCH  19  22
HETATM   22  C   UNL     1     -10.190   7.899  67.388  1.00  0.00    -0.320 C  
BRANCH  22  23
HETATM   23  C   UNL     1      -9.388   6.595  67.350  1.00  0.00    -0.136 C  
BRANCH  23  24
HETATM   24  C   UNL     1     -10.190   5.345  67.734  1.00  0.00    -0.178 C  
HETATM   25  O   UNL     1     -10.925   4.871  66.606  1.00  0.00    -0.343 OA 
HETATM   26  H   UNL     1     -11.422   4.097  66.843  1.00  0.00     0.000 HD 
BRANCH  24  27
HETATM   27  C   UNL     1      -9.265   4.204  68.185  1.00  0.00    -0.194 C  
BRANCH  27  28
HETATM   28  C   UNL     1      -8.063   4.696  68.991  1.00  0.00    -0.077 C  
BRANCH  28  29
HETATM   29  C   UNL     1      -7.649   3.714  70.053  1.00  0.00    -0.048 A  
HETATM   30  C   UNL     1      -6.586   4.017  70.914  1.00  0.00    -0.031 A  
HETATM   31  C   UNL     1      -6.201   3.115  71.904  1.00  0.00    -0.014 A  
HETATM   32  C   UNL     1      -6.870   1.900  72.037  1.00  0.00    -0.018 A  
HETATM   33  C   UNL     1      -7.923   1.586  71.178  1.00  0.00    -0.040 A  
HETATM   34  C   UNL     1      -8.311   2.489  70.187  1.00  0.00    -0.074 A  
ENDBRANCH  28  29
ENDBRANCH  27  28
ENDBRANCH  24  27
ENDBRANCH  23  24
ENDBRANCH  22  23
ENDBRANCH  19  22
ENDBRANCH  12  13
ENDBRANCH  11  12
ENDBRANCH   9  10
ENDBRANCH   8   9
ENDBRANCH   7   8
ENDBRANCH   5   7
ENDBRANCH   4   5
ENDBRANCH   2   4
TORSDOF 14
ENDMDL
MODEL      375
REMARK 921   NORMALIZED FREE ENERGY PREDICTED BY IDOCK:    0.57 KCAL/MOL
REMARK 922        TOTAL FREE ENERGY PREDICTED BY IDOCK:   -2.26 KCAL/MOL
REMARK 923 INTER-LIGAND FREE ENERGY PREDICTED BY IDOCK:   -1.95 KCAL/MOL
REMARK 924 INTRA-LIGAND FREE ENERGY PREDICTED BY IDOCK:   -0.32 KCAL/MOL
REMARK 927      BINDING AFFINITY PREDICTED BY RF-SCORE:    0.00 PKD
ROOT
HETATM    1  C   UNL     1     -12.272   6.501  68.044  1.00  0.00     3.518 C  
HETATM    2  C   UNL     1     -10.825   6.174  67.691  1.00  0.00    -0.332 C  
HETATM    3  C   UNL     1     -10.761   5.108  66.605  1.00  0.00    -0.225 C  
ENDROOT
BRANCH   2   4
HETATM    4  O   UNL     1     -10.179   7.354  67.179  1.00  0.00    -0.219 OA 
BRANCH   4   5
HETATM    5  C   UNL     1     -10.006   8.360  68.084  1.00  0.00    -0.191 C  
HETATM    6  O   UNL     1     -10.779   9.294  68.261  1.00  0.00    -0.209 OA 
BRANCH   5   7
HETATM    7  C   UNL     1      -8.706   8.162  68.821  1.00  0.00    -0.138 C  
BRANCH   7   8
HETATM    8  C   UNL     1      -8.069   9.508  69.172  1.00  0.00    -0.103 C  
BRANCH   8   9
HETATM    9  C   UNL     1      -7.824   9.685  70.668  1.00  0.00    -0.084 C  
BRANCH   9  10
HETATM   10  C   UNL     1      -8.764   8.863  71.504  1.00  0.00    -0.232 C  
HETATM   11  C   UNL     1     -10.070   9.101  71.711  1.00  0.00    -0.279 C  
BRANCH  11  12
HETATM   12  C   UNL     1     -10.881  10.226  71.133  1.00  0.00     0.305 C  
BRANCH  12  13
HETATM   13  C   UNL     1     -12.409  10.060  71.199  1.00  0.00    -0.477 C  
HETATM   14  C   UNL     1     -12.798   8.571  71.258  1.00  0.00    -0.181 C  
HETATM   15  C   UNL     1     -14.256   8.611  71.674  1.00  0.00    -0.463 C  
HETATM   16  O   UNL     1     -12.072   7.877  72.273  1.00  0.00    -0.329 OA 
HETATM   17  C   UNL     1     -14.285   9.696  72.745  1.00  0.00     0.451 C  
HETATM   18  H   UNL     1     -12.312   6.958  72.309  1.00  0.00     0.000 HD 
HETATM   19  C   UNL     1     -13.099  10.653  72.454  1.00  0.00     0.060 C  
HETATM   20  O   UNL     1     -14.105   9.115  74.035  1.00  0.00     0.097 OA 
HETATM   21  H   UNL     1     -14.123   9.791  74.703  1.00  0.00     0.000 HD 
BRANCH  19  22
HETATM   22  C   UNL     1     -13.586  12.100  72.250  1.00  0.00    -0.226 C  
BRANCH  22  23
HETATM   23  C   UNL     1     -12.851  12.761  71.081  1.00  0.00    -0.315 C  
BRANCH  23  24
HETATM   24  C   UNL     1     -12.857  14.294  71.111  1.00  0.00    -0.359 C  
HETATM   25  O   UNL     1     -12.769  14.756  72.459  1.00  0.00    -0.335 OA 
HETATM   26  H   UNL     1     -12.772  15.706  72.478  1.00  0.00     0.000 HD 
BRANCH  24  27
HETATM   27  C   UNL     1     -11.655  14.875  70.352  1.00  0.00    -0.330 C  
BRANCH  27  28
HETATM   28  C   UNL     1     -11.929  15.067  68.861  1.00  0.00    -0.287 C  
BRANCH  28  29
HETATM   29  C   UNL     1     -11.527  13.866  68.048  1.00  0.00    -0.339 A  
HETATM   30  C   UNL     1     -12.445  13.272  67.171  1.00  0.00     0.051 A  
HETATM   31  C   UNL     1     -12.077  12.163  66.412  1.00  0.00    -0.012 A  
HETATM   32  C   UNL     1     -10.793  11.635  66.527  1.00  0.00    -0.328 A  
HETATM   33  C   UNL     1      -9.877  12.214  67.404  1.00  0.00    -0.193 A  
HETATM   34  C   UNL     1     -10.243  13.325  68.165  1.00  0.00    -0.243 A  
ENDBRANCH  28  29
ENDBRANCH  27  28
ENDBRANCH  24  27
ENDBRANCH  23  24
ENDBRANCH  22  23
ENDBRANCH  19  22
ENDBRANCH  12  13
ENDBRANCH  11  12
ENDBRANCH   9  10
ENDBRANCH   8   9
ENDBRANCH   7   8
ENDBRANCH   5   7
ENDBRANCH   4   5
ENDBRANCH   2   4
TORSDOF 14
ENDMDL
MODEL      376
REMARK 921   NORMALIZED FREE ENERGY PREDICTED BY IDOCK:    0.94 KCAL/MOL
REMARK 922        TOTAL FREE ENERGY PREDICTED BY IDOCK:   -1.59 KCAL/MOL
REMARK 923 INTER-LIGAND FREE ENERGY PREDICTED BY IDOCK:   -2.44 KCAL/MOL
REMARK 924 INTRA-LIGAND FREE ENERGY PREDICTED BY IDOCK:    0.85 KCAL/MOL
REMARK 927      BINDING AFFINITY PREDICTED BY RF-SCORE:    0.00 PKD
ROOT
HETATM    1  C   UNL     1      -6.445  14.128  71.421  1.00  0.00     0.624 C  
HETATM    2  C   UNL     1      -6.519  15.445  70.658  1.00  0.00     0.298 C  
HETATM    3  C   UNL     1      -5.126  16.019  70.431  1.00  0.00    -0.167 C  
ENDROOT
BRANCH   2   4
HETATM    4  O   UNL     1      -7.110  15.218  69.365  1.00  0.00    -0.160 OA 
BRANCH   4   5
HETATM    5  C   UNL     1      -7.205  13.908  68.994  1.00  0.00    -0.078 C  
HETATM    6  O   UNL     1      -7.901  13.065  69.546  1.00  0.00     0.573 OA 
BRANCH   5   7
HETATM    7  C   UNL     1      -6.306  13.648  67.812  1.00  0.00    -0.172 C  
BRANCH   7   8
HETATM    8  C   UNL     1      -5.146  12.730  68.202  1.00  0.00    -0.077 C  
BRANCH   8   9
HETATM    9  C   UNL     1      -5.222  12.248  69.648  1.00  0.00    -0.074 C  
BRANCH   9  10
HETATM   10  C   UNL     1      -5.845  10.885  69.765  1.00  0.00    -0.067 C  
HETATM   11  C   UNL     1      -6.016   9.993  68.775  1.00  0.00    -0.037 C  
BRANCH  11  12
HETATM   12  C   UNL     1      -5.599  10.153  67.341  1.00  0.00    -0.041 C  
BRANCH  12  13
HETATM   13  C   UNL     1      -6.683   9.870  66.287  1.00  0.00    -0.090 C  
HETATM   14  C   UNL     1      -6.182   8.855  65.242  1.00  0.00    -0.060 C  
HETATM   15  C   UNL     1      -7.453   8.438  64.528  1.00  0.00    -0.099 C  
HETATM   16  O   UNL     1      -5.624   7.695  65.860  1.00  0.00    -0.031 OA 
HETATM   17  C   UNL     1      -8.460   8.289  65.664  1.00  0.00    -0.158 C  
HETATM   18  H   UNL     1      -5.315   7.069  65.215  1.00  0.00     0.000 HD 
HETATM   19  C   UNL     1      -7.984   9.215  66.815  1.00  0.00    -0.104 C  
HETATM   20  O   UNL     1      -8.476   6.941  66.131  1.00  0.00    -0.123 OA 
HETATM   21  H   UNL     1      -9.103   6.848  66.839  1.00  0.00     0.000 HD 
BRANCH  19  22
HETATM   22  C   UNL     1      -9.070  10.241  67.189  1.00  0.00    -0.156 C  
BRANCH  22  23
HETATM   23  C   UNL     1     -10.282   9.546  67.815  1.00  0.00    -0.265 C  
BRANCH  23  24
HETATM   24  C   UNL     1      -9.951   8.645  69.011  1.00  0.00    -0.192 C  
HETATM   25  O   UNL     1      -9.806   9.434  70.192  1.00  0.00    -0.200 OA 
HETATM   26  H   UNL     1      -9.601   8.876  70.933  1.00  0.00     0.000 HD 
BRANCH  24  27
HETATM   27  C   UNL     1     -11.076   7.632  69.277  1.00  0.00     0.066 C  
BRANCH  27  28
HETATM   28  C   UNL     1     -10.555   6.216  69.519  1.00  0.00    -0.350 C  
BRANCH  28  29
HETATM   29  C   UNL     1     -10.250   5.961  70.971  1.00  0.00    -0.266 A  
HETATM   30  C   UNL     1      -8.991   5.474  71.348  1.00  0.00    -0.150 A  
HETATM   31  C   UNL     1      -8.700   5.241  72.692  1.00  0.00    -0.120 A  
HETATM   32  C   UNL     1      -9.666   5.486  73.666  1.00  0.00    -0.153 A  
HETATM   33  C   UNL     1     -10.924   5.960  73.298  1.00  0.00    -0.267 A  
HETATM   34  C   UNL     1     -11.217   6.195  71.953  1.00  0.00    -0.336 A  
ENDBRANCH  28  29
ENDBRANCH  27  28
ENDBRANCH  24  27
ENDBRANCH  23  24
ENDBRANCH  22  23
ENDBRANCH  19  22
ENDBRANCH  12  13
ENDBRANCH  11  12
ENDBRANCH   9  10
ENDBRANCH   8   9
ENDBRANCH   7   8
ENDBRANCH   5   7
ENDBRANCH   4   5
ENDBRANCH   2   4
TORSDOF 14
ENDMDL
MODEL      377
REMARK 921   NORMALIZED FREE ENERGY PREDICTED BY IDOCK:    1.58 KCAL/MOL
REMARK 922        TOTAL FREE ENERGY PREDICTED BY IDOCK:   -0.42 KCAL/MOL
REMARK 923 INTER-LIGAND FREE ENERGY PREDICTED BY IDOCK:    0.30 KCAL/MOL
REMARK 924 INTRA-LIGAND FREE ENERGY PREDICTED BY IDOCK:   -0.72 KCAL/MOL
REMARK 927      BINDING AFFINITY PREDICTED BY RF-SCORE:    0.00 PKD
ROOT
HETATM    1  C   UNL     1     -10.380   5.915  67.637  1.00  0.00    -0.265 C  
HETATM    2  C   UNL     1      -8.973   5.624  67.127  1.00  0.00    -0.112 C  
HETATM    3  C   UNL     1      -8.621   4.155  67.318  1.00  0.00    -0.103 C  
ENDROOT
BRANCH   2   4
HETATM    4  O   UNL     1      -8.907   5.906  65.717  1.00  0.00    -0.150 OA 
BRANCH   4   5
HETATM    5  C   UNL     1      -9.038   7.222  65.381  1.00  0.00     0.320 C  
HETATM    6  O   UNL     1     -10.100   7.813  65.235  1.00  0.00     1.568 OA 
BRANCH   5   7
HETATM    7  C   UNL     1      -7.674   7.836  65.194  1.00  0.00    -0.101 C  
BRANCH   7   8
HETATM    8  C   UNL     1      -7.787   9.243  64.604  1.00  0.00    -0.120 C  
BRANCH   8   9
HETATM    9  C   UNL     1      -7.090  10.307  65.450  1.00  0.00    -0.139 C  
BRANCH   9  10
HETATM   10  C   UNL     1      -7.202  10.030  66.923  1.00  0.00    -0.091 C  
HETATM   11  C   UNL     1      -8.196  10.418  67.739  1.00  0.00    -0.110 C  
BRANCH  11  12
HETATM   12  C   UNL     1      -9.425  11.190  67.354  1.00  0.00    -0.176 C  
BRANCH  12  13
HETATM   13  C   UNL     1     -10.712  10.838  68.119  1.00  0.00    -0.257 C  
HETATM   14  C   UNL     1     -10.384  10.243  69.501  1.00  0.00    -0.242 C  
HETATM   15  C   UNL     1     -11.715  10.297  70.227  1.00  0.00    -0.388 C  
HETATM   16  O   UNL     1      -9.458  11.058  70.220  1.00  0.00     0.584 OA 
HETATM   17  C   UNL     1     -12.272  11.661  69.833  1.00  0.00    -0.239 C  
HETATM   18  H   UNL     1      -9.256  10.690  71.073  1.00  0.00     0.000 HD 
HETATM   19  C   UNL     1     -11.641  12.030  68.464  1.00  0.00    -0.363 C  
HETATM   20  O   UNL     1     -11.893  12.642  70.797  1.00  0.00    -0.477 OA 
HETATM   21  H   UNL     1     -12.240  13.492  70.551  1.00  0.00     0.000 HD 
BRANCH  19  22
HETATM   22  C   UNL     1     -12.724  12.281  67.399  1.00  0.00     2.145 C  
BRANCH  22  23
HETATM   23  C   UNL     1     -12.201  13.210  66.300  1.00  0.00    -0.423 C  
BRANCH  23  24
HETATM   24  C   UNL     1     -11.069  12.618  65.453  1.00  0.00    -0.292 C  
HETATM   25  O   UNL     1     -11.606  11.986  64.291  1.00  0.00    -0.349 OA 
HETATM   26  H   UNL     1     -10.905  11.619  63.766  1.00  0.00     0.000 HD 
BRANCH  24  27
HETATM   27  C   UNL     1     -10.102  13.709  64.969  1.00  0.00    -0.293 C  
BRANCH  27  28
HETATM   28  C   UNL     1      -9.368  14.404  66.116  1.00  0.00    -0.221 C  
BRANCH  28  29
HETATM   29  C   UNL     1     -10.091  15.634  66.593  1.00  0.00    -0.280 A  
HETATM   30  C   UNL     1     -10.263  15.860  67.965  1.00  0.00    -0.238 A  
HETATM   31  C   UNL     1     -10.928  17.000  68.414  1.00  0.00    -0.263 A  
HETATM   32  C   UNL     1     -11.429  17.920  67.496  1.00  0.00     0.881 A  
HETATM   33  C   UNL     1     -11.271  17.699  66.128  1.00  0.00     0.818 A  
HETATM   34  C   UNL     1     -10.605  16.558  65.677  1.00  0.00    -0.317 A  
ENDBRANCH  28  29
ENDBRANCH  27  28
ENDBRANCH  24  27
ENDBRANCH  23  24
ENDBRANCH  22  23
ENDBRANCH  19  22
ENDBRANCH  12  13
ENDBRANCH  11  12
ENDBRANCH   9  10
ENDBRANCH   8   9
ENDBRANCH   7   8
ENDBRANCH   5   7
ENDBRANCH   4   5
ENDBRANCH   2   4
TORSDOF 14
ENDMDL
MODEL      378
REMARK 921   NORMALIZED FREE ENERGY PREDICTED BY IDOCK:    2.33 KCAL/MOL
REMARK 922        TOTAL FREE ENERGY PREDICTED BY IDOCK:    0.94 KCAL/MOL
REMARK 923 INTER-LIGAND FREE ENERGY PREDICTED BY IDOCK:   -5.06 KCAL/MOL
REMARK 924 INTRA-LIGAND FREE ENERGY PREDICTED BY IDOCK:    5.99 KCAL/MOL
REMARK 927      BINDING AFFINITY PREDICTED BY RF-SCORE:    0.00 PKD
ROOT
HETATM    1  C   UNL     1     -10.304  16.658  64.883  1.00  0.00     0.369 C  
HETATM    2  C   UNL     1      -9.756  17.406  66.092  1.00  0.00    -0.217 C  
HETATM    3  C   UNL     1      -8.689  18.408  65.671  1.00  0.00     0.704 C  
ENDROOT
BRANCH   2   4
HETATM    4  O   UNL     1     -10.820  18.145  66.721  1.00  0.00    -0.258 OA 
BRANCH   4   5
HETATM    5  C   UNL     1     -10.419  19.065  67.645  1.00  0.00    -0.440 C  
HETATM    6  O   UNL     1     -10.566  20.277  67.547  1.00  0.00    -0.261 OA 
BRANCH   5   7
HETATM    7  C   UNL     1      -9.747  18.366  68.799  1.00  0.00    -0.369 C  
BRANCH   7   8
HETATM    8  C   UNL     1     -10.307  16.954  68.980  1.00  0.00    -0.333 C  
BRANCH   8   9
HETATM    9  C   UNL     1      -9.918  16.004  67.850  1.00  0.00    -0.233 C  
BRANCH   9  10
HETATM   10  C   UNL     1      -8.807  15.072  68.243  1.00  0.00    -0.172 C  
HETATM   11  C   UNL     1      -8.933  13.903  68.895  1.00  0.00     0.101 C  
BRANCH  11  12
HETATM   12  C   UNL     1     -10.212  13.263  69.351  1.00  0.00     0.490 C  
BRANCH  12  13
HETATM   13  C   UNL     1     -11.010  12.506  68.275  1.00  0.00    -0.270 C  
HETATM   14  C   UNL     1     -11.860  13.479  67.436  1.00  0.00    -0.384 C  
HETATM   15  C   UNL     1     -12.273  12.637  66.243  1.00  0.00    -0.225 C  
HETATM   16  O   UNL     1     -11.084  14.575  66.952  1.00  0.00    -0.309 OA 
HETATM   17  C   UNL     1     -11.001  11.870  65.899  1.00  0.00    -0.307 C  
HETATM   18  H   UNL     1     -11.608  15.175  66.434  1.00  0.00     0.000 HD 
HETATM   19  C   UNL     1     -10.168  11.766  67.205  1.00  0.00    -0.236 C  
HETATM   20  O   UNL     1     -10.245  12.585  64.924  1.00  0.00    -0.288 OA 
HETATM   21  H   UNL     1      -9.452  12.107  64.710  1.00  0.00     0.000 HD 
BRANCH  19  22
HETATM   22  C   UNL     1      -9.882  10.297  67.569  1.00  0.00    -0.204 C  
BRANCH  22  23
HETATM   23  C   UNL     1      -8.378  10.059  67.728  1.00  0.00    -0.114 C  
BRANCH  23  24
HETATM   24  C   UNL     1      -7.906   9.924  69.181  1.00  0.00    -0.105 C  
HETATM   25  O   UNL     1      -7.537  11.203  69.696  1.00  0.00    -0.358 OA 
HETATM   26  H   UNL     1      -7.244  11.119  70.596  1.00  0.00     0.000 HD 
BRANCH  24  27
HETATM   27  C   UNL     1      -9.022   9.376  70.084  1.00  0.00    -0.256 C  
BRANCH  27  28
HETATM   28  C   UNL     1      -8.545   9.082  71.506  1.00  0.00    -0.111 C  
BRANCH  28  29
HETATM   29  C   UNL     1      -9.463   8.134  72.230  1.00  0.00    -0.312 A  
HETATM   30  C   UNL     1     -10.533   7.537  71.551  1.00  0.00    -0.226 A  
HETATM   31  C   UNL     1     -11.384   6.655  72.214  1.00  0.00    -0.311 A  
HETATM   32  C   UNL     1     -11.176   6.367  73.561  1.00  0.00     0.183 A  
HETATM   33  C   UNL     1     -10.119   6.964  74.247  1.00  0.00    -0.287 A  
HETATM   34  C   UNL     1      -9.266   7.848  73.585  1.00  0.00    -0.320 A  
ENDBRANCH  28  29
ENDBRANCH  27  28
ENDBRANCH  24  27
ENDBRANCH  23  24
ENDBRANCH  22  23
ENDBRANCH  19  22
ENDBRANCH  12  13
ENDBRANCH  11  12
ENDBRANCH   9  10
ENDBRANCH   8   9
ENDBRANCH   7   8
ENDBRANCH   5   7
ENDBRANCH   4   5
ENDBRANCH   2   4
TORSDOF 14
ENDMDL
MODEL      379
REMARK 921   NORMALIZED FREE ENERGY PREDICTED BY IDOCK:    3.51 KCAL/MOL
REMARK 922        TOTAL FREE ENERGY PREDICTED BY IDOCK:    3.09 KCAL/MOL
REMARK 923 INTER-LIGAND FREE ENERGY PREDICTED BY IDOCK:    1.25 KCAL/MOL
REMARK 924 INTRA-LIGAND FREE ENERGY PREDICTED BY IDOCK:    1.84 KCAL/MOL
REMARK 927      BINDING AFFINITY PREDICTED BY RF-SCORE:    0.00 PKD
ROOT
HETATM    1  C   UNL     1      -6.357   6.494  69.775  1.00  0.00    -0.042 C  
HETATM    2  C   UNL     1      -7.561   7.130  69.090  1.00  0.00    -0.099 C  
HETATM    3  C   UNL     1      -8.056   8.336  69.878  1.00  0.00    -0.117 C  
ENDROOT
BRANCH   2   4
HETATM    4  O   UNL     1      -7.179   7.594  67.782  1.00  0.00    -0.082 OA 
BRANCH   4   5
HETATM    5  C   UNL     1      -8.098   8.384  67.156  1.00  0.00    -0.104 C  
HETATM    6  O   UNL     1      -8.611   8.149  66.069  1.00  0.00    -0.131 OA 
BRANCH   5   7
HETATM    7  C   UNL     1      -8.373   9.606  67.995  1.00  0.00    -0.117 C  
BRANCH   7   8
HETATM    8  C   UNL     1      -8.132  10.884  67.189  1.00  0.00    -0.127 C  
BRANCH   8   9
HETATM    9  C   UNL     1      -9.421  11.618  66.827  1.00  0.00    -0.197 C  
BRANCH   9  10
HETATM   10  C   UNL     1     -10.627  10.724  66.897  1.00  0.00    -0.312 C  
HETATM   11  C   UNL     1     -11.276  10.338  68.009  1.00  0.00    -0.303 C  
BRANCH  11  12
HETATM   12  C   UNL     1     -10.953  10.735  69.420  1.00  0.00    -0.305 C  
BRANCH  12  13
HETATM   13  C   UNL     1     -12.037  10.436  70.471  1.00  0.00    -0.423 C  
HETATM   14  C   UNL     1     -12.403   8.940  70.473  1.00  0.00     0.242 C  
HETATM   15  C   UNL     1     -13.182   8.777  71.764  1.00  0.00    -0.410 C  
HETATM   16  O   UNL     1     -11.241   8.114  70.554  1.00  0.00    -0.264 OA 
HETATM   17  C   UNL     1     -12.387   9.613  72.761  1.00  0.00     0.877 C  
HETATM   18  H   UNL     1     -11.467   7.191  70.556  1.00  0.00     0.000 HD 
HETATM   19  C   UNL     1     -11.641  10.702  71.945  1.00  0.00     1.355 C  
HETATM   20  O   UNL     1     -11.427   8.797  73.430  1.00  0.00     0.961 OA 
HETATM   21  H   UNL     1     -10.932   9.318  74.051  1.00  0.00     0.000 HD 
BRANCH  19  22
HETATM   22  C   UNL     1     -12.016  12.116  72.428  1.00  0.00     3.329 C  
BRANCH  22  23
HETATM   23  C   UNL     1     -12.933  12.809  71.416  1.00  0.00    -0.359 C  
BRANCH  23  24
HETATM   24  C   UNL     1     -12.778  14.334  71.358  1.00  0.00    -0.352 C  
HETATM   25  O   UNL     1     -11.433  14.700  71.671  1.00  0.00    -0.488 OA 
HETATM   26  H   UNL     1     -11.337  15.644  71.634  1.00  0.00     0.000 HD 
BRANCH  24  27
HETATM   27  C   UNL     1     -13.080  14.874  69.952  1.00  0.00     0.246 C  
BRANCH  27  28
HETATM   28  C   UNL     1     -12.270  14.176  68.860  1.00  0.00    -0.257 C  
BRANCH  28  29
HETATM   29  C   UNL     1     -10.879  14.737  68.735  1.00  0.00    -0.259 A  
HETATM   30  C   UNL     1      -9.927  14.083  67.942  1.00  0.00    -0.237 A  
HETATM   31  C   UNL     1      -8.638  14.600  67.818  1.00  0.00    -0.175 A  
HETATM   32  C   UNL     1      -8.291  15.771  68.488  1.00  0.00    -0.175 A  
HETATM   33  C   UNL     1      -9.229  16.423  69.286  1.00  0.00    -0.155 A  
HETATM   34  C   UNL     1     -10.520  15.907  69.411  1.00  0.00    -0.265 A  
ENDBRANCH  28  29
ENDBRANCH  27  28
ENDBRANCH  24  27
ENDBRANCH  23  24
ENDBRANCH  22  23
ENDBRANCH  19  22
ENDBRANCH  12  13
ENDBRANCH  11  12
ENDBRANCH   9  10
ENDBRANCH   8   9
ENDBRANCH   7   8
ENDBRANCH   5   7
ENDBRANCH   4   5
ENDBRANCH   2   4
TORSDOF 14
ENDMDL
MODEL      380
REMARK 921   NORMALIZED FREE ENERGY PREDICTED BY IDOCK:    4.60 KCAL/MOL
REMARK 922        TOTAL FREE ENERGY PREDICTED BY IDOCK:    5.08 KCAL/MOL
REMARK 923 INTER-LIGAND FREE ENERGY PREDICTED BY IDOCK:    0.81 KCAL/MOL
REMARK 924 INTRA-LIGAND FREE ENERGY PREDICTED BY IDOCK:    4.27 KCAL/MOL
REMARK 927      BINDING AFFINITY PREDICTED BY RF-SCORE:    0.00 PKD
ROOT
HETATM    1  C   UNL     1     -13.024  12.937  64.224  1.00  0.00    -0.051 C  
HETATM    2  C   UNL     1     -12.008  13.939  63.687  1.00  0.00    -0.165 C  
HETATM    3  C   UNL     1     -11.808  15.086  64.669  1.00  0.00    -0.378 C  
ENDROOT
BRANCH   2   4
HETATM    4  O   UNL     1     -10.736  13.287  63.517  1.00  0.00    -0.012 OA 
BRANCH   4   5
HETATM    5  C   UNL     1     -10.672  12.008  63.989  1.00  0.00    -0.375 C  
HETATM    6  O   UNL     1     -10.595  11.001  63.296  1.00  0.00    -0.312 OA 
BRANCH   5   7
HETATM    7  C   UNL     1     -10.734  12.019  65.495  1.00  0.00    -0.318 C  
BRANCH   7   8
HETATM    8  C   UNL     1     -11.233  13.370  66.010  1.00  0.00    -0.310 C  
BRANCH   8   9
HETATM    9  C   UNL     1     -10.309  13.993  67.054  1.00  0.00    -0.267 C  
BRANCH   9  10
HETATM   10  C   UNL     1      -8.863  13.928  66.651  1.00  0.00    -0.105 C  
HETATM   11  C   UNL     1      -7.807  13.799  67.471  1.00  0.00    -0.189 C  
BRANCH  11  12
HETATM   12  C   UNL     1      -7.842  13.665  68.966  1.00  0.00     0.130 C  
BRANCH  12  13
HETATM   13  C   UNL     1      -6.539  13.190  69.633  1.00  0.00     0.010 C  
HETATM   14  C   UNL     1      -6.218  14.038  70.878  1.00  0.00    -0.049 C  
HETATM   15  C   UNL     1      -5.148  13.226  71.583  1.00  0.00    -0.175 C  
HETATM   16  O   UNL     1      -7.341  14.137  71.753  1.00  0.00     1.625 OA 
HETATM   17  C   UNL     1      -5.654  11.793  71.453  1.00  0.00     0.232 C  
HETATM   18  H   UNL     1      -7.143  14.660  72.521  1.00  0.00     0.000 HD 
HETATM   19  C   UNL     1      -6.553  11.743  70.189  1.00  0.00     0.189 C  
HETATM   20  O   UNL     1      -6.437  11.444  72.593  1.00  0.00     2.737 OA 
HETATM   21  H   UNL     1      -6.752  10.552  72.511  1.00  0.00     0.000 HD 
BRANCH  19  22
HETATM   22  C   UNL     1      -6.039  10.701  69.179  1.00  0.00    -0.042 C  
BRANCH  22  23
HETATM   23  C   UNL     1      -6.911   9.442  69.206  1.00  0.00    -0.053 C  
BRANCH  23  24
HETATM   24  C   UNL     1      -8.379   9.693  69.572  1.00  0.00    -0.152 C  
HETATM   25  O   UNL     1      -8.993  10.524  68.586  1.00  0.00    -0.145 OA 
HETATM   26  H   UNL     1      -9.902  10.680  68.813  1.00  0.00     0.000 HD 
BRANCH  24  27
HETATM   27  C   UNL     1      -9.176   8.381  69.619  1.00  0.00    -0.160 C  
BRANCH  27  28
HETATM   28  C   UNL     1     -10.231   8.286  68.516  1.00  0.00    -0.234 C  
BRANCH  28  29
HETATM   29  C   UNL     1     -10.157   6.983  67.768  1.00  0.00    -0.205 A  
HETATM   30  C   UNL     1     -10.995   6.756  66.668  1.00  0.00    -0.064 A  
HETATM   31  C   UNL     1     -10.928   5.553  65.966  1.00  0.00     0.175 A  
HETATM   32  C   UNL     1     -10.028   4.566  66.363  1.00  0.00    -0.267 A  
HETATM   33  C   UNL     1      -9.197   4.779  67.462  1.00  0.00    -0.142 A  
HETATM   34  C   UNL     1      -9.263   5.983  68.165  1.00  0.00    -0.116 A  
ENDBRANCH  28  29
ENDBRANCH  27  28
ENDBRANCH  24  27
ENDBRANCH  23  24
ENDBRANCH  22  23
ENDBRANCH  19  22
ENDBRANCH  12  13
ENDBRANCH  11  12
ENDBRANCH   9  10
ENDBRANCH   8   9
ENDBRANCH   7   8
ENDBRANCH   5   7
ENDBRANCH   4   5
ENDBRANCH   2   4
TORSDOF 14
ENDMDL
MODEL      381
REMARK 921   NORMALIZED FREE ENERGY PREDICTED BY IDOCK:    4.85 KCAL/MOL
REMARK 922        TOTAL FREE ENERGY PREDICTED BY IDOCK:    5.53 KCAL/MOL
REMARK 923 INTER-LIGAND FREE ENERGY PREDICTED BY IDOCK:    0.40 KCAL/MOL
REMARK 924 INTRA-LIGAND FREE ENERGY PREDICTED BY IDOCK:    5.13 KCAL/MOL
REMARK 927      BINDING AFFINITY PREDICTED BY RF-SCORE:    0.00 PKD
ROOT
HETATM    1  C   UNL     1      -9.985   8.515  70.328  1.00  0.00    -0.196 C  
HETATM    2  C   UNL     1     -10.502   7.999  71.666  1.00  0.00    -0.219 C  
HETATM    3  C   UNL     1     -11.896   8.540  71.952  1.00  0.00    -0.407 C  
ENDROOT
BRANCH   2   4
HETATM    4  O   UNL     1     -10.595   6.563  71.622  1.00  0.00    -0.211 OA 
BRANCH   4   5
HETATM    5  C   UNL     1     -11.862   6.062  71.694  1.00  0.00    -0.076 C  
HETATM    6  O   UNL     1     -12.798   6.397  70.978  1.00  0.00     0.089 OA 
BRANCH   5   7
HETATM    7  C   UNL     1     -11.945   5.048  72.806  1.00  0.00     0.012 C  
BRANCH   7   8
HETATM    8  C   UNL     1     -11.413   3.690  72.344  1.00  0.00     0.973 C  
BRANCH   8   9
HETATM    9  C   UNL     1     -10.887   3.706  70.911  1.00  0.00     1.987 C  
BRANCH   9  10
HETATM   10  C   UNL     1      -9.788   4.712  70.716  1.00  0.00    -0.284 C  
HETATM   11  C   UNL     1      -8.908   4.752  69.701  1.00  0.00    -0.121 C  
BRANCH  11  12
HETATM   12  C   UNL     1      -8.847   3.817  68.528  1.00  0.00    -0.152 C  
BRANCH  12  13
HETATM   13  C   UNL     1      -7.470   3.662  67.859  1.00  0.00    -0.062 C  
HETATM   14  C   UNL     1      -7.563   2.762  66.613  1.00  0.00    -0.075 C  
HETATM   15  C   UNL     1      -6.245   3.012  65.906  1.00  0.00    -0.024 C  
HETATM   16  O   UNL     1      -8.615   3.176  65.740  1.00  0.00    -0.108 OA 
HETATM   17  C   UNL     1      -6.059   4.520  66.037  1.00  0.00    -0.031 C  
HETATM   18  H   UNL     1      -8.672   2.620  64.972  1.00  0.00     0.000 HD 
HETATM   19  C   UNL     1      -6.839   4.964  67.303  1.00  0.00    -0.056 C  
HETATM   20  O   UNL     1      -6.606   5.183  64.900  1.00  0.00    -0.041 OA 
HETATM   21  H   UNL     1      -6.490   6.122  64.982  1.00  0.00     0.000 HD 
BRANCH  19  22
HETATM   22  C   UNL     1      -5.912   5.666  68.313  1.00  0.00    -0.017 C  
BRANCH  22  23
HETATM   23  C   UNL     1      -6.616   6.866  68.953  1.00  0.00    -0.044 C  
BRANCH  23  24
HETATM   24  C   UNL     1      -6.664   8.120  68.071  1.00  0.00    -0.065 C  
HETATM   25  O   UNL     1      -7.964   8.265  67.499  1.00  0.00    -0.108 OA 
HETATM   26  H   UNL     1      -7.994   9.042  66.953  1.00  0.00     0.000 HD 
BRANCH  24  27
HETATM   27  C   UNL     1      -6.383   9.390  68.888  1.00  0.00    -0.043 C  
BRANCH  27  28
HETATM   28  C   UNL     1      -7.279   9.515  70.121  1.00  0.00    -0.114 C  
BRANCH  28  29
HETATM   29  C   UNL     1      -6.794   8.667  71.266  1.00  0.00    -0.075 A  
HETATM   30  C   UNL     1      -7.030   7.286  71.266  1.00  0.00    -0.059 A  
HETATM   31  C   UNL     1      -6.579   6.494  72.321  1.00  0.00    -0.059 A  
HETATM   32  C   UNL     1      -5.895   7.077  73.385  1.00  0.00    -0.053 A  
HETATM   33  C   UNL     1      -5.663   8.452  73.398  1.00  0.00    -0.080 A  
HETATM   34  C   UNL     1      -6.114   9.246  72.342  1.00  0.00     0.122 A  
ENDBRANCH  28  29
ENDBRANCH  27  28
ENDBRANCH  24  27
ENDBRANCH  23  24
ENDBRANCH  22  23
ENDBRANCH  19  22
ENDBRANCH  12  13
ENDBRANCH  11  12
ENDBRANCH   9  10
ENDBRANCH   8   9
ENDBRANCH   7   8
ENDBRANCH   5   7
ENDBRANCH   4   5
ENDBRANCH   2   4
TORSDOF 14
ENDMDL
MODEL      382
REMARK 921   NORMALIZED FREE ENERGY PREDICTED BY IDOCK:    5.48 KCAL/MOL
REMARK 922        TOTAL FREE ENERGY PREDICTED BY IDOCK:    6.68 KCAL/MOL
REMARK 923 INTER-LIGAND FREE ENERGY PREDICTED BY IDOCK:    1.10 KCAL/MOL
REMARK 924 INTRA-LIGAND FREE ENERGY PREDICTED BY IDOCK:    5.58 KCAL/MOL
REMARK 927      BINDING AFFINITY PREDICTED BY RF-SCORE:    0.00 PKD
ROOT
HETATM    1  C   UNL     1     -12.256  13.074  64.776  1.00  0.00    -0.487 C  
HETATM    2  C   UNL     1     -11.241  14.093  64.273  1.00  0.00    -0.177 C  
HETATM    3  C   UNL     1     -11.116  15.258  65.246  1.00  0.00    -0.382 C  
ENDROOT
BRANCH   2   4
HETATM    4  O   UNL     1      -9.946  13.472  64.173  1.00  0.00    -0.214 OA 
BRANCH   4   5
HETATM    5  C   UNL     1      -9.873  12.203  64.670  1.00  0.00    -0.128 C  
HETATM    6  O   UNL     1      -9.668  11.194  64.007  1.00  0.00    -0.242 OA 
BRANCH   5   7
HETATM    7  C   UNL     1     -10.103  12.226  66.159  1.00  0.00    -0.265 C  
BRANCH   7   8
HETATM    8  C   UNL     1     -10.756  13.542  66.589  1.00  0.00    -0.282 C  
BRANCH   8   9
HETATM    9  C   UNL     1     -10.022  14.229  67.737  1.00  0.00    -0.227 C  
BRANCH   9  10
HETATM   10  C   UNL     1      -8.562  14.429  67.446  1.00  0.00    -0.213 C  
HETATM   11  C   UNL     1      -7.559  14.435  68.340  1.00  0.00    -0.122 C  
BRANCH  11  12
HETATM   12  C   UNL     1      -7.675  14.218  69.821  1.00  0.00     0.400 C  
BRANCH  12  13
HETATM   13  C   UNL     1      -6.359  13.941  70.569  1.00  0.00    -0.012 C  
HETATM   14  C   UNL     1      -6.278  14.770  71.864  1.00  0.00     0.671 C  
HETATM   15  C   UNL     1      -5.135  14.119  72.620  1.00  0.00    -0.245 C  
HETATM   16  O   UNL     1      -7.460  14.632  72.653  1.00  0.00     2.371 OA 
HETATM   17  C   UNL     1      -5.373  12.629  72.400  1.00  0.00     0.407 C  
HETATM   18  H   UNL     1      -7.410  15.143  73.452  1.00  0.00     0.000 HD 
HETATM   19  C   UNL     1      -6.160  12.488  71.070  1.00  0.00     0.634 C  
HETATM   20  O   UNL     1      -6.161  12.096  73.463  1.00  0.00     1.803 OA 
HETATM   21  H   UNL     1      -6.309  11.168  73.325  1.00  0.00     0.000 HD 
BRANCH  19  22
HETATM   22  C   UNL     1      -5.403  11.599  70.065  1.00  0.00    -0.087 C  
BRANCH  22  23
HETATM   23  C   UNL     1      -6.038  10.209  69.983  1.00  0.00    -0.065 C  
BRANCH  23  24
HETATM   24  C   UNL     1      -7.539  10.177  70.295  1.00  0.00    -0.019 C  
HETATM   25  O   UNL     1      -8.255  10.949  69.330  1.00  0.00    -0.347 OA 
HETATM   26  H   UNL     1      -9.185  10.929  69.523  1.00  0.00     0.000 HD 
BRANCH  24  27
HETATM   27  C   UNL     1      -8.094   8.745  70.232  1.00  0.00    -0.116 C  
BRANCH  27  28
HETATM   28  C   UNL     1      -7.550   7.848  71.344  1.00  0.00    -0.083 C  
BRANCH  28  29
HETATM   29  C   UNL     1      -8.645   7.119  72.075  1.00  0.00    -0.118 A  
HETATM   30  C   UNL     1      -9.050   5.848  71.646  1.00  0.00    -0.149 A  
HETATM   31  C   UNL     1     -10.061   5.165  72.322  1.00  0.00    -0.243 A  
HETATM   32  C   UNL     1     -10.677   5.749  73.426  1.00  0.00    -0.303 A  
HETATM   33  C   UNL     1     -10.287   7.018  73.854  1.00  0.00    -0.386 A  
HETATM   34  C   UNL     1      -9.275   7.703  73.179  1.00  0.00    -0.272 A  
ENDBRANCH  28  29
ENDBRANCH  27  28
ENDBRANCH  24  27
ENDBRANCH  23  24
ENDBRANCH  22  23
ENDBRANCH  19  22
ENDBRANCH  12  13
ENDBRANCH  11  12
ENDBRANCH   9  10
ENDBRANCH   8   9
ENDBRANCH   7   8
ENDBRANCH   5   7
ENDBRANCH   4   5
ENDBRANCH   2   4
TORSDOF 14
ENDMDL
MODEL      383
REMARK 921   NORMALIZED FREE ENERGY PREDICTED BY IDOCK:   10.02 KCAL/MOL
REMARK 922        TOTAL FREE ENERGY PREDICTED BY IDOCK:   14.93 KCAL/MOL
REMARK 923 INTER-LIGAND FREE ENERGY PREDICTED BY IDOCK:    0.42 KCAL/MOL
REMARK 924 INTRA-LIGAND FREE ENERGY PREDICTED BY IDOCK:   14.52 KCAL/MOL
REMARK 927      BINDING AFFINITY PREDICTED BY RF-SCORE:    0.00 PKD
ROOT
HETATM    1  C   UNL     1      -8.385  16.598  69.119  1.00  0.00    -0.115 C  
HETATM    2  C   UNL     1      -7.929  17.991  69.537  1.00  0.00     0.561 C  
HETATM    3  C   UNL     1      -8.872  18.579  70.579  1.00  0.00     3.545 C  
ENDROOT
BRANCH   2   4
HETATM    4  O   UNL     1      -6.622  17.909  70.134  1.00  0.00     0.140 OA 
BRANCH   4   5
HETATM    5  C   UNL     1      -5.965  16.729  69.932  1.00  0.00    -0.217 C  
HETATM    6  O   UNL     1      -5.970  16.086  68.889  1.00  0.00    -0.110 OA 
BRANCH   5   7
HETATM    7  C   UNL     1      -5.249  16.324  71.194  1.00  0.00    -0.075 C  
BRANCH   7   8
HETATM    8  C   UNL     1      -5.181  14.800  71.316  1.00  0.00    -0.139 C  
BRANCH   8   9
HETATM    9  C   UNL     1      -5.987  14.075  70.241  1.00  0.00    -0.158 C  
BRANCH   9  10
HETATM   10  C   UNL     1      -7.014  14.965  69.599  1.00  0.00    -0.184 C  
HETATM   11  C   UNL     1      -7.846  14.635  68.596  1.00  0.00    -0.138 C  
BRANCH  11  12
HETATM   12  C   UNL     1      -7.950  13.300  67.918  1.00  0.00    -0.159 C  
BRANCH  12  13
HETATM   13  C   UNL     1      -9.163  12.437  68.306  1.00  0.00    -0.189 C  
HETATM   14  C   UNL     1     -10.265  13.297  68.953  1.00  0.00    -0.019 C  
HETATM   15  C   UNL     1     -11.474  12.382  68.934  1.00  0.00    -0.355 C  
HETATM   16  O   UNL     1     -10.570  14.445  68.160  1.00  0.00    -0.230 OA 
HETATM   17  C   UNL     1     -11.396  11.727  67.559  1.00  0.00    -0.310 C  
HETATM   18  H   UNL     1     -11.250  14.976  68.560  1.00  0.00     0.000 HD 
HETATM   19  C   UNL     1      -9.903  11.744  67.134  1.00  0.00    -0.207 C  
HETATM   20  O   UNL     1     -12.155  12.478  66.613  1.00  0.00    -0.562 OA 
HETATM   21  H   UNL     1     -12.105  12.070  65.757  1.00  0.00     0.000 HD 
BRANCH  19  22
HETATM   22  C   UNL     1      -9.387  10.321  66.849  1.00  0.00    -0.183 C  
BRANCH  22  23
HETATM   23  C   UNL     1      -9.558   9.425  68.079  1.00  0.00    -0.156 C  
BRANCH  23  24
HETATM   24  C   UNL     1     -10.912   8.711  68.162  1.00  0.00     0.173 C  
HETATM   25  O   UNL     1     -11.745   9.115  67.075  1.00  0.00     1.105 OA 
HETATM   26  H   UNL     1     -12.584   8.673  67.127  1.00  0.00     0.000 HD 
BRANCH  24  27
HETATM   27  C   UNL     1     -10.749   7.187  68.066  1.00  0.00    -0.232 C  
BRANCH  27  28
HETATM   28  C   UNL     1      -9.403   6.698  68.601  1.00  0.00    -0.129 C  
BRANCH  28  29
HETATM   29  C   UNL     1      -9.525   6.064  69.960  1.00  0.00    -0.180 A  
HETATM   30  C   UNL     1      -8.412   5.453  70.552  1.00  0.00    -0.122 A  
HETATM   31  C   UNL     1      -8.517   4.868  71.813  1.00  0.00    -0.124 A  
HETATM   32  C   UNL     1      -9.736   4.884  72.488  1.00  0.00    -0.189 A  
HETATM   33  C   UNL     1     -10.851   5.481  71.902  1.00  0.00    -0.286 A  
HETATM   34  C   UNL     1     -10.747   6.068  70.640  1.00  0.00    -0.341 A  
ENDBRANCH  28  29
ENDBRANCH  27  28
ENDBRANCH  24  27
ENDBRANCH  23  24
ENDBRANCH  22  23
ENDBRANCH  19  22
ENDBRANCH  12  13
ENDBRANCH  11  12
ENDBRANCH   9  10
ENDBRANCH   8   9
ENDBRANCH   7   8
ENDBRANCH   5   7
ENDBRANCH   4   5
ENDBRANCH   2   4
TORSDOF 14
ENDMDL
MODEL      384
REMARK 921   NORMALIZED FREE ENERGY PREDICTED BY IDOCK:   21.52 KCAL/MOL
REMARK 922        TOTAL FREE ENERGY PREDICTED BY IDOCK:   35.85 KCAL/MOL
REMARK 923 INTER-LIGAND FREE ENERGY PREDICTED BY IDOCK:   -5.99 KCAL/MOL
REMARK 924 INTRA-LIGAND FREE ENERGY PREDICTED BY IDOCK:   41.84 KCAL/MOL
REMARK 927      BINDING AFFINITY PREDICTED BY RF-SCORE:    0.00 PKD
ROOT
HETATM    1  C   UNL     1      -8.014   9.511  69.107  1.00  0.00    -0.094 C  
HETATM    2  C   UNL     1      -7.438   8.600  68.029  1.00  0.00    -0.097 C  
HETATM    3  C   UNL     1      -8.553   7.944  67.223  1.00  0.00    -0.128 C  
ENDROOT
BRANCH   2   4
HETATM    4  O   UNL     1      -6.646   9.381  67.115  1.00  0.00    -0.069 OA 
BRANCH   4   5
HETATM    5  C   UNL     1      -5.845   8.658  66.279  1.00  0.00    -0.047 C  
HETATM    6  O   UNL     1      -5.513   8.996  65.149  1.00  0.00    -0.041 OA 
BRANCH   5   7
HETATM    7  C   UNL     1      -5.447   7.367  66.947  1.00  0.00    -0.023 C  
BRANCH   7   8
HETATM    8  C   UNL     1      -6.015   7.291  68.365  1.00  0.00    -0.027 C  
BRANCH   8   9
HETATM    9  C   UNL     1      -5.712   8.531  69.202  1.00  0.00    -0.039 C  
BRANCH   9  10
HETATM   10  C   UNL     1      -5.239   9.685  68.363  1.00  0.00    -0.033 C  
HETATM   11  C   UNL     1      -5.996  10.468  67.576  1.00  0.00    -0.052 C  
BRANCH  11  12
HETATM   12  C   UNL     1      -7.483  10.377  67.383  1.00  0.00    -0.094 C  
BRANCH  12  13
HETATM   13  C   UNL     1      -8.322  11.465  68.076  1.00  0.00    -0.143 C  
HETATM   14  C   UNL     1      -7.416  12.483  68.794  1.00  0.00    -0.049 C  
HETATM   15  C   UNL     1      -8.359  13.633  69.094  1.00  0.00     0.412 C  
HETATM   16  O   UNL     1      -6.388  12.973  67.932  1.00  0.00    -0.101 OA 
HETATM   17  C   UNL     1      -9.182  13.754  67.817  1.00  0.00    -0.206 C  
HETATM   18  H   UNL     1      -5.829  13.601  68.375  1.00  0.00     0.000 HD 
HETATM   19  C   UNL     1      -9.179  12.356  67.142  1.00  0.00    -0.199 C  
HETATM   20  O   UNL     1      -8.579  14.696  66.932  1.00  0.00    -0.235 OA 
HETATM   21  H   UNL     1      -9.092  14.771  66.136  1.00  0.00     0.000 HD 
BRANCH  19  22
HETATM   22  C   UNL     1     -10.612  11.827  66.947  1.00  0.00    -0.270 C  
BRANCH  22  23
HETATM   23  C   UNL     1     -11.611  12.651  67.764  1.00  0.00    -0.403 C  
BRANCH  23  24
HETATM   24  C   UNL     1     -11.905  14.043  67.191  1.00  0.00    -0.411 C  
HETATM   25  O   UNL     1     -13.153  14.032  66.497  1.00  0.00    -0.313 OA 
HETATM   26  H   UNL     1     -13.335  14.894  66.142  1.00  0.00     0.000 HD 
BRANCH  24  27
HETATM   27  C   UNL     1     -12.015  15.095  68.305  1.00  0.00    -0.187 C  
BRANCH  27  28
HETATM   28  C   UNL     1     -11.119  14.786  69.505  1.00  0.00    -0.302 C  
BRANCH  28  29
HETATM   29  C   UNL     1     -11.836  14.977  70.814  1.00  0.00    -0.372 A  
HETATM   30  C   UNL     1     -11.268  15.778  71.815  1.00  0.00    -0.254 A  
HETATM   31  C   UNL     1     -11.929  15.963  73.028  1.00  0.00    -0.596 A  
HETATM   32  C   UNL     1     -13.157  15.345  73.253  1.00  0.00    -0.642 A  
HETATM   33  C   UNL     1     -13.724  14.539  72.267  1.00  0.00    -0.559 A  
HETATM   34  C   UNL     1     -13.065  14.353  71.051  1.00  0.00    -0.417 A  
ENDBRANCH  28  29
ENDBRANCH  27  28
ENDBRANCH  24  27
ENDBRANCH  23  24
ENDBRANCH  22  23
ENDBRANCH  19  22
ENDBRANCH  12  13
ENDBRANCH  11  12
ENDBRANCH   9  10
ENDBRANCH   8   9
ENDBRANCH   7   8
ENDBRANCH   5   7
ENDBRANCH   4   5
ENDBRANCH   2   4
TORSDOF 14
ENDMDL
