MODEL        1
REMARK 921   NORMALIZED FREE ENERGY PREDICTED BY IDOCK:   -7.40 KCAL/MOL
REMARK 922        TOTAL FREE ENERGY PREDICTED BY IDOCK:  -10.91 KCAL/MOL
REMARK 923 INTER-LIGAND FREE ENERGY PREDICTED BY IDOCK:   -9.57 KCAL/MOL
REMARK 924 INTRA-LIGAND FREE ENERGY PREDICTED BY IDOCK:   -1.35 KCAL/MOL
REMARK 927      BINDING AFFINITY PREDICTED BY RF-SCORE:    0.00 PKD
ROOT
HETATM    1  C   UNL     1      -8.324  10.533  66.467  1.00  0.00    -0.141 C  
HETATM    2  O   UNL     1      -7.372  11.451  67.025  1.00  0.00    -0.129 OA 
HETATM    3  C   UNL     1      -6.585  10.848  68.054  1.00  0.00    -0.062 C  
HETATM    4  C   UNL     1      -7.465  10.142  69.078  1.00  0.00    -0.091 C  
HETATM    5  C   UNL     1      -9.625  11.105  65.756  1.00  0.00    -0.221 C  
HETATM    6  C   UNL     1      -8.756   9.819  68.785  1.00  0.00    -0.128 C  
HETATM    7  N   UNL     1      -9.187   9.950  67.484  1.00  0.00    -0.134 N  
HETATM    8  C   UNL     1      -9.702   9.356  69.870  1.00  0.00    -0.212 C  
HETATM    9  O   UNL     1      -9.457   9.441  71.066  1.00  0.00    -0.254 OA 
HETATM   10  O   UNL     1     -10.852   8.789  69.455  1.00  0.00    -0.222 OA 
HETATM   11  O   UNL     1     -11.483  10.241  67.396  1.00  0.00    -0.290 OA 
HETATM   12  C   UNL     1     -10.361  10.366  66.959  1.00  0.00    -0.240 C  
ENDROOT
BRANCH   4  13
HETATM   13  C   UNL     1      -6.763   9.991  70.417  1.00  0.00    -0.138 C  
BRANCH  13  14
HETATM   14  S   UNL     1      -5.765   8.487  70.599  1.00  0.00    -0.028 SA 
BRANCH  14  15
HETATM   15  C   UNL     1      -6.929   7.243  70.825  1.00  0.00    -0.056 A  
HETATM   16  N   UNL     1      -7.413   6.417  69.926  1.00  0.00    -0.086 NA 
HETATM   17  C   UNL     1      -7.324   7.586  73.307  1.00  0.00    -0.084 C  
HETATM   18  N   UNL     1      -8.340   5.647  70.586  1.00  0.00    -0.117 NA 
HETATM   19  N   UNL     1      -8.417   5.986  71.867  1.00  0.00    -0.132 NA 
HETATM   20  N   UNL     1      -7.527   6.980  72.022  1.00  0.00    -0.089 NA 
ENDBRANCH  14  15
ENDBRANCH  13  14
ENDBRANCH   4  13
BRANCH   5  21
HETATM   21  O   UNL     1      -9.930  10.531  64.457  1.00  0.00    -0.314 OA 
HETATM   22  C   UNL     1      -8.830  10.207  63.620  1.00  0.00    -0.226 C  
ENDBRANCH   5  21
BRANCH   5  23
HETATM   23  N   UNL     1      -9.718  12.600  65.824  1.00  0.00    -0.393 N  
HETATM   24  C   UNL     1     -10.766  14.791  65.431  1.00  0.00    -0.385 C  
HETATM   25  C   UNL     1     -10.828  13.272  65.356  1.00  0.00    -0.291 C  
HETATM   26  O   UNL     1     -11.834  12.692  64.946  1.00  0.00    -0.347 OA 
HETATM   27  H   UNL     1      -8.945  13.131  66.224  1.00  0.00     0.000 HD 
HETATM   28  C   UNL     1     -11.671  15.498  64.432  1.00  0.00    -0.242 C  
HETATM   29  C   UNL     1     -10.979  15.325  66.846  1.00  0.00    -0.315 A  
HETATM   30  C   UNL     1     -10.400  16.553  67.218  1.00  0.00    -0.296 A  
HETATM   31  O   UNL     1     -11.441  16.637  64.038  1.00  0.00    -1.192 OA 
HETATM   32  O   UNL     1     -12.771  14.830  64.017  1.00  0.00    -0.786 OA 
HETATM   33  C   UNL     1     -10.526  17.041  68.523  1.00  0.00    -0.373 A  
HETATM   34  C   UNL     1     -11.239  16.306  69.461  1.00  0.00    -0.308 A  
HETATM   35  C   UNL     1     -11.870  15.123  69.102  1.00  0.00    -0.340 A  
HETATM   36  O   UNL     1     -11.343  16.712  70.758  1.00  0.00    -0.521 OA 
HETATM   37  H   UNL     1     -11.831  16.209  71.400  1.00  0.00     0.000 HD 
HETATM   38  C   UNL     1     -11.753  14.639  67.798  1.00  0.00    -0.386 A  
ENDBRANCH   5  23
TORSDOF 5
ENDMDL
MODEL        2
REMARK 921   NORMALIZED FREE ENERGY PREDICTED BY IDOCK:   -7.30 KCAL/MOL
REMARK 922        TOTAL FREE ENERGY PREDICTED BY IDOCK:  -10.77 KCAL/MOL
REMARK 923 INTER-LIGAND FREE ENERGY PREDICTED BY IDOCK:   -9.90 KCAL/MOL
REMARK 924 INTRA-LIGAND FREE ENERGY PREDICTED BY IDOCK:   -0.87 KCAL/MOL
REMARK 927      BINDING AFFINITY PREDICTED BY RF-SCORE:    0.00 PKD
ROOT
HETATM    1  C   UNL     1     -11.232  12.478  66.509  1.00  0.00    -0.307 C  
HETATM    2  O   UNL     1     -12.073  12.327  67.662  1.00  0.00    -0.502 OA 
HETATM    3  C   UNL     1     -12.159  13.532  68.425  1.00  0.00    -0.258 C  
HETATM    4  C   UNL     1     -10.776  14.099  68.716  1.00  0.00    -0.265 C  
HETATM    5  C   UNL     1     -10.559  11.189  65.869  1.00  0.00    -0.234 C  
HETATM    6  C   UNL     1      -9.691  13.704  67.991  1.00  0.00    -0.226 C  
HETATM    7  N   UNL     1      -9.898  12.948  66.859  1.00  0.00    -0.230 N  
HETATM    8  C   UNL     1      -8.291  14.062  68.435  1.00  0.00    -0.162 C  
HETATM    9  O   UNL     1      -8.026  14.521  69.538  1.00  0.00    -0.018 OA 
HETATM   10  O   UNL     1      -7.315  13.887  67.524  1.00  0.00    -0.167 OA 
HETATM   11  O   UNL     1      -8.027  11.681  66.353  1.00  0.00    -0.112 OA 
HETATM   12  C   UNL     1      -9.216  11.909  66.330  1.00  0.00    -0.214 C  
ENDROOT
BRANCH   4  13
HETATM   13  C   UNL     1     -10.781  15.003  69.938  1.00  0.00    -0.218 C  
BRANCH  13  14
HETATM   14  S   UNL     1     -12.398  15.704  70.370  1.00  0.00    -0.334 SA 
BRANCH  14  15
HETATM   15  C   UNL     1     -12.423  15.661  72.087  1.00  0.00    -0.427 A  
HETATM   16  N   UNL     1     -12.010  16.584  72.924  1.00  0.00    -0.501 NA 
HETATM   17  C   UNL     1     -13.446  13.355  72.359  1.00  0.00    -0.584 C  
HETATM   18  N   UNL     1     -12.199  16.060  74.181  1.00  0.00    -0.527 NA 
HETATM   19  N   UNL     1     -12.725  14.844  74.117  1.00  0.00    -0.426 NA 
HETATM   20  N   UNL     1     -12.876  14.594  72.806  1.00  0.00    -0.420 NA 
ENDBRANCH  14  15
ENDBRANCH  13  14
ENDBRANCH   4  13
BRANCH   5  21
HETATM   21  O   UNL     1     -10.682  11.071  64.426  1.00  0.00    -0.351 OA 
HETATM   22  C   UNL     1     -10.838  12.277  63.692  1.00  0.00    -0.469 C  
ENDBRANCH   5  21
BRANCH   5  23
HETATM   23  N   UNL     1     -10.859   9.933  66.632  1.00  0.00    -0.040 N  
HETATM   24  C   UNL     1     -10.516   7.589  67.298  1.00  0.00    -0.391 C  
HETATM   25  C   UNL     1     -10.062   8.813  66.514  1.00  0.00    -0.279 C  
HETATM   26  O   UNL     1      -9.020   8.804  65.858  1.00  0.00    -0.171 OA 
HETATM   27  H   UNL     1     -11.669   9.906  67.251  1.00  0.00     0.000 HD 
HETATM   28  C   UNL     1     -10.010   6.269  66.732  1.00  0.00    -0.170 C  
HETATM   29  C   UNL     1     -10.221   7.701  68.793  1.00  0.00    -0.210 A  
HETATM   30  C   UNL     1     -11.038   7.015  69.713  1.00  0.00    -0.278 A  
HETATM   31  O   UNL     1     -10.598   5.211  66.927  1.00  0.00    -0.245 OA 
HETATM   32  O   UNL     1      -8.856   6.302  66.029  1.00  0.00    -0.151 OA 
HETATM   33  C   UNL     1     -10.833   7.143  71.090  1.00  0.00    -0.261 A  
HETATM   34  C   UNL     1      -9.804   7.952  71.556  1.00  0.00    -0.165 A  
HETATM   35  C   UNL     1      -8.948   8.589  70.667  1.00  0.00    -0.182 A  
HETATM   36  O   UNL     1      -9.600   8.152  72.888  1.00  0.00    -0.257 OA 
HETATM   37  H   UNL     1      -8.896   8.705  73.206  1.00  0.00     0.000 HD 
HETATM   38  C   UNL     1      -9.146   8.455  69.292  1.00  0.00    -0.150 A  
ENDBRANCH   5  23
TORSDOF 5
ENDMDL
MODEL        3
REMARK 921   NORMALIZED FREE ENERGY PREDICTED BY IDOCK:   -7.16 KCAL/MOL
REMARK 922        TOTAL FREE ENERGY PREDICTED BY IDOCK:  -10.60 KCAL/MOL
REMARK 923 INTER-LIGAND FREE ENERGY PREDICTED BY IDOCK:   -9.90 KCAL/MOL
REMARK 924 INTRA-LIGAND FREE ENERGY PREDICTED BY IDOCK:   -0.71 KCAL/MOL
REMARK 927      BINDING AFFINITY PREDICTED BY RF-SCORE:    0.00 PKD
ROOT
HETATM    1  C   UNL     1      -9.897   9.765  69.286  1.00  0.00    -0.199 C  
HETATM    2  O   UNL     1      -8.718  10.293  69.913  1.00  0.00    -0.131 OA 
HETATM    3  C   UNL     1      -8.013   9.296  70.655  1.00  0.00    -0.162 C  
HETATM    4  C   UNL     1      -8.949   8.541  71.591  1.00  0.00    -0.285 C  
HETATM    5  C   UNL     1     -11.082  10.754  68.912  1.00  0.00    -0.253 C  
HETATM    6  C   UNL     1     -10.299   8.575  71.406  1.00  0.00    -0.239 C  
HETATM    7  N   UNL     1     -10.789   9.125  70.243  1.00  0.00    -0.237 N  
HETATM    8  C   UNL     1     -11.238   8.047  72.467  1.00  0.00    -0.388 C  
HETATM    9  O   UNL     1     -10.887   7.767  73.605  1.00  0.00    -0.259 OA 
HETATM   10  O   UNL     1     -12.516   7.854  72.087  1.00  0.00    -0.303 OA 
HETATM   11  O   UNL     1     -12.956   9.889  70.534  1.00  0.00    -0.175 OA 
HETATM   12  C   UNL     1     -11.872   9.893  69.993  1.00  0.00    -0.067 C  
ENDROOT
BRANCH   4  13
HETATM   13  C   UNL     1      -8.198   7.908  72.750  1.00  0.00    -0.144 C  
BRANCH  13  14
HETATM   14  S   UNL     1      -7.642   6.204  72.468  1.00  0.00    -0.099 SA 
BRANCH  14  15
HETATM   15  C   UNL     1      -8.975   5.244  72.972  1.00  0.00    -0.119 A  
HETATM   16  N   UNL     1      -9.291   4.879  74.193  1.00  0.00    -0.120 NA 
HETATM   17  C   UNL     1      -9.986   4.829  70.683  1.00  0.00    -0.230 C  
HETATM   18  N   UNL     1     -10.406   4.086  74.069  1.00  0.00    -0.169 NA 
HETATM   19  N   UNL     1     -10.774   3.973  72.799  1.00  0.00    -0.137 NA 
HETATM   20  N   UNL     1      -9.884   4.705  72.109  1.00  0.00    -0.168 NA 
ENDBRANCH  14  15
ENDBRANCH  13  14
ENDBRANCH   4  13
BRANCH   5  21
HETATM   21  O   UNL     1     -11.612  10.613  67.567  1.00  0.00    -0.482 OA 
HETATM   22  C   UNL     1     -10.752  10.046  66.590  1.00  0.00    -0.058 C  
ENDBRANCH   5  21
BRANCH   5  23
HETATM   23  N   UNL     1     -10.823  12.167  69.344  1.00  0.00    -0.453 N  
HETATM   24  C   UNL     1     -10.873  14.616  69.113  1.00  0.00    -0.269 C  
HETATM   25  C   UNL     1     -11.256  13.238  68.590  1.00  0.00    -0.274 C  
HETATM   26  O   UNL     1     -11.952  13.106  67.582  1.00  0.00    -0.357 OA 
HETATM   27  H   UNL     1     -10.316  12.339  70.211  1.00  0.00     0.000 HD 
HETATM   28  C   UNL     1     -10.834  15.696  68.041  1.00  0.00    -0.308 C  
HETATM   29  C   UNL     1     -11.718  15.052  70.309  1.00  0.00    -0.338 A  
HETATM   30  C   UNL     1     -11.174  15.944  71.253  1.00  0.00    -0.325 A  
HETATM   31  O   UNL     1     -10.147  16.705  68.160  1.00  0.00    -0.249 OA 
HETATM   32  O   UNL     1     -11.622  15.518  66.957  1.00  0.00    -0.130 OA 
HETATM   33  C   UNL     1     -11.899  16.316  72.390  1.00  0.00    -0.606 A  
HETATM   34  C   UNL     1     -13.175  15.805  72.585  1.00  0.00    -0.502 A  
HETATM   35  C   UNL     1     -13.757  14.973  71.637  1.00  0.00    -0.553 A  
HETATM   36  O   UNL     1     -13.898  16.095  73.703  1.00  0.00    -0.856 OA 
HETATM   37  H   UNL     1     -14.771  15.745  73.836  1.00  0.00     0.000 HD 
HETATM   38  C   UNL     1     -13.038  14.607  70.497  1.00  0.00    -0.252 A  
ENDBRANCH   5  23
TORSDOF 5
ENDMDL
MODEL        4
REMARK 921   NORMALIZED FREE ENERGY PREDICTED BY IDOCK:   -7.15 KCAL/MOL
REMARK 922        TOTAL FREE ENERGY PREDICTED BY IDOCK:  -10.59 KCAL/MOL
REMARK 923 INTER-LIGAND FREE ENERGY PREDICTED BY IDOCK:  -10.93 KCAL/MOL
REMARK 924 INTRA-LIGAND FREE ENERGY PREDICTED BY IDOCK:    0.34 KCAL/MOL
REMARK 927      BINDING AFFINITY PREDICTED BY RF-SCORE:    0.00 PKD
ROOT
HETATM    1  C   UNL     1     -10.857  12.016  67.002  1.00  0.00    -0.253 C  
HETATM    2  O   UNL     1     -11.670  12.027  68.185  1.00  0.00    -0.320 OA 
HETATM    3  C   UNL     1     -11.980  13.356  68.609  1.00  0.00    -0.327 C  
HETATM    4  C   UNL     1     -10.724  14.214  68.692  1.00  0.00    -0.263 C  
HETATM    5  C   UNL     1      -9.956  10.743  66.696  1.00  0.00    -0.206 C  
HETATM    6  C   UNL     1      -9.579  13.840  68.056  1.00  0.00    -0.214 C  
HETATM    7  N   UNL     1      -9.634  12.789  67.168  1.00  0.00    -0.213 N  
HETATM    8  C   UNL     1      -8.271  14.544  68.340  1.00  0.00    -0.150 C  
HETATM    9  O   UNL     1      -8.105  15.316  69.274  1.00  0.00    -0.207 OA 
HETATM   10  O   UNL     1      -7.268  14.310  67.471  1.00  0.00    -0.175 OA 
HETATM   11  O   UNL     1      -7.559  11.784  66.942  1.00  0.00    -0.152 OA 
HETATM   12  C   UNL     1      -8.770  11.784  66.903  1.00  0.00    -0.189 C  
ENDROOT
BRANCH   4  13
HETATM   13  C   UNL     1     -10.906  15.391  69.635  1.00  0.00    -0.283 C  
BRANCH  13  14
HETATM   14  S   UNL     1     -12.605  15.664  70.209  1.00  0.00    -0.140 SA 
BRANCH  14  15
HETATM   15  C   UNL     1     -12.488  15.553  71.920  1.00  0.00    -0.400 A  
HETATM   16  N   UNL     1     -11.916  16.397  72.746  1.00  0.00    -0.542 NA 
HETATM   17  C   UNL     1     -13.709  13.348  72.207  1.00  0.00    -0.607 C  
HETATM   18  N   UNL     1     -12.047  15.843  73.997  1.00  0.00    -0.455 NA 
HETATM   19  N   UNL     1     -12.696  14.687  73.942  1.00  0.00    -0.450 NA 
HETATM   20  N   UNL     1     -12.982  14.506  72.642  1.00  0.00    -0.424 NA 
ENDBRANCH  14  15
ENDBRANCH  13  14
ENDBRANCH   4  13
BRANCH   5  21
HETATM   21  O   UNL     1     -10.039  10.231  65.339  1.00  0.00    -0.293 OA 
HETATM   22  C   UNL     1     -10.288  11.174  64.307  1.00  0.00    -0.351 C  
ENDBRANCH   5  21
BRANCH   5  23
HETATM   23  N   UNL     1     -10.034   9.700  67.770  1.00  0.00    -0.162 N  
HETATM   24  C   UNL     1      -9.395   8.626  69.890  1.00  0.00    -0.160 C  
HETATM   25  C   UNL     1      -9.260   9.783  68.909  1.00  0.00    -0.155 C  
HETATM   26  O   UNL     1      -8.537  10.750  69.154  1.00  0.00    -0.150 OA 
HETATM   27  H   UNL     1     -10.673   8.913  67.658  1.00  0.00     0.000 HD 
HETATM   28  C   UNL     1      -8.182   8.433  70.790  1.00  0.00    -0.124 C  
HETATM   29  C   UNL     1     -10.686   8.687  70.705  1.00  0.00    -0.259 A  
HETATM   30  C   UNL     1     -11.257   7.494  71.187  1.00  0.00    -0.277 A  
HETATM   31  O   UNL     1      -7.915   7.349  71.297  1.00  0.00    -0.094 OA 
HETATM   32  O   UNL     1      -7.423   9.523  71.043  1.00  0.00    -0.300 OA 
HETATM   33  C   UNL     1     -12.469   7.509  71.885  1.00  0.00    -0.335 A  
HETATM   34  C   UNL     1     -13.113   8.718  72.111  1.00  0.00    -0.406 A  
HETATM   35  C   UNL     1     -12.539   9.914  71.698  1.00  0.00    -0.519 A  
HETATM   36  O   UNL     1     -14.322   8.778  72.736  1.00  0.00    -0.920 OA 
HETATM   37  H   UNL     1     -14.763   9.606  72.891  1.00  0.00     0.000 HD 
HETATM   38  C   UNL     1     -11.324   9.901  71.009  1.00  0.00    -0.460 A  
ENDBRANCH   5  23
TORSDOF 5
ENDMDL
MODEL        5
REMARK 921   NORMALIZED FREE ENERGY PREDICTED BY IDOCK:   -7.07 KCAL/MOL
REMARK 922        TOTAL FREE ENERGY PREDICTED BY IDOCK:  -10.48 KCAL/MOL
REMARK 923 INTER-LIGAND FREE ENERGY PREDICTED BY IDOCK:   -9.41 KCAL/MOL
REMARK 924 INTRA-LIGAND FREE ENERGY PREDICTED BY IDOCK:   -1.07 KCAL/MOL
REMARK 927      BINDING AFFINITY PREDICTED BY RF-SCORE:    0.00 PKD
ROOT
HETATM    1  C   UNL     1     -11.550  13.695  69.110  1.00  0.00    -0.309 C  
HETATM    2  O   UNL     1     -10.370  14.495  69.280  1.00  0.00    -0.219 OA 
HETATM    3  C   UNL     1     -10.537  15.814  68.758  1.00  0.00    -0.239 C  
HETATM    4  C   UNL     1     -11.082  15.779  67.336  1.00  0.00    -0.235 C  
HETATM    5  C   UNL     1     -11.413  12.112  69.088  1.00  0.00    -0.296 C  
HETATM    6  C   UNL     1     -11.683  14.658  66.846  1.00  0.00    -0.350 C  
HETATM    7  N   UNL     1     -11.977  13.635  67.719  1.00  0.00    -0.367 N  
HETATM    8  C   UNL     1     -11.993  14.529  65.372  1.00  0.00    -0.332 C  
HETATM    9  O   UNL     1     -11.553  15.286  64.517  1.00  0.00    -0.395 OA 
HETATM   10  O   UNL     1     -12.834  13.535  65.025  1.00  0.00    -0.684 OA 
HETATM   11  O   UNL     1     -12.109  11.607  66.608  1.00  0.00    -0.441 OA 
HETATM   12  C   UNL     1     -11.918  12.291  67.589  1.00  0.00    -0.148 C  
ENDROOT
BRANCH   4  13
HETATM   13  C   UNL     1     -10.752  17.050  66.573  1.00  0.00    -0.073 C  
BRANCH  13  14
HETATM   14  S   UNL     1      -9.816  18.290  67.509  1.00  0.00    -0.331 SA 
BRANCH  14  15
HETATM   15  C   UNL     1      -8.510  18.697  66.469  1.00  0.00    -0.291 A  
HETATM   16  N   UNL     1      -8.300  19.831  65.843  1.00  0.00    -0.390 NA 
HETATM   17  C   UNL     1      -7.276  16.483  66.583  1.00  0.00    -0.210 C  
HETATM   18  N   UNL     1      -7.156  19.644  65.105  1.00  0.00    -0.383 NA 
HETATM   19  N   UNL     1      -6.668  18.423  65.281  1.00  0.00    -0.499 NA 
HETATM   20  N   UNL     1      -7.509  17.829  66.143  1.00  0.00    -0.383 NA 
ENDBRANCH  14  15
ENDBRANCH  13  14
ENDBRANCH   4  13
BRANCH   5  21
HETATM   21  O   UNL     1     -12.354  11.392  69.929  1.00  0.00    -0.273 OA 
HETATM   22  C   UNL     1     -12.578  11.907  71.233  1.00  0.00    -0.277 C  
ENDBRANCH   5  21
BRANCH   5  23
HETATM   23  N   UNL     1      -9.991  11.647  69.190  1.00  0.00    -0.418 N  
HETATM   24  C   UNL     1      -8.196   9.969  69.327  1.00  0.00    -0.147 C  
HETATM   25  C   UNL     1      -9.671  10.305  69.153  1.00  0.00    -0.217 C  
HETATM   26  O   UNL     1     -10.507   9.426  68.943  1.00  0.00    -0.208 OA 
HETATM   27  H   UNL     1      -9.246  12.335  69.290  1.00  0.00     0.000 HD 
HETATM   28  C   UNL     1      -7.939   8.564  69.852  1.00  0.00    -0.106 C  
HETATM   29  C   UNL     1      -7.371  10.252  68.072  1.00  0.00    -0.086 A  
HETATM   30  C   UNL     1      -6.005  10.569  68.198  1.00  0.00    -0.043 A  
HETATM   31  O   UNL     1      -6.913   8.274  70.460  1.00  0.00    -0.036 OA 
HETATM   32  O   UNL     1      -8.876   7.626  69.589  1.00  0.00    -0.139 OA 
HETATM   33  C   UNL     1      -5.236  10.891  67.076  1.00  0.00    -0.050 A  
HETATM   34  C   UNL     1      -5.827  10.890  65.819  1.00  0.00    -0.110 A  
HETATM   35  C   UNL     1      -7.156  10.521  65.663  1.00  0.00    -0.119 A  
HETATM   36  O   UNL     1      -5.133  11.250  64.703  1.00  0.00    -0.489 OA 
HETATM   37  H   UNL     1      -5.538  11.249  63.843  1.00  0.00     0.000 HD 
HETATM   38  C   UNL     1      -7.924  10.191  66.782  1.00  0.00    -0.115 A  
ENDBRANCH   5  23
TORSDOF 5
ENDMDL
MODEL        6
REMARK 921   NORMALIZED FREE ENERGY PREDICTED BY IDOCK:   -7.03 KCAL/MOL
REMARK 922        TOTAL FREE ENERGY PREDICTED BY IDOCK:  -10.43 KCAL/MOL
REMARK 923 INTER-LIGAND FREE ENERGY PREDICTED BY IDOCK:   -9.44 KCAL/MOL
REMARK 924 INTRA-LIGAND FREE ENERGY PREDICTED BY IDOCK:   -0.99 KCAL/MOL
REMARK 927      BINDING AFFINITY PREDICTED BY RF-SCORE:    0.00 PKD
ROOT
HETATM    1  C   UNL     1     -10.653   8.768  69.354  1.00  0.00    -0.209 C  
HETATM    2  O   UNL     1      -9.958   9.468  68.311  1.00  0.00    -0.152 OA 
HETATM    3  C   UNL     1      -8.983   8.644  67.670  1.00  0.00    -0.135 C  
HETATM    4  C   UNL     1      -8.080   7.963  68.691  1.00  0.00    -0.126 C  
HETATM    5  C   UNL     1     -11.333   9.601  70.524  1.00  0.00    -0.296 C  
HETATM    6  C   UNL     1      -8.452   7.868  69.999  1.00  0.00    -0.134 C  
HETATM    7  N   UNL     1      -9.742   8.206  70.342  1.00  0.00    -0.177 N  
HETATM    8  C   UNL     1      -7.462   7.428  71.054  1.00  0.00    -0.074 C  
HETATM    9  O   UNL     1      -6.257   7.341  70.860  1.00  0.00    -0.035 OA 
HETATM   10  O   UNL     1      -7.980   7.087  72.250  1.00  0.00    -0.092 OA 
HETATM   11  O   UNL     1      -9.871   8.839  72.566  1.00  0.00    -0.249 OA 
HETATM   12  C   UNL     1     -10.252   8.847  71.416  1.00  0.00    -0.305 C  
ENDROOT
BRANCH   4  13
HETATM   13  C   UNL     1      -6.746   7.560  68.086  1.00  0.00    -0.058 C  
BRANCH  13  14
HETATM   14  S   UNL     1      -6.555   5.787  67.754  1.00  0.00    -0.054 SA 
BRANCH  14  15
HETATM   15  C   UNL     1      -8.020   5.352  66.969  1.00  0.00    -0.101 A  
HETATM   16  N   UNL     1      -8.337   5.512  65.705  1.00  0.00    -0.127 NA 
HETATM   17  C   UNL     1      -9.221   4.393  68.987  1.00  0.00    -0.140 C  
HETATM   18  N   UNL     1      -9.625   5.050  65.581  1.00  0.00    -0.150 NA 
HETATM   19  N   UNL     1     -10.087   4.606  66.743  1.00  0.00    -0.224 NA 
HETATM   20  N   UNL     1      -9.080   4.786  67.614  1.00  0.00    -0.111 NA 
ENDBRANCH  14  15
ENDBRANCH  13  14
ENDBRANCH   4  13
BRANCH   5  21
HETATM   21  O   UNL     1     -12.701   9.229  70.842  1.00  0.00    -0.208 OA 
HETATM   22  C   UNL     1     -13.254   9.765  72.036  1.00  0.00    -0.460 C  
ENDBRANCH   5  21
BRANCH   5  23
HETATM   23  N   UNL     1     -11.091  11.077  70.407  1.00  0.00    -0.433 N  
HETATM   24  C   UNL     1     -11.315  13.301  69.380  1.00  0.00    -0.280 C  
HETATM   25  C   UNL     1     -11.695  11.827  69.419  1.00  0.00    -0.341 C  
HETATM   26  O   UNL     1     -12.528  11.359  68.642  1.00  0.00    -0.396 OA 
HETATM   27  H   UNL     1     -10.468  11.535  71.071  1.00  0.00     0.000 HD 
HETATM   28  C   UNL     1     -11.502  13.952  68.016  1.00  0.00    -0.307 C  
HETATM   29  C   UNL     1     -11.990  14.117  70.480  1.00  0.00    -0.393 A  
HETATM   30  C   UNL     1     -11.359  15.278  70.968  1.00  0.00    -0.393 A  
HETATM   31  O   UNL     1     -10.862  14.942  67.675  1.00  0.00    -0.272 OA 
HETATM   32  O   UNL     1     -12.435  13.414  67.199  1.00  0.00    -0.217 OA 
HETATM   33  C   UNL     1     -11.921  16.014  72.016  1.00  0.00    -0.622 A  
HETATM   34  C   UNL     1     -13.121  15.599  72.577  1.00  0.00    -0.472 A  
HETATM   35  C   UNL     1     -13.793  14.493  72.072  1.00  0.00    -0.561 A  
HETATM   36  O   UNL     1     -13.679  16.251  73.635  1.00  0.00    -0.911 OA 
HETATM   37  H   UNL     1     -14.501  15.967  74.018  1.00  0.00     0.000 HD 
HETATM   38  C   UNL     1     -13.238  13.762  71.020  1.00  0.00    -0.222 A  
ENDBRANCH   5  23
TORSDOF 5
ENDMDL
MODEL        7
REMARK 921   NORMALIZED FREE ENERGY PREDICTED BY IDOCK:   -6.99 KCAL/MOL
REMARK 922        TOTAL FREE ENERGY PREDICTED BY IDOCK:  -10.38 KCAL/MOL
REMARK 923 INTER-LIGAND FREE ENERGY PREDICTED BY IDOCK:   -9.54 KCAL/MOL
REMARK 924 INTRA-LIGAND FREE ENERGY PREDICTED BY IDOCK:   -0.84 KCAL/MOL
REMARK 927      BINDING AFFINITY PREDICTED BY RF-SCORE:    0.00 PKD
ROOT
HETATM    1  C   UNL     1     -10.728   8.798  69.229  1.00  0.00    -0.151 C  
HETATM    2  O   UNL     1     -10.206   9.518  68.102  1.00  0.00    -0.175 OA 
HETATM    3  C   UNL     1      -9.329   8.713  67.311  1.00  0.00    -0.152 C  
HETATM    4  C   UNL     1      -8.275   8.034  68.177  1.00  0.00    -0.126 C  
HETATM    5  C   UNL     1     -11.233   9.610  70.498  1.00  0.00    -0.297 C  
HETATM    6  C   UNL     1      -8.444   7.922  69.524  1.00  0.00    -0.133 C  
HETATM    7  N   UNL     1      -9.671   8.239  70.062  1.00  0.00    -0.175 N  
HETATM    8  C   UNL     1      -7.301   7.485  70.413  1.00  0.00    -0.072 C  
HETATM    9  O   UNL     1      -6.138   7.416  70.039  1.00  0.00    -0.027 OA 
HETATM   10  O   UNL     1      -7.628   7.125  71.669  1.00  0.00    -0.086 OA 
HETATM   11  O   UNL     1      -9.471   8.848  72.287  1.00  0.00    -0.327 OA 
HETATM   12  C   UNL     1     -10.021   8.862  71.208  1.00  0.00    -0.288 C  
ENDROOT
BRANCH   4  13
HETATM   13  C   UNL     1      -7.043   7.656  67.373  1.00  0.00    -0.086 C  
BRANCH  13  14
HETATM   14  S   UNL     1      -7.219   6.170  66.346  1.00  0.00    -0.074 SA 
BRANCH  14  15
HETATM   15  C   UNL     1      -7.954   5.026  67.396  1.00  0.00    -0.096 A  
HETATM   16  N   UNL     1      -7.388   4.329  68.353  1.00  0.00    -0.060 NA 
HETATM   17  C   UNL     1     -10.311   5.172  66.469  1.00  0.00    -0.291 C  
HETATM   18  N   UNL     1      -8.379   3.526  68.867  1.00  0.00    -0.067 NA 
HETATM   19  N   UNL     1      -9.532   3.733  68.244  1.00  0.00    -0.169 NA 
HETATM   20  N   UNL     1      -9.272   4.679  67.327  1.00  0.00    -0.123 NA 
ENDBRANCH  14  15
ENDBRANCH  13  14
ENDBRANCH   4  13
BRANCH   5  21
HETATM   21  O   UNL     1     -12.533   9.217  71.014  1.00  0.00    -0.274 OA 
HETATM   22  C   UNL     1     -13.070   9.997  72.072  1.00  0.00    -0.441 C  
ENDBRANCH   5  21
BRANCH   5  23
HETATM   23  N   UNL     1     -11.029  11.090  70.363  1.00  0.00    -0.381 N  
HETATM   24  C   UNL     1     -11.337  13.301  69.329  1.00  0.00    -0.311 C  
HETATM   25  C   UNL     1     -11.682  11.819  69.391  1.00  0.00    -0.341 C  
HETATM   26  O   UNL     1     -12.529  11.327  68.645  1.00  0.00    -0.442 OA 
HETATM   27  H   UNL     1     -10.395  11.567  71.004  1.00  0.00     0.000 HD 
HETATM   28  C   UNL     1     -11.584  13.938  67.968  1.00  0.00    -0.333 C  
HETATM   29  C   UNL     1     -11.995  14.110  70.446  1.00  0.00    -0.400 A  
HETATM   30  C   UNL     1     -11.375  15.288  70.905  1.00  0.00    -0.380 A  
HETATM   31  O   UNL     1     -10.979  14.939  67.599  1.00  0.00    -0.281 OA 
HETATM   32  O   UNL     1     -12.530  13.373  67.186  1.00  0.00    -0.217 OA 
HETATM   33  C   UNL     1     -11.919  16.019  71.965  1.00  0.00    -0.622 A  
HETATM   34  C   UNL     1     -13.091  15.581  72.568  1.00  0.00    -0.446 A  
HETATM   35  C   UNL     1     -13.753  14.457  72.093  1.00  0.00    -0.557 A  
HETATM   36  O   UNL     1     -13.628  16.228  73.640  1.00  0.00    -0.912 OA 
HETATM   37  H   UNL     1     -14.430  15.928  74.052  1.00  0.00     0.000 HD 
HETATM   38  C   UNL     1     -13.216  13.730  71.028  1.00  0.00    -0.222 A  
ENDBRANCH   5  23
TORSDOF 5
ENDMDL
MODEL        8
REMARK 921   NORMALIZED FREE ENERGY PREDICTED BY IDOCK:   -6.99 KCAL/MOL
REMARK 922        TOTAL FREE ENERGY PREDICTED BY IDOCK:  -10.37 KCAL/MOL
REMARK 923 INTER-LIGAND FREE ENERGY PREDICTED BY IDOCK:   -9.54 KCAL/MOL
REMARK 924 INTRA-LIGAND FREE ENERGY PREDICTED BY IDOCK:   -0.83 KCAL/MOL
REMARK 927      BINDING AFFINITY PREDICTED BY RF-SCORE:    0.00 PKD
ROOT
HETATM    1  C   UNL     1     -10.298  12.832  68.544  1.00  0.00    -0.221 C  
HETATM    2  O   UNL     1      -8.864  12.893  68.500  1.00  0.00    -0.148 OA 
HETATM    3  C   UNL     1      -8.388  14.232  68.356  1.00  0.00    -0.164 C  
HETATM    4  C   UNL     1      -9.090  14.946  67.208  1.00  0.00    -0.211 C  
HETATM    5  C   UNL     1     -11.026  11.480  68.138  1.00  0.00    -0.228 C  
HETATM    6  C   UNL     1     -10.264  14.470  66.703  1.00  0.00    -0.275 C  
HETATM    7  N   UNL     1     -10.910  13.461  67.382  1.00  0.00    -0.265 N  
HETATM    8  C   UNL     1     -10.829  15.018  65.412  1.00  0.00    -0.364 C  
HETATM    9  O   UNL     1     -10.200  15.736  64.646  1.00  0.00    -0.296 OA 
HETATM   10  O   UNL     1     -12.111  14.705  65.143  1.00  0.00    -0.363 OA 
HETATM   11  O   UNL     1     -12.274  12.245  65.959  1.00  0.00    -0.646 OA 
HETATM   12  C   UNL     1     -11.594  12.378  66.952  1.00  0.00    -0.370 C  
ENDROOT
BRANCH   4  13
HETATM   13  C   UNL     1      -8.265  16.104  66.673  1.00  0.00    -0.286 C  
BRANCH  13  14
HETATM   14  S   UNL     1      -7.914  17.419  67.873  1.00  0.00    -0.223 SA 
BRANCH  14  15
HETATM   15  C   UNL     1      -9.135  18.590  67.574  1.00  0.00    -0.279 A  
HETATM   16  N   UNL     1     -10.432  18.404  67.503  1.00  0.00    -0.403 NA 
HETATM   17  C   UNL     1      -7.621  20.611  67.331  1.00  0.00    -0.330 C  
HETATM   18  N   UNL     1     -10.970  19.632  67.200  1.00  0.00    -0.410 NA 
HETATM   19  N   UNL     1     -10.023  20.556  67.097  1.00  0.00    -0.437 NA 
HETATM   20  N   UNL     1      -8.871  19.908  67.340  1.00  0.00    -0.325 NA 
ENDBRANCH  14  15
ENDBRANCH  13  14
ENDBRANCH   4  13
BRANCH   5  21
HETATM   21  O   UNL     1     -12.056  11.025  69.057  1.00  0.00    -0.426 OA 
HETATM   22  C   UNL     1     -12.279  11.813  70.217  1.00  0.00    -0.299 C  
ENDBRANCH   5  21
BRANCH   5  23
HETATM   23  N   UNL     1     -10.073  10.416  67.681  1.00  0.00    -0.180 N  
HETATM   24  C   UNL     1      -8.419   8.621  67.987  1.00  0.00    -0.127 C  
HETATM   25  C   UNL     1      -9.401   9.620  68.585  1.00  0.00    -0.143 C  
HETATM   26  O   UNL     1      -9.607   9.667  69.798  1.00  0.00    -0.190 OA 
HETATM   27  H   UNL     1      -9.918  10.279  66.683  1.00  0.00     0.000 HD 
HETATM   28  C   UNL     1      -7.314   8.191  68.943  1.00  0.00    -0.090 C  
HETATM   29  C   UNL     1      -9.111   7.411  67.361  1.00  0.00    -0.129 A  
HETATM   30  C   UNL     1      -8.485   6.727  66.301  1.00  0.00    -0.131 A  
HETATM   31  O   UNL     1      -6.231   7.779  68.541  1.00  0.00    -0.038 OA 
HETATM   32  O   UNL     1      -7.587   8.248  70.266  1.00  0.00    -0.068 OA 
HETATM   33  C   UNL     1      -9.117   5.654  65.666  1.00  0.00    -0.110 A  
HETATM   34  C   UNL     1     -10.377   5.253  66.093  1.00  0.00    -0.190 A  
HETATM   35  C   UNL     1     -10.987   5.872  67.176  1.00  0.00    -0.289 A  
HETATM   36  O   UNL     1     -11.056   4.249  65.471  1.00  0.00    -0.633 OA 
HETATM   37  H   UNL     1     -11.917   3.974  65.763  1.00  0.00     0.000 HD 
HETATM   38  C   UNL     1     -10.353   6.938  67.817  1.00  0.00    -0.253 A  
ENDBRANCH   5  23
TORSDOF 5
ENDMDL
MODEL        9
REMARK 921   NORMALIZED FREE ENERGY PREDICTED BY IDOCK:   -6.95 KCAL/MOL
REMARK 922        TOTAL FREE ENERGY PREDICTED BY IDOCK:  -10.32 KCAL/MOL
REMARK 923 INTER-LIGAND FREE ENERGY PREDICTED BY IDOCK:   -9.30 KCAL/MOL
REMARK 924 INTRA-LIGAND FREE ENERGY PREDICTED BY IDOCK:   -1.03 KCAL/MOL
REMARK 927      BINDING AFFINITY PREDICTED BY RF-SCORE:    0.00 PKD
ROOT
HETATM    1  C   UNL     1     -10.792  12.045  65.330  1.00  0.00    -0.291 C  
HETATM    2  O   UNL     1      -9.455  11.525  65.286  1.00  0.00    -0.226 OA 
HETATM    3  C   UNL     1      -9.403  10.145  65.654  1.00  0.00    -0.199 C  
HETATM    4  C   UNL     1     -10.140   9.897  66.964  1.00  0.00    -0.275 C  
HETATM    5  C   UNL     1     -11.007  13.608  65.516  1.00  0.00    -0.293 C  
HETATM    6  C   UNL     1     -11.033  10.806  67.447  1.00  0.00    -0.300 C  
HETATM    7  N   UNL     1     -11.416  11.848  66.632  1.00  0.00    -0.339 N  
HETATM    8  C   UNL     1     -11.570  10.690  68.855  1.00  0.00    -0.249 C  
HETATM    9  O   UNL     1     -11.102   9.938  69.700  1.00  0.00    -0.240 OA 
HETATM   10  O   UNL     1     -12.647  11.445  69.146  1.00  0.00    -0.255 OA 
HETATM   11  O   UNL     1     -12.141  13.657  67.883  1.00  0.00    -0.357 OA 
HETATM   12  C   UNL     1     -11.669  13.150  66.889  1.00  0.00    -0.387 C  
ENDROOT
BRANCH   4  13
HETATM   13  C   UNL     1      -9.653   8.634  67.655  1.00  0.00    -0.155 C  
BRANCH  13  14
HETATM   14  S   UNL     1     -10.667   7.158  67.365  1.00  0.00    -0.287 SA 
BRANCH  14  15
HETATM   15  C   UNL     1     -10.813   6.443  68.921  1.00  0.00    -0.325 A  
HETATM   16  N   UNL     1     -11.627   6.785  69.893  1.00  0.00    -0.305 NA 
HETATM   17  C   UNL     1      -9.023   4.666  68.654  1.00  0.00    -0.109 C  
HETATM   18  N   UNL     1     -11.330   5.947  70.941  1.00  0.00    -0.226 NA 
HETATM   19  N   UNL     1     -10.360   5.102  70.617  1.00  0.00    -0.251 NA 
HETATM   20  N   UNL     1     -10.039   5.404  69.348  1.00  0.00    -0.212 NA 
ENDBRANCH  14  15
ENDBRANCH  13  14
ENDBRANCH   4  13
BRANCH   5  21
HETATM   21  O   UNL     1     -11.953  14.222  64.600  1.00  0.00    -0.408 OA 
HETATM   22  C   UNL     1     -12.197  13.545  63.375  1.00  0.00    -0.272 C  
ENDBRANCH   5  21
BRANCH   5  23
HETATM   23  N   UNL     1      -9.721  14.359  65.691  1.00  0.00    -0.515 N  
HETATM   24  C   UNL     1      -8.337  16.330  66.194  1.00  0.00    -0.260 C  
HETATM   25  C   UNL     1      -9.708  15.671  66.117  1.00  0.00    -0.318 C  
HETATM   26  O   UNL     1     -10.727  16.269  66.465  1.00  0.00    -0.284 OA 
HETATM   27  H   UNL     1      -8.838  13.890  65.491  1.00  0.00     0.000 HD 
HETATM   28  C   UNL     1      -8.375  17.849  66.092  1.00  0.00    -0.128 C  
HETATM   29  C   UNL     1      -7.528  15.877  67.408  1.00  0.00    -0.217 A  
HETATM   30  C   UNL     1      -6.121  15.888  67.346  1.00  0.00    -0.149 A  
HETATM   31  O   UNL     1      -7.413  18.498  65.694  1.00  0.00    -0.509 OA 
HETATM   32  O   UNL     1      -9.508  18.466  66.495  1.00  0.00    -0.303 OA 
HETATM   33  C   UNL     1      -5.352  15.424  68.417  1.00  0.00    -0.104 A  
HETATM   34  C   UNL     1      -5.984  14.951  69.560  1.00  0.00    -0.107 A  
HETATM   35  C   UNL     1      -7.368  14.987  69.668  1.00  0.00    -0.181 A  
HETATM   36  O   UNL     1      -5.279  14.437  70.606  1.00  0.00    -0.104 OA 
HETATM   37  H   UNL     1      -5.712  14.114  71.388  1.00  0.00     0.000 HD 
HETATM   38  C   UNL     1      -8.138  15.459  68.603  1.00  0.00    -0.156 A  
ENDBRANCH   5  23
TORSDOF 5
ENDMDL
MODEL       10
REMARK 921   NORMALIZED FREE ENERGY PREDICTED BY IDOCK:   -6.91 KCAL/MOL
REMARK 922        TOTAL FREE ENERGY PREDICTED BY IDOCK:  -10.28 KCAL/MOL
REMARK 923 INTER-LIGAND FREE ENERGY PREDICTED BY IDOCK:   -9.08 KCAL/MOL
REMARK 924 INTRA-LIGAND FREE ENERGY PREDICTED BY IDOCK:   -1.19 KCAL/MOL
REMARK 927      BINDING AFFINITY PREDICTED BY RF-SCORE:    0.00 PKD
ROOT
HETATM    1  C   UNL     1     -10.637   8.750  69.377  1.00  0.00    -0.209 C  
HETATM    2  O   UNL     1      -9.866   9.454  68.391  1.00  0.00    -0.153 OA 
HETATM    3  C   UNL     1      -8.867   8.623  67.797  1.00  0.00    -0.136 C  
HETATM    4  C   UNL     1      -8.042   7.909  68.860  1.00  0.00    -0.125 C  
HETATM    5  C   UNL     1     -11.374   9.575  70.516  1.00  0.00    -0.283 C  
HETATM    6  C   UNL     1      -8.496   7.799  70.140  1.00  0.00    -0.134 C  
HETATM    7  N   UNL     1      -9.798   8.155  70.409  1.00  0.00    -0.186 N  
HETATM    8  C   UNL     1      -7.581   7.324  71.247  1.00  0.00    -0.083 C  
HETATM    9  O   UNL     1      -6.368   7.218  71.126  1.00  0.00    -0.036 OA 
HETATM   10  O   UNL     1      -8.178   6.972  72.402  1.00  0.00    -0.105 OA 
HETATM   11  O   UNL     1     -10.055   8.753  72.632  1.00  0.00    -0.193 OA 
HETATM   12  C   UNL     1     -10.364   8.787  71.461  1.00  0.00    -0.303 C  
ENDROOT
BRANCH   4  13
HETATM   13  C   UNL     1      -6.680   7.492  68.331  1.00  0.00    -0.054 C  
BRANCH  13  14
HETATM   14  S   UNL     1      -5.667   8.841  67.663  1.00  0.00    -0.039 SA 
BRANCH  14  15
HETATM   15  C   UNL     1      -5.885  10.121  68.789  1.00  0.00    -0.037 A  
HETATM   16  N   UNL     1      -5.524  10.157  70.051  1.00  0.00    -0.038 NA 
HETATM   17  C   UNL     1      -7.068  11.745  67.240  1.00  0.00    -0.140 C  
HETATM   18  N   UNL     1      -5.959  11.369  70.530  1.00  0.00    -0.278 NA 
HETATM   19  N   UNL     1      -6.568  12.067  69.580  1.00  0.00    -0.086 NA 
HETATM   20  N   UNL     1      -6.515  11.292  68.485  1.00  0.00    -0.050 NA 
ENDBRANCH  14  15
ENDBRANCH  13  14
ENDBRANCH   4  13
BRANCH   5  21
HETATM   21  O   UNL     1     -12.765   9.223  70.743  1.00  0.00    -0.134 OA 
HETATM   22  C   UNL     1     -13.355   9.671  71.955  1.00  0.00    -0.457 C  
ENDBRANCH   5  21
BRANCH   5  23
HETATM   23  N   UNL     1     -11.100  11.048  70.442  1.00  0.00    -0.433 N  
HETATM   24  C   UNL     1     -11.201  13.289  69.430  1.00  0.00    -0.220 C  
HETATM   25  C   UNL     1     -11.606  11.821  69.417  1.00  0.00    -0.322 C  
HETATM   26  O   UNL     1     -12.378  11.377  68.566  1.00  0.00    -0.504 OA 
HETATM   27  H   UNL     1     -10.527  11.487  71.162  1.00  0.00     0.000 HD 
HETATM   28  C   UNL     1     -11.263  13.960  68.065  1.00  0.00    -0.271 C  
HETATM   29  C   UNL     1     -11.954  14.102  70.482  1.00  0.00    -0.393 A  
HETATM   30  C   UNL     1     -11.348  15.246  71.037  1.00  0.00    -0.393 A  
HETATM   31  O   UNL     1     -10.581  14.943  67.793  1.00  0.00    -0.255 OA 
HETATM   32  O   UNL     1     -12.132  13.448  67.165  1.00  0.00    -0.368 OA 
HETATM   33  C   UNL     1     -11.984  15.978  72.044  1.00  0.00    -0.622 A  
HETATM   34  C   UNL     1     -13.234  15.576  72.497  1.00  0.00    -0.473 A  
HETATM   35  C   UNL     1     -13.878  14.488  71.922  1.00  0.00    -0.545 A  
HETATM   36  O   UNL     1     -13.868  16.224  73.513  1.00  0.00    -0.868 OA 
HETATM   37  H   UNL     1     -14.724  15.949  73.822  1.00  0.00     0.000 HD 
HETATM   38  C   UNL     1     -13.248  13.761  70.910  1.00  0.00    -0.156 A  
ENDBRANCH   5  23
TORSDOF 5
ENDMDL
MODEL       11
REMARK 921   NORMALIZED FREE ENERGY PREDICTED BY IDOCK:   -6.85 KCAL/MOL
REMARK 922        TOTAL FREE ENERGY PREDICTED BY IDOCK:  -10.20 KCAL/MOL
REMARK 923 INTER-LIGAND FREE ENERGY PREDICTED BY IDOCK:   -8.85 KCAL/MOL
REMARK 924 INTRA-LIGAND FREE ENERGY PREDICTED BY IDOCK:   -1.35 KCAL/MOL
REMARK 927      BINDING AFFINITY PREDICTED BY RF-SCORE:    0.00 PKD
ROOT
HETATM    1  C   UNL     1     -10.837  12.045  66.035  1.00  0.00    -0.289 C  
HETATM    2  O   UNL     1     -11.805  12.050  67.095  1.00  0.00    -0.565 OA 
HETATM    3  C   UNL     1     -11.911  13.331  67.718  1.00  0.00    -0.353 C  
HETATM    4  C   UNL     1     -10.540  13.871  68.105  1.00  0.00    -0.258 C  
HETATM    5  C   UNL     1     -10.166  10.670  65.608  1.00  0.00    -0.253 C  
HETATM    6  C   UNL     1      -9.405  13.359  67.549  1.00  0.00    -0.218 C  
HETATM    7  N   UNL     1      -9.527  12.496  66.483  1.00  0.00    -0.238 N  
HETATM    8  C   UNL     1      -8.045  13.707  68.110  1.00  0.00    -0.156 C  
HETATM    9  O   UNL     1      -7.877  14.270  69.184  1.00  0.00    -0.090 OA 
HETATM   10  O   UNL     1      -6.986  13.398  67.337  1.00  0.00    -0.165 OA 
HETATM   11  O   UNL     1      -7.679  11.110  66.321  1.00  0.00    -0.154 OA 
HETATM   12  C   UNL     1      -8.845  11.381  66.142  1.00  0.00    -0.184 C  
ENDROOT
BRANCH   4  13
HETATM   13  C   UNL     1     -10.631  14.898  69.220  1.00  0.00    -0.243 C  
BRANCH  13  14
HETATM   14  S   UNL     1     -11.018  16.587  68.682  1.00  0.00    -0.324 SA 
BRANCH  14  15
HETATM   15  C   UNL     1      -9.658  17.043  67.736  1.00  0.00    -0.244 A  
HETATM   16  N   UNL     1      -8.543  17.602  68.143  1.00  0.00    -0.253 NA 
HETATM   17  C   UNL     1     -10.549  16.310  65.477  1.00  0.00    -0.353 C  
HETATM   18  N   UNL     1      -7.794  17.810  67.009  1.00  0.00    -0.206 NA 
HETATM   19  N   UNL     1      -8.432  17.379  65.929  1.00  0.00    -0.541 NA 
HETATM   20  N   UNL     1      -9.598  16.889  66.382  1.00  0.00    -0.271 NA 
ENDBRANCH  14  15
ENDBRANCH  13  14
ENDBRANCH   4  13
BRANCH   5  21
HETATM   21  O   UNL     1     -10.138  10.405  64.180  1.00  0.00    -0.322 OA 
HETATM   22  C   UNL     1     -10.380  11.505  63.315  1.00  0.00    -0.384 C  
ENDBRANCH   5  21
BRANCH   5  23
HETATM   23  N   UNL     1     -10.610   9.515  66.455  1.00  0.00    -0.126 N  
HETATM   24  C   UNL     1     -10.505   7.216  67.328  1.00  0.00    -0.372 C  
HETATM   25  C   UNL     1      -9.911   8.325  66.470  1.00  0.00    -0.253 C  
HETATM   26  O   UNL     1      -8.845   8.170  65.872  1.00  0.00    -0.155 OA 
HETATM   27  H   UNL     1     -11.445   9.610  67.032  1.00  0.00     0.000 HD 
HETATM   28  C   UNL     1     -10.094   5.814  66.900  1.00  0.00    -0.192 C  
HETATM   29  C   UNL     1     -10.269   7.431  68.822  1.00  0.00    -0.199 A  
HETATM   30  C   UNL     1     -11.183   6.899  69.752  1.00  0.00    -0.315 A  
HETATM   31  O   UNL     1     -10.782   4.830  67.151  1.00  0.00    -0.014 OA 
HETATM   32  O   UNL     1      -8.912   5.688  66.257  1.00  0.00    -0.131 OA 
HETATM   33  C   UNL     1     -11.028   7.128  71.123  1.00  0.00    -0.272 A  
HETATM   34  C   UNL     1      -9.954   7.884  71.573  1.00  0.00    -0.173 A  
HETATM   35  C   UNL     1      -9.006   8.367  70.680  1.00  0.00    -0.168 A  
HETATM   36  O   UNL     1      -9.791   8.180  72.893  1.00  0.00    -0.270 OA 
HETATM   37  H   UNL     1      -9.056   8.697  73.200  1.00  0.00     0.000 HD 
HETATM   38  C   UNL     1      -9.154   8.132  69.312  1.00  0.00    -0.151 A  
ENDBRANCH   5  23
TORSDOF 5
ENDMDL
MODEL       12
REMARK 921   NORMALIZED FREE ENERGY PREDICTED BY IDOCK:   -6.78 KCAL/MOL
REMARK 922        TOTAL FREE ENERGY PREDICTED BY IDOCK:  -10.11 KCAL/MOL
REMARK 923 INTER-LIGAND FREE ENERGY PREDICTED BY IDOCK:   -8.97 KCAL/MOL
REMARK 924 INTRA-LIGAND FREE ENERGY PREDICTED BY IDOCK:   -1.14 KCAL/MOL
REMARK 927      BINDING AFFINITY PREDICTED BY RF-SCORE:    0.00 PKD
ROOT
HETATM    1  C   UNL     1     -10.863  14.852  69.194  1.00  0.00    -0.250 C  
HETATM    2  O   UNL     1      -9.450  14.672  69.372  1.00  0.00    -0.064 OA 
HETATM    3  C   UNL     1      -8.689  15.578  68.571  1.00  0.00    -0.184 C  
HETATM    4  C   UNL     1      -9.156  15.557  67.121  1.00  0.00    -0.233 C  
HETATM    5  C   UNL     1     -11.842  13.644  69.518  1.00  0.00    -0.337 C  
HETATM    6  C   UNL     1     -10.374  15.045  66.787  1.00  0.00    -0.270 C  
HETATM    7  N   UNL     1     -11.260  14.742  67.797  1.00  0.00    -0.300 N  
HETATM    8  C   UNL     1     -10.734  14.787  65.341  1.00  0.00    -0.371 C  
HETATM    9  O   UNL     1      -9.923  14.810  64.425  1.00  0.00     0.137 OA 
HETATM   10  O   UNL     1     -12.037  14.560  65.083  1.00  0.00    -0.383 OA 
HETATM   11  O   UNL     1     -12.772  13.124  67.119  1.00  0.00     0.050 OA 
HETATM   12  C   UNL     1     -12.136  13.726  67.956  1.00  0.00    -0.280 C  
ENDROOT
BRANCH   4  13
HETATM   13  C   UNL     1      -8.072  16.037  66.171  1.00  0.00     0.089 C  
BRANCH  13  14
HETATM   14  S   UNL     1      -7.582  17.772  66.376  1.00  0.00    -0.289 SA 
BRANCH  14  15
HETATM   15  C   UNL     1      -9.056  18.581  66.727  1.00  0.00    -0.297 A  
HETATM   16  N   UNL     1     -10.090  18.754  65.937  1.00  0.00    -0.539 NA 
HETATM   17  C   UNL     1      -8.518  19.258  69.112  1.00  0.00    -0.120 C  
HETATM   18  N   UNL     1     -10.993  19.497  66.659  1.00  0.00    -0.368 NA 
HETATM   19  N   UNL     1     -10.527  19.767  67.872  1.00  0.00    -0.420 NA 
HETATM   20  N   UNL     1      -9.316  19.186  67.922  1.00  0.00    -0.306 NA 
ENDBRANCH  14  15
ENDBRANCH  13  14
ENDBRANCH   4  13
BRANCH   5  21
HETATM   21  O   UNL     1     -12.995  13.976  70.337  1.00  0.00    -0.252 OA 
HETATM   22  C   UNL     1     -13.048  15.291  70.873  1.00  0.00    -0.464 C  
ENDBRANCH   5  21
BRANCH   5  23
HETATM   23  N   UNL     1     -11.116  12.397  69.927  1.00  0.00    -0.443 N  
HETATM   24  C   UNL     1     -10.941  10.081  70.741  1.00  0.00    -0.375 C  
HETATM   25  C   UNL     1     -11.800  11.255  70.290  1.00  0.00    -0.357 C  
HETATM   26  O   UNL     1     -13.026  11.159  70.214  1.00  0.00    -0.121 OA 
HETATM   27  H   UNL     1     -10.097  12.392  69.937  1.00  0.00     0.000 HD 
HETATM   28  C   UNL     1     -11.664   9.097  71.650  1.00  0.00    -0.378 C  
HETATM   29  C   UNL     1     -10.261   9.362  69.576  1.00  0.00    -0.219 A  
HETATM   30  C   UNL     1      -9.041   8.694  69.792  1.00  0.00    -0.150 A  
HETATM   31  O   UNL     1     -11.062   8.381  72.443  1.00  0.00    -0.346 OA 
HETATM   32  O   UNL     1     -13.008   9.015  71.524  1.00  0.00    -0.325 OA 
HETATM   33  C   UNL     1      -8.363   8.077  68.736  1.00  0.00    -0.127 A  
HETATM   34  C   UNL     1      -8.906   8.119  67.458  1.00  0.00    -0.135 A  
HETATM   35  C   UNL     1     -10.137   8.720  67.232  1.00  0.00    -0.301 A  
HETATM   36  O   UNL     1      -8.256   7.582  66.388  1.00  0.00    -0.112 OA 
HETATM   37  H   UNL     1      -8.628   7.610  65.514  1.00  0.00     0.000 HD 
HETATM   38  C   UNL     1     -10.820   9.328  68.287  1.00  0.00    -0.132 A  
ENDBRANCH   5  23
TORSDOF 5
ENDMDL
MODEL       13
REMARK 921   NORMALIZED FREE ENERGY PREDICTED BY IDOCK:   -6.73 KCAL/MOL
REMARK 922        TOTAL FREE ENERGY PREDICTED BY IDOCK:  -10.04 KCAL/MOL
REMARK 923 INTER-LIGAND FREE ENERGY PREDICTED BY IDOCK:   -8.52 KCAL/MOL
REMARK 924 INTRA-LIGAND FREE ENERGY PREDICTED BY IDOCK:   -1.53 KCAL/MOL
REMARK 927      BINDING AFFINITY PREDICTED BY RF-SCORE:    0.00 PKD
ROOT
HETATM    1  C   UNL     1      -7.189   9.417  68.018  1.00  0.00    -0.078 C  
HETATM    2  O   UNL     1      -7.059  10.092  69.278  1.00  0.00    -0.061 OA 
HETATM    3  C   UNL     1      -6.488   9.250  70.281  1.00  0.00    -0.058 C  
HETATM    4  C   UNL     1      -7.207   7.909  70.349  1.00  0.00    -0.053 C  
HETATM    5  C   UNL     1      -8.269   9.933  66.973  1.00  0.00    -0.117 C  
HETATM    6  C   UNL     1      -7.991   7.483  69.318  1.00  0.00    -0.121 C  
HETATM    7  N   UNL     1      -7.953   8.182  68.132  1.00  0.00    -0.125 N  
HETATM    8  C   UNL     1      -8.901   6.287  69.482  1.00  0.00    -0.135 C  
HETATM    9  O   UNL     1      -9.157   5.772  70.561  1.00  0.00    -0.143 OA 
HETATM   10  O   UNL     1      -9.410   5.768  68.348  1.00  0.00    -0.119 OA 
HETATM   11  O   UNL     1      -9.912   7.887  66.932  1.00  0.00    -0.212 OA 
HETATM   12  C   UNL     1      -8.918   8.505  67.244  1.00  0.00    -0.129 C  
ENDROOT
BRANCH   4  13
HETATM   13  C   UNL     1      -7.030   7.241  71.702  1.00  0.00    -0.059 C  
BRANCH  13  14
HETATM   14  S   UNL     1      -7.680   8.177  73.114  1.00  0.00    -0.136 SA 
BRANCH  14  15
HETATM   15  C   UNL     1      -9.380   8.174  72.867  1.00  0.00    -0.273 A  
HETATM   16  N   UNL     1     -10.081   8.948  72.071  1.00  0.00    -0.329 NA 
HETATM   17  C   UNL     1      -9.960   6.302  74.478  1.00  0.00    -0.341 C  
HETATM   18  N   UNL     1     -11.394   8.589  72.263  1.00  0.00    -0.370 NA 
HETATM   19  N   UNL     1     -11.497   7.610  73.152  1.00  0.00    -0.239 NA 
HETATM   20  N   UNL     1     -10.236   7.340  73.526  1.00  0.00    -0.336 NA 
ENDBRANCH  14  15
ENDBRANCH  13  14
ENDBRANCH   4  13
BRANCH   5  21
HETATM   21  O   UNL     1      -7.791  10.098  65.611  1.00  0.00    -0.132 OA 
HETATM   22  C   UNL     1      -6.387  10.209  65.429  1.00  0.00    -0.116 C  
ENDBRANCH   5  21
BRANCH   5  23
HETATM   23  N   UNL     1      -9.090  11.075  67.496  1.00  0.00    -0.137 N  
HETATM   24  C   UNL     1     -10.979  12.651  67.492  1.00  0.00    -0.280 C  
HETATM   25  C   UNL     1     -10.278  11.438  66.896  1.00  0.00    -0.219 C  
HETATM   26  O   UNL     1     -10.778  10.801  65.968  1.00  0.00    -0.196 OA 
HETATM   27  H   UNL     1      -8.763  11.593  68.311  1.00  0.00     0.000 HD 
HETATM   28  C   UNL     1     -11.911  13.365  66.524  1.00  0.00    -0.400 C  
HETATM   29  C   UNL     1     -11.683  12.340  68.812  1.00  0.00    -0.390 A  
HETATM   30  C   UNL     1     -11.856  13.364  69.763  1.00  0.00    -0.393 A  
HETATM   31  O   UNL     1     -12.197  14.551  66.651  1.00  0.00    -0.379 OA 
HETATM   32  O   UNL     1     -12.448  12.626  65.527  1.00  0.00    -0.622 OA 
HETATM   33  C   UNL     1     -12.443  13.100  71.004  1.00  0.00    -0.406 A  
HETATM   34  C   UNL     1     -12.867  11.811  71.299  1.00  0.00    -0.308 A  
HETATM   35  C   UNL     1     -12.763  10.798  70.355  1.00  0.00    -0.346 A  
HETATM   36  O   UNL     1     -13.394  11.492  72.515  1.00  0.00    -0.527 OA 
HETATM   37  H   UNL     1     -13.684  10.610  72.717  1.00  0.00     0.000 HD 
HETATM   38  C   UNL     1     -12.185  11.062  69.111  1.00  0.00    -0.229 A  
ENDBRANCH   5  23
TORSDOF 5
ENDMDL
MODEL       14
REMARK 921   NORMALIZED FREE ENERGY PREDICTED BY IDOCK:   -6.72 KCAL/MOL
REMARK 922        TOTAL FREE ENERGY PREDICTED BY IDOCK:  -10.03 KCAL/MOL
REMARK 923 INTER-LIGAND FREE ENERGY PREDICTED BY IDOCK:   -8.27 KCAL/MOL
REMARK 924 INTRA-LIGAND FREE ENERGY PREDICTED BY IDOCK:   -1.76 KCAL/MOL
REMARK 927      BINDING AFFINITY PREDICTED BY RF-SCORE:    0.00 PKD
ROOT
HETATM    1  C   UNL     1      -8.292   8.567  66.289  1.00  0.00    -0.116 C  
HETATM    2  O   UNL     1      -9.702   8.723  66.071  1.00  0.00    -0.254 OA 
HETATM    3  C   UNL     1     -10.002   9.909  65.333  1.00  0.00    -0.279 C  
HETATM    4  C   UNL     1      -9.314  11.125  65.940  1.00  0.00    -0.235 C  
HETATM    5  C   UNL     1      -7.793   7.684  67.512  1.00  0.00    -0.119 C  
HETATM    6  C   UNL     1      -8.265  10.978  66.798  1.00  0.00    -0.149 C  
HETATM    7  N   UNL     1      -7.705   9.728  66.943  1.00  0.00    -0.098 N  
HETATM    8  C   UNL     1      -7.748  12.153  67.595  1.00  0.00    -0.148 C  
HETATM    9  O   UNL     1      -8.339  13.221  67.692  1.00  0.00    -0.155 OA 
HETATM   10  O   UNL     1      -6.548  11.990  68.187  1.00  0.00    -0.050 OA 
HETATM   11  O   UNL     1      -6.650   9.524  68.995  1.00  0.00    -0.049 OA 
HETATM   12  C   UNL     1      -7.215   9.077  68.021  1.00  0.00    -0.080 C  
ENDROOT
BRANCH   4  13
HETATM   13  C   UNL     1     -10.018  12.418  65.567  1.00  0.00    -0.243 C  
BRANCH  13  14
HETATM   14  S   UNL     1     -11.788  12.473  65.962  1.00  0.00    -0.386 SA 
BRANCH  14  15
HETATM   15  C   UNL     1     -11.827  12.565  67.677  1.00  0.00    -0.317 A  
HETATM   16  N   UNL     1     -12.002  11.586  68.533  1.00  0.00    -0.529 NA 
HETATM   17  C   UNL     1     -11.471  15.067  67.897  1.00  0.00    -0.340 C  
HETATM   18  N   UNL     1     -12.000  12.172  69.777  1.00  0.00    -0.317 NA 
HETATM   19  N   UNL     1     -11.818  13.483  69.686  1.00  0.00    -0.319 NA 
HETATM   20  N   UNL     1     -11.701  13.732  68.372  1.00  0.00    -0.338 NA 
ENDBRANCH  14  15
ENDBRANCH  13  14
ENDBRANCH   4  13
BRANCH   5  21
HETATM   21  O   UNL     1      -6.758   6.713  67.200  1.00  0.00    -0.058 OA 
HETATM   22  C   UNL     1      -7.062   5.742  66.209  1.00  0.00    -0.068 C  
ENDBRANCH   5  21
BRANCH   5  23
HETATM   23  N   UNL     1      -8.918   7.158  68.351  1.00  0.00    -0.127 N  
HETATM   24  C   UNL     1      -9.918   6.099  70.335  1.00  0.00    -0.223 C  
HETATM   25  C   UNL     1      -8.696   6.654  69.616  1.00  0.00    -0.140 C  
HETATM   26  O   UNL     1      -7.593   6.689  70.163  1.00  0.00    -0.092 OA 
HETATM   27  H   UNL     1      -9.868   7.173  67.980  1.00  0.00     0.000 HD 
HETATM   28  C   UNL     1      -9.591   5.069  71.407  1.00  0.00    -0.164 C  
HETATM   29  C   UNL     1     -10.834   7.194  70.879  1.00  0.00    -0.266 A  
HETATM   30  C   UNL     1     -12.211   6.936  71.025  1.00  0.00    -0.427 A  
HETATM   31  O   UNL     1     -10.401   4.217  71.759  1.00  0.00    -0.145 OA 
HETATM   32  O   UNL     1      -8.374   5.151  71.990  1.00  0.00    -0.121 OA 
HETATM   33  C   UNL     1     -13.086   7.934  71.464  1.00  0.00    -0.343 A  
HETATM   34  C   UNL     1     -12.588   9.195  71.767  1.00  0.00    -0.370 A  
HETATM   35  C   UNL     1     -11.226   9.455  71.689  1.00  0.00    -0.431 A  
HETATM   36  O   UNL     1     -13.408  10.215  72.144  1.00  0.00    -0.499 OA 
HETATM   37  H   UNL     1     -13.068  11.078  72.352  1.00  0.00     0.000 HD 
HETATM   38  C   UNL     1     -10.350   8.457  71.260  1.00  0.00    -0.272 A  
ENDBRANCH   5  23
TORSDOF 5
ENDMDL
MODEL       15
REMARK 921   NORMALIZED FREE ENERGY PREDICTED BY IDOCK:   -6.69 KCAL/MOL
REMARK 922        TOTAL FREE ENERGY PREDICTED BY IDOCK:   -9.99 KCAL/MOL
REMARK 923 INTER-LIGAND FREE ENERGY PREDICTED BY IDOCK:   -8.94 KCAL/MOL
REMARK 924 INTRA-LIGAND FREE ENERGY PREDICTED BY IDOCK:   -1.06 KCAL/MOL
REMARK 927      BINDING AFFINITY PREDICTED BY RF-SCORE:    0.00 PKD
ROOT
HETATM    1  C   UNL     1      -7.793  10.765  68.576  1.00  0.00    -0.122 C  
HETATM    2  O   UNL     1      -7.930  10.743  67.147  1.00  0.00    -0.118 OA 
HETATM    3  C   UNL     1      -8.808  11.768  66.676  1.00  0.00    -0.189 C  
HETATM    4  C   UNL     1     -10.125  11.760  67.442  1.00  0.00    -0.212 C  
HETATM    5  C   UNL     1      -7.356   9.438  69.331  1.00  0.00    -0.078 C  
HETATM    6  C   UNL     1     -10.230  11.126  68.644  1.00  0.00    -0.205 C  
HETATM    7  N   UNL     1      -9.080  10.676  69.253  1.00  0.00    -0.147 N  
HETATM    8  C   UNL     1     -11.582  10.897  69.282  1.00  0.00    -0.318 C  
HETATM    9  O   UNL     1     -12.644  11.057  68.696  1.00  0.00    -0.304 OA 
HETATM   10  O   UNL     1     -11.574  10.533  70.578  1.00  0.00    -0.306 OA 
HETATM   11  O   UNL     1      -9.536   8.927  70.701  1.00  0.00    -0.183 OA 
HETATM   12  C   UNL     1      -8.812   9.559  69.964  1.00  0.00    -0.223 C  
ENDROOT
BRANCH   4  13
HETATM   13  C   UNL     1     -11.245  12.407  66.646  1.00  0.00    -0.315 C  
BRANCH  13  14
HETATM   14  S   UNL     1     -10.913  12.611  64.874  1.00  0.00    -0.307 SA 
BRANCH  14  15
HETATM   15  C   UNL     1     -11.460  14.203  64.530  1.00  0.00    -0.372 A  
HETATM   16  N   UNL     1     -12.547  14.561  63.887  1.00  0.00    -0.789 NA 
HETATM   17  C   UNL     1      -9.548  15.467  65.616  1.00  0.00    -0.293 C  
HETATM   18  N   UNL     1     -12.513  15.934  63.831  1.00  0.00    -0.607 NA 
HETATM   19  N   UNL     1     -11.432  16.410  64.436  1.00  0.00    -0.830 NA 
HETATM   20  N   UNL     1     -10.774  15.328  64.884  1.00  0.00    -0.427 NA 
ENDBRANCH  14  15
ENDBRANCH  13  14
ENDBRANCH   4  13
BRANCH   5  21
HETATM   21  O   UNL     1      -6.291   9.596  70.306  1.00  0.00    -0.058 OA 
HETATM   22  C   UNL     1      -5.538  10.798  70.250  1.00  0.00    -0.081 C  
ENDBRANCH   5  21
BRANCH   5  23
HETATM   23  N   UNL     1      -7.199   8.266  68.409  1.00  0.00    -0.090 N  
HETATM   24  C   UNL     1      -6.806   5.902  67.850  1.00  0.00    -0.060 C  
HETATM   25  C   UNL     1      -7.011   6.989  68.897  1.00  0.00    -0.079 C  
HETATM   26  O   UNL     1      -7.053   6.721  70.098  1.00  0.00    -0.067 OA 
HETATM   27  H   UNL     1      -7.231   8.415  67.401  1.00  0.00     0.000 HD 
HETATM   28  C   UNL     1      -6.052   4.683  68.364  1.00  0.00    -0.031 C  
HETATM   29  C   UNL     1      -8.104   5.497  67.153  1.00  0.00    -0.101 A  
HETATM   30  C   UNL     1      -8.056   4.996  65.838  1.00  0.00    -0.108 A  
HETATM   31  O   UNL     1      -5.420   3.946  67.614  1.00  0.00    -0.015 OA 
HETATM   32  O   UNL     1      -6.134   4.419  69.687  1.00  0.00    -0.021 OA 
HETATM   33  C   UNL     1      -9.230   4.672  65.150  1.00  0.00    -0.156 A  
HETATM   34  C   UNL     1     -10.458   4.841  65.776  1.00  0.00    -0.238 A  
HETATM   35  C   UNL     1     -10.527   5.276  67.093  1.00  0.00    -0.261 A  
HETATM   36  O   UNL     1     -11.631   4.592  65.128  1.00  0.00    -1.107 OA 
HETATM   37  H   UNL     1     -12.471   4.708  65.557  1.00  0.00     0.000 HD 
HETATM   38  C   UNL     1      -9.355   5.591  67.785  1.00  0.00    -0.119 A  
ENDBRANCH   5  23
TORSDOF 5
ENDMDL
MODEL       16
REMARK 921   NORMALIZED FREE ENERGY PREDICTED BY IDOCK:   -6.64 KCAL/MOL
REMARK 922        TOTAL FREE ENERGY PREDICTED BY IDOCK:   -9.92 KCAL/MOL
REMARK 923 INTER-LIGAND FREE ENERGY PREDICTED BY IDOCK:  -10.05 KCAL/MOL
REMARK 924 INTRA-LIGAND FREE ENERGY PREDICTED BY IDOCK:    0.13 KCAL/MOL
REMARK 927      BINDING AFFINITY PREDICTED BY RF-SCORE:    0.00 PKD
ROOT
HETATM    1  C   UNL     1      -6.106  14.954  67.752  1.00  0.00    -0.130 C  
HETATM    2  O   UNL     1      -6.982  15.663  66.862  1.00  0.00    -0.224 OA 
HETATM    3  C   UNL     1      -6.459  16.943  66.502  1.00  0.00    -0.152 C  
HETATM    4  C   UNL     1      -6.029  17.729  67.733  1.00  0.00    -0.157 C  
HETATM    5  C   UNL     1      -6.709  13.826  68.694  1.00  0.00    -0.099 C  
HETATM    6  C   UNL     1      -5.818  17.102  68.925  1.00  0.00    -0.152 C  
HETATM    7  N   UNL     1      -5.794  15.725  68.947  1.00  0.00    -0.103 N  
HETATM    8  C   UNL     1      -5.644  17.898  70.198  1.00  0.00    -0.243 C  
HETATM    9  O   UNL     1      -5.885  19.095  70.289  1.00  0.00    -0.245 OA 
HETATM   10  O   UNL     1      -5.159  17.226  71.259  1.00  0.00    -0.405 OA 
HETATM   11  O   UNL     1      -6.336  14.919  71.050  1.00  0.00     0.057 OA 
HETATM   12  C   UNL     1      -6.258  14.828  69.845  1.00  0.00    -0.150 C  
ENDROOT
BRANCH   4  13
HETATM   13  C   UNL     1      -6.007  19.225  67.469  1.00  0.00    -0.193 C  
BRANCH  13  14
HETATM   14  S   UNL     1      -7.372  19.847  66.448  1.00  0.00    -0.286 SA 
BRANCH  14  15
HETATM   15  C   UNL     1      -8.757  19.655  67.445  1.00  0.00    -0.310 A  
HETATM   16  N   UNL     1      -8.803  19.552  68.753  1.00  0.00    -0.349 NA 
HETATM   17  C   UNL     1     -10.506  19.634  65.607  1.00  0.00    -0.349 C  
HETATM   18  N   UNL     1     -10.128  19.370  69.068  1.00  0.00    -0.409 NA 
HETATM   19  N   UNL     1     -10.883  19.370  67.977  1.00  0.00    -0.237 NA 
HETATM   20  N   UNL     1     -10.028  19.558  66.958  1.00  0.00    -0.352 NA 
ENDBRANCH  14  15
ENDBRANCH  13  14
ENDBRANCH   4  13
BRANCH   5  21
HETATM   21  O   UNL     1      -5.980  12.569  68.709  1.00  0.00    -0.061 OA 
HETATM   22  C   UNL     1      -6.304  11.648  69.740  1.00  0.00    -0.134 C  
ENDBRANCH   5  21
BRANCH   5  23
HETATM   23  N   UNL     1      -8.197  13.690  68.564  1.00  0.00    -0.231 N  
HETATM   24  C   UNL     1     -10.536  14.405  68.838  1.00  0.00    -0.246 C  
HETATM   25  C   UNL     1      -9.047  14.698  68.971  1.00  0.00    -0.097 C  
HETATM   26  O   UNL     1      -8.643  15.790  69.371  1.00  0.00    -0.251 OA 
HETATM   27  H   UNL     1      -8.589  12.837  68.168  1.00  0.00     0.000 HD 
HETATM   28  C   UNL     1     -11.413  15.219  69.779  1.00  0.00    -0.313 C  
HETATM   29  C   UNL     1     -11.033  14.500  67.396  1.00  0.00    -0.306 A  
HETATM   30  C   UNL     1     -12.143  13.733  66.994  1.00  0.00    -0.436 A  
HETATM   31  O   UNL     1     -12.521  14.830  70.135  1.00  0.00    -0.329 OA 
HETATM   32  O   UNL     1     -10.936  16.417  70.185  1.00  0.00    -0.349 OA 
HETATM   33  C   UNL     1     -12.586  13.752  65.668  1.00  0.00    -0.551 A  
HETATM   34  C   UNL     1     -11.926  14.544  64.738  1.00  0.00    -0.442 A  
HETATM   35  C   UNL     1     -10.868  15.355  65.123  1.00  0.00    -0.447 A  
HETATM   36  O   UNL     1     -12.286  14.552  63.424  1.00  0.00    -1.064 OA 
HETATM   37  H   UNL     1     -11.835  15.094  62.787  1.00  0.00     0.000 HD 
HETATM   38  C   UNL     1     -10.429  15.345  66.449  1.00  0.00    -0.307 A  
ENDBRANCH   5  23
TORSDOF 5
ENDMDL
MODEL       17
REMARK 921   NORMALIZED FREE ENERGY PREDICTED BY IDOCK:   -6.62 KCAL/MOL
REMARK 922        TOTAL FREE ENERGY PREDICTED BY IDOCK:   -9.90 KCAL/MOL
REMARK 923 INTER-LIGAND FREE ENERGY PREDICTED BY IDOCK:   -9.23 KCAL/MOL
REMARK 924 INTRA-LIGAND FREE ENERGY PREDICTED BY IDOCK:   -0.66 KCAL/MOL
REMARK 927      BINDING AFFINITY PREDICTED BY RF-SCORE:    0.00 PKD
ROOT
HETATM    1  C   UNL     1     -10.824  13.270  67.424  1.00  0.00    -0.267 C  
HETATM    2  O   UNL     1      -9.499  13.813  67.533  1.00  0.00    -0.208 OA 
HETATM    3  C   UNL     1      -9.508  15.240  67.592  1.00  0.00    -0.205 C  
HETATM    4  C   UNL     1     -10.349  15.833  66.469  1.00  0.00    -0.298 C  
HETATM    5  C   UNL     1     -11.017  11.824  66.794  1.00  0.00    -0.288 C  
HETATM    6  C   UNL     1     -11.256  15.069  65.797  1.00  0.00    -0.318 C  
HETATM    7  N   UNL     1     -11.551  13.816  66.287  1.00  0.00    -0.336 N  
HETATM    8  C   UNL     1     -11.903  15.574  64.527  1.00  0.00    -0.216 C  
HETATM    9  O   UNL     1     -11.519  16.563  63.917  1.00  0.00    -1.145 OA 
HETATM   10  O   UNL     1     -12.981  14.892  64.097  1.00  0.00    -0.537 OA 
HETATM   11  O   UNL     1     -12.330  12.429  64.603  1.00  0.00    -0.452 OA 
HETATM   12  C   UNL     1     -11.794  12.640  65.669  1.00  0.00    -0.437 C  
ENDROOT
BRANCH   4  13
HETATM   13  C   UNL     1      -9.946  17.264  66.156  1.00  0.00    -0.275 C  
BRANCH  13  14
HETATM   14  S   UNL     1     -10.401  18.486  67.418  1.00  0.00    -0.417 SA 
BRANCH  14  15
HETATM   15  C   UNL     1      -9.020  19.502  67.529  1.00  0.00    -0.306 A  
HETATM   16  N   UNL     1      -8.855  20.698  67.016  1.00  0.00    -0.235 NA 
HETATM   17  C   UNL     1      -7.564  17.954  68.915  1.00  0.00    -0.217 C  
HETATM   18  N   UNL     1      -7.573  21.071  67.342  1.00  0.00    -0.335 NA 
HETATM   19  N   UNL     1      -6.966  20.128  68.050  1.00  0.00    -0.282 NA 
HETATM   20  N   UNL     1      -7.874  19.145  68.178  1.00  0.00    -0.289 NA 
ENDBRANCH  14  15
ENDBRANCH  13  14
ENDBRANCH   4  13
BRANCH   5  21
HETATM   21  O   UNL     1     -11.875  10.925  67.547  1.00  0.00    -0.524 OA 
HETATM   22  C   UNL     1     -12.158  11.278  68.893  1.00  0.00    -0.224 C  
ENDBRANCH   5  21
BRANCH   5  23
HETATM   23  N   UNL     1      -9.731  11.218  66.317  1.00  0.00    -0.209 N  
HETATM   24  C   UNL     1      -7.512  10.190  66.588  1.00  0.00    -0.106 C  
HETATM   25  C   UNL     1      -8.798  10.724  67.205  1.00  0.00    -0.133 C  
HETATM   26  O   UNL     1      -8.999  10.665  68.419  1.00  0.00    -0.136 OA 
HETATM   27  H   UNL     1      -9.543  11.170  65.317  1.00  0.00     0.000 HD 
HETATM   28  C   UNL     1      -6.321  10.200  67.536  1.00  0.00    -0.059 C  
HETATM   29  C   UNL     1      -7.690   8.820  65.937  1.00  0.00    -0.094 A  
HETATM   30  C   UNL     1      -6.857   8.450  64.864  1.00  0.00    -0.071 A  
HETATM   31  O   UNL     1      -5.165  10.244  67.127  1.00  0.00    -0.040 OA 
HETATM   32  O   UNL     1      -6.585  10.122  68.859  1.00  0.00    -0.048 OA 
HETATM   33  C   UNL     1      -7.033   7.228  64.207  1.00  0.00    -0.056 A  
HETATM   34  C   UNL     1      -8.038   6.365  64.624  1.00  0.00    -0.100 A  
HETATM   35  C   UNL     1      -8.832   6.682  65.719  1.00  0.00    -0.093 A  
HETATM   36  O   UNL     1      -8.284   5.190  63.981  1.00  0.00    -0.119 OA 
HETATM   37  H   UNL     1      -8.972   4.600  64.267  1.00  0.00     0.000 HD 
HETATM   38  C   UNL     1      -8.652   7.897  66.382  1.00  0.00    -0.156 A  
ENDBRANCH   5  23
TORSDOF 5
ENDMDL
MODEL       18
REMARK 921   NORMALIZED FREE ENERGY PREDICTED BY IDOCK:   -6.54 KCAL/MOL
REMARK 922        TOTAL FREE ENERGY PREDICTED BY IDOCK:   -9.80 KCAL/MOL
REMARK 923 INTER-LIGAND FREE ENERGY PREDICTED BY IDOCK:   -8.50 KCAL/MOL
REMARK 924 INTRA-LIGAND FREE ENERGY PREDICTED BY IDOCK:   -1.30 KCAL/MOL
REMARK 927      BINDING AFFINITY PREDICTED BY RF-SCORE:    0.00 PKD
ROOT
HETATM    1  C   UNL     1      -6.835  10.216  65.346  1.00  0.00    -0.128 C  
HETATM    2  O   UNL     1      -6.451  11.131  66.383  1.00  0.00    -0.128 OA 
HETATM    3  C   UNL     1      -5.507  10.552  67.287  1.00  0.00    -0.041 C  
HETATM    4  C   UNL     1      -5.982   9.191  67.782  1.00  0.00    -0.049 C  
HETATM    5  C   UNL     1      -8.227  10.424  64.609  1.00  0.00    -0.137 C  
HETATM    6  C   UNL     1      -6.957   8.508  67.118  1.00  0.00    -0.075 C  
HETATM    7  N   UNL     1      -7.354   8.964  65.881  1.00  0.00    -0.091 N  
HETATM    8  C   UNL     1      -7.607   7.291  67.738  1.00  0.00    -0.110 C  
HETATM    9  O   UNL     1      -7.472   6.974  68.912  1.00  0.00    -0.091 OA 
HETATM   10  O   UNL     1      -8.337   6.520  66.909  1.00  0.00    -0.112 OA 
HETATM   11  O   UNL     1      -9.511   8.273  65.394  1.00  0.00     0.114 OA 
HETATM   12  C   UNL     1      -8.566   9.024  65.287  1.00  0.00    -0.174 C  
ENDROOT
BRANCH   4  13
HETATM   13  C   UNL     1      -5.339   8.816  69.105  1.00  0.00    -0.036 C  
BRANCH  13  14
HETATM   14  S   UNL     1      -5.493  10.059  70.418  1.00  0.00    -0.058 SA 
BRANCH  14  15
HETATM   15  C   UNL     1      -6.726   9.435  71.438  1.00  0.00     0.055 A  
HETATM   16  N   UNL     1      -6.591   8.876  72.618  1.00  0.00    -0.302 NA 
HETATM   17  C   UNL     1      -8.706   9.941  69.936  1.00  0.00    -0.201 C  
HETATM   18  N   UNL     1      -7.857   8.504  73.003  1.00  0.00    -0.374 NA 
HETATM   19  N   UNL     1      -8.753   8.836  72.082  1.00  0.00    -0.391 NA 
HETATM   20  N   UNL     1      -8.049   9.428  71.103  1.00  0.00    -0.314 NA 
ENDBRANCH  14  15
ENDBRANCH  13  14
ENDBRANCH   4  13
BRANCH   5  21
HETATM   21  O   UNL     1      -8.181  10.363  63.158  1.00  0.00    -0.158 OA 
HETATM   22  C   UNL     1      -8.327   9.082  62.562  1.00  0.00    -0.195 C  
ENDBRANCH   5  21
BRANCH   5  23
HETATM   23  N   UNL     1      -9.019  11.569  65.167  1.00  0.00    -0.402 N  
HETATM   24  C   UNL     1     -11.008  12.996  65.417  1.00  0.00    -0.297 C  
HETATM   25  C   UNL     1     -10.341  11.761  64.825  1.00  0.00    -0.288 C  
HETATM   26  O   UNL     1     -10.971  10.967  64.126  1.00  0.00    -0.314 OA 
HETATM   27  H   UNL     1      -8.571  12.218  65.813  1.00  0.00     0.000 HD 
HETATM   28  C   UNL     1     -12.200  13.500  64.616  1.00  0.00    -0.406 C  
HETATM   29  C   UNL     1     -11.363  12.827  66.894  1.00  0.00    -0.371 A  
HETATM   30  C   UNL     1     -11.420  13.961  67.726  1.00  0.00    -0.354 A  
HETATM   31  O   UNL     1     -12.566  14.670  64.662  1.00  0.00    -0.573 OA 
HETATM   32  O   UNL     1     -12.870  12.593  63.872  1.00  0.00    -0.702 OA 
HETATM   33  C   UNL     1     -11.683  13.836  69.094  1.00  0.00    -0.379 A  
HETATM   34  C   UNL     1     -11.900  12.576  69.635  1.00  0.00    -0.314 A  
HETATM   35  C   UNL     1     -11.911  11.449  68.824  1.00  0.00    -0.388 A  
HETATM   36  O   UNL     1     -12.106  12.397  70.970  1.00  0.00    -0.398 OA 
HETATM   37  H   UNL     1     -12.255  11.535  71.341  1.00  0.00     0.000 HD 
HETATM   38  C   UNL     1     -11.656  11.574  67.456  1.00  0.00    -0.322 A  
ENDBRANCH   5  23
TORSDOF 5
ENDMDL
MODEL       19
REMARK 921   NORMALIZED FREE ENERGY PREDICTED BY IDOCK:   -6.54 KCAL/MOL
REMARK 922        TOTAL FREE ENERGY PREDICTED BY IDOCK:   -9.80 KCAL/MOL
REMARK 923 INTER-LIGAND FREE ENERGY PREDICTED BY IDOCK:   -8.80 KCAL/MOL
REMARK 924 INTRA-LIGAND FREE ENERGY PREDICTED BY IDOCK:   -0.99 KCAL/MOL
REMARK 927      BINDING AFFINITY PREDICTED BY RF-SCORE:    0.00 PKD
ROOT
HETATM    1  C   UNL     1      -8.218   9.017  67.037  1.00  0.00    -0.109 C  
HETATM    2  O   UNL     1      -9.579   8.734  66.678  1.00  0.00    -0.181 OA 
HETATM    3  C   UNL     1     -10.140   9.758  65.854  1.00  0.00    -0.243 C  
HETATM    4  C   UNL     1      -9.914  11.138  66.460  1.00  0.00    -0.252 C  
HETATM    5  C   UNL     1      -7.611   8.352  68.346  1.00  0.00    -0.097 C  
HETATM    6  C   UNL     1      -8.967  11.333  67.421  1.00  0.00    -0.144 C  
HETATM    7  N   UNL     1      -8.078  10.315  67.683  1.00  0.00    -0.106 N  
HETATM    8  C   UNL     1      -8.912  12.626  68.201  1.00  0.00    -0.199 C  
HETATM    9  O   UNL     1      -9.802  13.467  68.186  1.00  0.00    -0.222 OA 
HETATM   10  O   UNL     1      -7.789  12.846  68.911  1.00  0.00    -0.012 OA 
HETATM   11  O   UNL     1      -7.235  10.482  69.834  1.00  0.00    -0.149 OA 
HETATM   12  C   UNL     1      -7.534   9.865  68.835  1.00  0.00    -0.081 C  
ENDROOT
BRANCH   4  13
HETATM   13  C   UNL     1     -10.929  12.150  65.954  1.00  0.00    -0.292 C  
BRANCH  13  14
HETATM   14  S   UNL     1     -10.667  12.718  64.251  1.00  0.00    -0.417 SA 
BRANCH  14  15
HETATM   15  C   UNL     1     -11.328  14.303  64.237  1.00  0.00    -0.184 A  
HETATM   16  N   UNL     1     -12.466  14.699  63.715  1.00  0.00    -0.742 NA 
HETATM   17  C   UNL     1      -9.446  15.473  65.471  1.00  0.00    -0.133 C  
HETATM   18  N   UNL     1     -12.520  16.057  63.921  1.00  0.00    -0.612 NA 
HETATM   19  N   UNL     1     -11.441  16.485  64.564  1.00  0.00    -0.784 NA 
HETATM   20  N   UNL     1     -10.696  15.387  64.772  1.00  0.00    -0.383 NA 
ENDBRANCH  14  15
ENDBRANCH  13  14
ENDBRANCH   4  13
BRANCH   5  21
HETATM   21  O   UNL     1      -6.306   7.734  68.185  1.00  0.00    -0.046 OA 
HETATM   22  C   UNL     1      -5.827   7.575  66.858  1.00  0.00    -0.039 C  
ENDBRANCH   5  21
BRANCH   5  23
HETATM   23  N   UNL     1      -8.611   7.528  69.101  1.00  0.00    -0.136 N  
HETATM   24  C   UNL     1      -9.449   6.247  71.028  1.00  0.00    -0.187 C  
HETATM   25  C   UNL     1      -8.377   7.129  70.401  1.00  0.00    -0.128 C  
HETATM   26  O   UNL     1      -7.393   7.496  71.044  1.00  0.00    -0.069 OA 
HETATM   27  H   UNL     1      -9.482   7.257  68.645  1.00  0.00     0.000 HD 
HETATM   28  C   UNL     1      -8.943   5.374  72.168  1.00  0.00    -0.133 C  
HETATM   29  C   UNL     1     -10.695   7.029  71.440  1.00  0.00    -0.241 A  
HETATM   30  C   UNL     1     -11.943   6.378  71.470  1.00  0.00    -0.331 A  
HETATM   31  O   UNL     1      -9.498   4.326  72.480  1.00  0.00    -0.124 OA 
HETATM   32  O   UNL     1      -7.867   5.820  72.855  1.00  0.00    -0.103 OA 
HETATM   33  C   UNL     1     -13.111   7.078  71.785  1.00  0.00    -0.343 A  
HETATM   34  C   UNL     1     -13.037   8.434  72.079  1.00  0.00    -0.352 A  
HETATM   35  C   UNL     1     -11.811   9.084  72.115  1.00  0.00    -0.384 A  
HETATM   36  O   UNL     1     -14.154   9.171  72.337  1.00  0.00    -0.493 OA 
HETATM   37  H   UNL     1     -14.103  10.098  72.539  1.00  0.00     0.000 HD 
HETATM   38  C   UNL     1     -10.642   8.383  71.810  1.00  0.00    -0.352 A  
ENDBRANCH   5  23
TORSDOF 5
ENDMDL
MODEL       20
REMARK 921   NORMALIZED FREE ENERGY PREDICTED BY IDOCK:   -6.53 KCAL/MOL
REMARK 922        TOTAL FREE ENERGY PREDICTED BY IDOCK:   -9.79 KCAL/MOL
REMARK 923 INTER-LIGAND FREE ENERGY PREDICTED BY IDOCK:   -8.29 KCAL/MOL
REMARK 924 INTRA-LIGAND FREE ENERGY PREDICTED BY IDOCK:   -1.50 KCAL/MOL
REMARK 927      BINDING AFFINITY PREDICTED BY RF-SCORE:    0.00 PKD
ROOT
HETATM    1  C   UNL     1      -7.419  10.580  68.475  1.00  0.00    -0.091 C  
HETATM    2  O   UNL     1      -7.512  10.740  69.899  1.00  0.00    -0.098 OA 
HETATM    3  C   UNL     1      -7.525   9.484  70.580  1.00  0.00    -0.148 C  
HETATM    4  C   UNL     1      -8.558   8.541  69.976  1.00  0.00    -0.134 C  
HETATM    5  C   UNL     1      -7.943  11.745  67.531  1.00  0.00    -0.148 C  
HETATM    6  C   UNL     1      -9.065   8.765  68.731  1.00  0.00    -0.138 C  
HETATM    7  N   UNL     1      -8.478   9.732  67.946  1.00  0.00    -0.124 N  
HETATM    8  C   UNL     1     -10.264   7.989  68.234  1.00  0.00    -0.205 C  
HETATM    9  O   UNL     1     -10.969   7.294  68.954  1.00  0.00    -0.139 OA 
HETATM   10  O   UNL     1     -10.515   8.063  66.913  1.00  0.00    -0.330 OA 
HETATM   11  O   UNL     1      -9.972  10.546  66.375  1.00  0.00    -0.202 OA 
HETATM   12  C   UNL     1      -8.998  10.637  67.089  1.00  0.00    -0.136 C  
ENDROOT
BRANCH   4  13
HETATM   13  C   UNL     1      -8.993   7.472  70.965  1.00  0.00    -0.147 C  
BRANCH  13  14
HETATM   14  S   UNL     1      -9.708   8.098  72.510  1.00  0.00    -0.303 SA 
BRANCH  14  15
HETATM   15  C   UNL     1     -11.330   8.480  72.092  1.00  0.00    -0.372 A  
HETATM   16  N   UNL     1     -11.852   9.666  71.882  1.00  0.00    -0.314 NA 
HETATM   17  C   UNL     1     -12.243   6.113  72.053  1.00  0.00    -0.134 C  
HETATM   18  N   UNL     1     -13.184   9.448  71.625  1.00  0.00    -0.375 NA 
HETATM   19  N   UNL     1     -13.473   8.154  71.665  1.00  0.00    -0.341 NA 
HETATM   20  N   UNL     1     -12.311   7.542  71.949  1.00  0.00    -0.310 NA 
ENDBRANCH  14  15
ENDBRANCH  13  14
ENDBRANCH   4  13
BRANCH   5  21
HETATM   21  O   UNL     1      -7.041  12.137  66.462  1.00  0.00     0.124 OA 
HETATM   22  C   UNL     1      -5.736  11.575  66.481  1.00  0.00    -0.113 C  
ENDBRANCH   5  21
BRANCH   5  23
HETATM   23  N   UNL     1      -8.553  12.884  68.291  1.00  0.00    -0.213 N  
HETATM   24  C   UNL     1      -9.913  14.918  68.556  1.00  0.00    -0.223 C  
HETATM   25  C   UNL     1      -9.414  13.774  67.683  1.00  0.00    -0.217 C  
HETATM   26  O   UNL     1      -9.804  13.637  66.523  1.00  0.00    -0.276 OA 
HETATM   27  H   UNL     1      -8.326  13.005  69.278  1.00  0.00     0.000 HD 
HETATM   28  C   UNL     1     -10.352  16.148  67.773  1.00  0.00    -0.283 C  
HETATM   29  C   UNL     1     -10.988  14.481  69.550  1.00  0.00    -0.253 A  
HETATM   30  C   UNL     1     -11.134  15.178  70.764  1.00  0.00    -0.293 A  
HETATM   31  O   UNL     1     -10.350  17.269  68.270  1.00  0.00    -0.319 OA 
HETATM   32  O   UNL     1     -10.783  15.951  66.508  1.00  0.00    -0.309 OA 
HETATM   33  C   UNL     1     -12.067  14.767  71.720  1.00  0.00    -0.417 A  
HETATM   34  C   UNL     1     -12.866  13.661  71.465  1.00  0.00    -0.359 A  
HETATM   35  C   UNL     1     -12.783  12.994  70.250  1.00  0.00     0.022 A  
HETATM   36  O   UNL     1     -13.751  13.189  72.388  1.00  0.00    -0.581 OA 
HETATM   37  H   UNL     1     -14.297  12.432  72.213  1.00  0.00     0.000 HD 
HETATM   38  C   UNL     1     -11.858  13.408  69.290  1.00  0.00    -0.385 A  
ENDBRANCH   5  23
TORSDOF 5
ENDMDL
MODEL       21
REMARK 921   NORMALIZED FREE ENERGY PREDICTED BY IDOCK:   -6.50 KCAL/MOL
REMARK 922        TOTAL FREE ENERGY PREDICTED BY IDOCK:   -9.74 KCAL/MOL
REMARK 923 INTER-LIGAND FREE ENERGY PREDICTED BY IDOCK:   -9.01 KCAL/MOL
REMARK 924 INTRA-LIGAND FREE ENERGY PREDICTED BY IDOCK:   -0.73 KCAL/MOL
REMARK 927      BINDING AFFINITY PREDICTED BY RF-SCORE:    0.00 PKD
ROOT
HETATM    1  C   UNL     1      -9.092   7.693  66.984  1.00  0.00    -0.135 C  
HETATM    2  O   UNL     1     -10.382   8.307  66.843  1.00  0.00    -0.298 OA 
HETATM    3  C   UNL     1     -10.317   9.526  66.101  1.00  0.00    -0.118 C  
HETATM    4  C   UNL     1      -9.231  10.445  66.646  1.00  0.00    -0.178 C  
HETATM    5  C   UNL     1      -8.841   6.693  68.193  1.00  0.00    -0.119 C  
HETATM    6  C   UNL     1      -8.241   9.958  67.447  1.00  0.00    -0.118 C  
HETATM    7  N   UNL     1      -8.117   8.594  67.583  1.00  0.00    -0.106 N  
HETATM    8  C   UNL     1      -7.318  10.896  68.192  1.00  0.00    -0.089 C  
HETATM    9  O   UNL     1      -7.517  12.099  68.303  1.00  0.00    -0.092 OA 
HETATM   10  O   UNL     1      -6.207  10.344  68.718  1.00  0.00    -0.047 OA 
HETATM   11  O   UNL     1      -7.069   8.049  69.576  1.00  0.00    -0.056 OA 
HETATM   12  C   UNL     1      -7.807   7.816  68.643  1.00  0.00    -0.120 C  
ENDROOT
BRANCH   4  13
HETATM   13  C   UNL     1      -9.489  11.899  66.290  1.00  0.00    -0.227 C  
BRANCH  13  14
HETATM   14  S   UNL     1     -11.126  12.528  66.756  1.00  0.00    -0.295 SA 
BRANCH  14  15
HETATM   15  C   UNL     1     -11.899  12.829  65.252  1.00  0.00    -0.403 A  
HETATM   16  N   UNL     1     -12.672  12.020  64.566  1.00  0.00    -0.445 NA 
HETATM   17  C   UNL     1     -11.047  15.191  64.893  1.00  0.00    -0.414 C  
HETATM   18  N   UNL     1     -13.002  12.701  63.419  1.00  0.00    -0.529 NA 
HETATM   19  N   UNL     1     -12.450  13.908  63.405  1.00  0.00    -0.791 NA 
HETATM   20  N   UNL     1     -11.765  13.995  64.557  1.00  0.00    -0.399 NA 
ENDBRANCH  14  15
ENDBRANCH  13  14
ENDBRANCH   4  13
BRANCH   5  21
HETATM   21  O   UNL     1      -8.205   5.435  67.841  1.00  0.00    -0.100 OA 
HETATM   22  C   UNL     1      -9.059   4.330  67.585  1.00  0.00    -0.134 C  
ENDBRANCH   5  21
BRANCH   5  23
HETATM   23  N   UNL     1     -10.025   6.568  69.104  1.00  0.00    -0.143 N  
HETATM   24  C   UNL     1     -11.159   6.138  71.245  1.00  0.00    -0.351 C  
HETATM   25  C   UNL     1      -9.872   6.298  70.448  1.00  0.00    -0.176 C  
HETATM   26  O   UNL     1      -8.769   6.237  70.994  1.00  0.00    -0.134 OA 
HETATM   27  H   UNL     1     -10.964   6.684  68.723  1.00  0.00     0.000 HD 
HETATM   28  C   UNL     1     -11.005   5.305  72.510  1.00  0.00    -0.240 C  
HETATM   29  C   UNL     1     -11.843   7.472  71.541  1.00  0.00    -0.324 A  
HETATM   30  C   UNL     1     -13.240   7.511  71.714  1.00  0.00    -0.364 A  
HETATM   31  O   UNL     1     -11.951   4.708  73.015  1.00  0.00    -0.125 OA 
HETATM   32  O   UNL     1      -9.781   5.274  73.083  1.00  0.00    -0.144 OA 
HETATM   33  C   UNL     1     -13.904   8.723  71.927  1.00  0.00    -0.491 A  
HETATM   34  C   UNL     1     -13.174   9.903  71.975  1.00  0.00    -0.456 A  
HETATM   35  C   UNL     1     -11.790   9.883  71.868  1.00  0.00    -0.096 A  
HETATM   36  O   UNL     1     -13.781  11.114  72.124  1.00  0.00    -0.383 OA 
HETATM   37  H   UNL     1     -13.281  11.921  72.157  1.00  0.00     0.000 HD 
HETATM   38  C   UNL     1     -11.124   8.673  71.665  1.00  0.00    -0.375 A  
ENDBRANCH   5  23
TORSDOF 5
ENDMDL
MODEL       22
REMARK 921   NORMALIZED FREE ENERGY PREDICTED BY IDOCK:   -6.49 KCAL/MOL
REMARK 922        TOTAL FREE ENERGY PREDICTED BY IDOCK:   -9.74 KCAL/MOL
REMARK 923 INTER-LIGAND FREE ENERGY PREDICTED BY IDOCK:   -8.49 KCAL/MOL
REMARK 924 INTRA-LIGAND FREE ENERGY PREDICTED BY IDOCK:   -1.25 KCAL/MOL
REMARK 927      BINDING AFFINITY PREDICTED BY RF-SCORE:    0.00 PKD
ROOT
HETATM    1  C   UNL     1      -7.931   9.013  69.004  1.00  0.00    -0.102 C  
HETATM    2  O   UNL     1      -8.509   9.586  70.186  1.00  0.00    -0.171 OA 
HETATM    3  C   UNL     1      -8.471   8.684  71.294  1.00  0.00    -0.179 C  
HETATM    4  C   UNL     1      -9.027   7.318  70.912  1.00  0.00    -0.150 C  
HETATM    5  C   UNL     1      -8.361   9.576  67.582  1.00  0.00    -0.125 C  
HETATM    6  C   UNL     1      -9.142   6.952  69.604  1.00  0.00    -0.143 C  
HETATM    7  N   UNL     1      -8.556   7.747  68.644  1.00  0.00    -0.129 N  
HETATM    8  C   UNL     1      -9.921   5.717  69.212  1.00  0.00    -0.189 C  
HETATM    9  O   UNL     1     -10.654   5.106  69.978  1.00  0.00    -0.285 OA 
HETATM   10  O   UNL     1      -9.743   5.275  67.952  1.00  0.00    -0.129 OA 
HETATM   11  O   UNL     1      -9.603   7.485  66.595  1.00  0.00    -0.187 OA 
HETATM   12  C   UNL     1      -8.954   8.109  67.405  1.00  0.00    -0.137 C  
ENDROOT
BRANCH   4  13
HETATM   13  C   UNL     1      -9.516   6.548  72.125  1.00  0.00    -0.148 C  
BRANCH  13  14
HETATM   14  S   UNL     1     -10.634   7.465  73.221  1.00  0.00    -0.378 SA 
BRANCH  14  15
HETATM   15  C   UNL     1     -12.098   7.568  72.328  1.00  0.00    -0.230 A  
HETATM   16  N   UNL     1     -13.020   6.645  72.181  1.00  0.00    -0.107 NA 
HETATM   17  C   UNL     1     -11.818   9.941  71.477  1.00  0.00    -0.365 C  
HETATM   18  N   UNL     1     -13.965   7.191  71.345  1.00  0.00    -0.330 NA 
HETATM   19  N   UNL     1     -13.635   8.427  70.994  1.00  0.00     0.037 NA 
HETATM   20  N   UNL     1     -12.470   8.671  71.616  1.00  0.00    -0.321 NA 
ENDBRANCH  14  15
ENDBRANCH  13  14
ENDBRANCH   4  13
BRANCH   5  21
HETATM   21  O   UNL     1      -7.269   9.868  66.670  1.00  0.00    -0.088 OA 
HETATM   22  C   UNL     1      -7.596  10.007  65.295  1.00  0.00    -0.137 C  
ENDBRANCH   5  21
BRANCH   5  23
HETATM   23  N   UNL     1      -9.412  10.642  67.670  1.00  0.00    -0.153 N  
HETATM   24  C   UNL     1     -10.251  12.925  68.043  1.00  0.00    -0.229 C  
HETATM   25  C   UNL     1      -9.081  11.958  67.921  1.00  0.00    -0.183 C  
HETATM   26  O   UNL     1      -7.916  12.349  67.996  1.00  0.00    -0.134 OA 
HETATM   27  H   UNL     1     -10.392  10.390  67.540  1.00  0.00     0.000 HD 
HETATM   28  C   UNL     1      -9.941  14.172  68.860  1.00  0.00    -0.127 C  
HETATM   29  C   UNL     1     -10.865  13.287  66.691  1.00  0.00    -0.289 A  
HETATM   30  C   UNL     1     -12.224  13.648  66.622  1.00  0.00    -0.437 A  
HETATM   31  O   UNL     1     -10.819  14.811  69.429  1.00  0.00    -0.247 OA 
HETATM   32  O   UNL     1      -8.651  14.573  68.905  1.00  0.00    -0.163 OA 
HETATM   33  C   UNL     1     -12.831  13.927  65.394  1.00  0.00    -0.466 A  
HETATM   34  C   UNL     1     -12.081  13.853  64.228  1.00  0.00    -0.440 A  
HETATM   35  C   UNL     1     -10.724  13.559  64.277  1.00  0.00    -0.324 A  
HETATM   36  O   UNL     1     -12.641  14.062  63.003  1.00  0.00    -1.027 OA 
HETATM   37  H   UNL     1     -12.127  14.012  62.206  1.00  0.00     0.000 HD 
HETATM   38  C   UNL     1     -10.114  13.289  65.503  1.00  0.00    -0.274 A  
ENDBRANCH   5  23
TORSDOF 5
ENDMDL
MODEL       23
REMARK 921   NORMALIZED FREE ENERGY PREDICTED BY IDOCK:   -6.48 KCAL/MOL
REMARK 922        TOTAL FREE ENERGY PREDICTED BY IDOCK:   -9.72 KCAL/MOL
REMARK 923 INTER-LIGAND FREE ENERGY PREDICTED BY IDOCK:   -9.44 KCAL/MOL
REMARK 924 INTRA-LIGAND FREE ENERGY PREDICTED BY IDOCK:   -0.28 KCAL/MOL
REMARK 927      BINDING AFFINITY PREDICTED BY RF-SCORE:    0.00 PKD
ROOT
HETATM    1  C   UNL     1      -7.633  10.505  69.293  1.00  0.00    -0.134 C  
HETATM    2  O   UNL     1      -7.321  10.465  67.893  1.00  0.00    -0.085 OA 
HETATM    3  C   UNL     1      -7.803  11.620  67.203  1.00  0.00    -0.163 C  
HETATM    4  C   UNL     1      -9.270  11.878  67.520  1.00  0.00    -0.177 C  
HETATM    5  C   UNL     1      -7.706   9.143  70.108  1.00  0.00    -0.105 C  
HETATM    6  C   UNL     1      -9.859  11.311  68.611  1.00  0.00    -0.202 C  
HETATM    7  N   UNL     1      -9.059  10.675  69.534  1.00  0.00    -0.049 N  
HETATM    8  C   UNL     1     -11.360  11.355  68.789  1.00  0.00    -0.271 C  
HETATM    9  O   UNL     1     -12.139  11.690  67.907  1.00  0.00    -0.613 OA 
HETATM   10  O   UNL     1     -11.824  11.035  70.013  1.00  0.00    -0.290 OA 
HETATM   11  O   UNL     1     -10.258   9.085  70.716  1.00  0.00    -0.207 OA 
HETATM   12  C   UNL     1      -9.237   9.550  70.260  1.00  0.00    -0.258 C  
ENDROOT
BRANCH   4  13
HETATM   13  C   UNL     1      -9.947  12.697  66.434  1.00  0.00    -0.255 C  
BRANCH  13  14
HETATM   14  S   UNL     1     -10.145  14.461  66.809  1.00  0.00    -0.272 SA 
BRANCH  14  15
HETATM   15  C   UNL     1     -10.994  15.081  65.451  1.00  0.00    -0.373 A  
HETATM   16  N   UNL     1     -10.791  16.214  64.820  1.00  0.00    -0.669 NA 
HETATM   17  C   UNL     1     -12.637  13.169  65.168  1.00  0.00    -0.465 C  
HETATM   18  N   UNL     1     -11.751  16.274  63.839  1.00  0.00    -0.978 NA 
HETATM   19  N   UNL     1     -12.524  15.195  63.860  1.00  0.00    -0.711 NA 
HETATM   20  N   UNL     1     -12.046  14.441  64.864  1.00  0.00    -0.420 NA 
ENDBRANCH  14  15
ENDBRANCH  13  14
ENDBRANCH   4  13
BRANCH   5  21
HETATM   21  O   UNL     1      -6.987   9.131  71.370  1.00  0.00    -0.194 OA 
HETATM   22  C   UNL     1      -5.659   9.634  71.361  1.00  0.00    -0.074 C  
ENDBRANCH   5  21
BRANCH   5  23
HETATM   23  N   UNL     1      -7.489   7.935  69.246  1.00  0.00    -0.090 N  
HETATM   24  C   UNL     1      -7.244   5.527  68.798  1.00  0.00    -0.070 C  
HETATM   25  C   UNL     1      -7.542   6.660  69.772  1.00  0.00    -0.104 C  
HETATM   26  O   UNL     1      -7.857   6.433  70.941  1.00  0.00    -0.103 OA 
HETATM   27  H   UNL     1      -7.298   8.057  68.252  1.00  0.00     0.000 HD 
HETATM   28  C   UNL     1      -6.744   4.253  69.465  1.00  0.00    -0.044 C  
HETATM   29  C   UNL     1      -8.407   5.238  67.851  1.00  0.00    -0.098 A  
HETATM   30  C   UNL     1      -8.146   4.696  66.578  1.00  0.00    -0.103 A  
HETATM   31  O   UNL     1      -6.055   3.434  68.868  1.00  0.00    -0.026 OA 
HETATM   32  O   UNL     1      -7.124   4.038  70.745  1.00  0.00    -0.033 OA 
HETATM   33  C   UNL     1      -9.181   4.475  65.665  1.00  0.00    -0.149 A  
HETATM   34  C   UNL     1     -10.486   4.787  66.023  1.00  0.00    -0.292 A  
HETATM   35  C   UNL     1     -10.776   5.265  67.294  1.00  0.00    -0.111 A  
HETATM   36  O   UNL     1     -11.521   4.642  65.149  1.00  0.00    -1.082 OA 
HETATM   37  H   UNL     1     -12.414   4.855  65.394  1.00  0.00     0.000 HD 
HETATM   38  C   UNL     1      -9.744   5.478  68.210  1.00  0.00    -0.167 A  
ENDBRANCH   5  23
TORSDOF 5
ENDMDL
MODEL       24
REMARK 921   NORMALIZED FREE ENERGY PREDICTED BY IDOCK:   -6.46 KCAL/MOL
REMARK 922        TOTAL FREE ENERGY PREDICTED BY IDOCK:   -9.70 KCAL/MOL
REMARK 923 INTER-LIGAND FREE ENERGY PREDICTED BY IDOCK:   -9.06 KCAL/MOL
REMARK 924 INTRA-LIGAND FREE ENERGY PREDICTED BY IDOCK:   -0.63 KCAL/MOL
REMARK 927      BINDING AFFINITY PREDICTED BY RF-SCORE:    0.00 PKD
ROOT
HETATM    1  C   UNL     1      -9.554  13.008  67.481  1.00  0.00    -0.204 C  
HETATM    2  O   UNL     1     -10.138  13.779  68.542  1.00  0.00    -0.230 OA 
HETATM    3  C   UNL     1      -9.767  15.157  68.468  1.00  0.00    -0.214 C  
HETATM    4  C   UNL     1      -8.259  15.316  68.322  1.00  0.00    -0.142 C  
HETATM    5  C   UNL     1      -9.362  11.443  67.679  1.00  0.00    -0.159 C  
HETATM    6  C   UNL     1      -7.484  14.271  67.916  1.00  0.00    -0.150 C  
HETATM    7  N   UNL     1      -8.104  13.137  67.440  1.00  0.00    -0.180 N  
HETATM    8  C   UNL     1      -5.976  14.344  68.013  1.00  0.00    -0.148 C  
HETATM    9  O   UNL     1      -5.377  15.211  68.635  1.00  0.00    -0.086 OA 
HETATM   10  O   UNL     1      -5.290  13.405  67.334  1.00  0.00    -0.337 OA 
HETATM   11  O   UNL     1      -6.742  11.280  67.686  1.00  0.00    -0.067 OA 
HETATM   12  C   UNL     1      -7.819  11.824  67.583  1.00  0.00    -0.138 C  
ENDROOT
BRANCH   4  13
HETATM   13  C   UNL     1      -7.786  16.680  68.794  1.00  0.00    -0.233 C  
BRANCH  13  14
HETATM   14  S   UNL     1      -7.359  17.847  67.472  1.00  0.00    -0.202 SA 
BRANCH  14  15
HETATM   15  C   UNL     1      -8.841  18.086  66.635  1.00  0.00    -0.266 A  
HETATM   16  N   UNL     1      -9.435  17.270  65.796  1.00  0.00    -0.527 NA 
HETATM   17  C   UNL     1      -9.379  20.395  67.539  1.00  0.00    -0.367 C  
HETATM   18  N   UNL     1     -10.560  17.931  65.364  1.00  0.00    -0.599 NA 
HETATM   19  N   UNL     1     -10.659  19.125  65.933  1.00  0.00    -0.471 NA 
HETATM   20  N   UNL     1      -9.588  19.223  66.738  1.00  0.00    -0.317 NA 
ENDBRANCH  14  15
ENDBRANCH  13  14
ENDBRANCH   4  13
BRANCH   5  21
HETATM   21  O   UNL     1      -9.817  10.613  66.577  1.00  0.00    -0.191 OA 
HETATM   22  C   UNL     1     -10.481  11.270  65.506  1.00  0.00    -0.265 C  
ENDBRANCH   5  21
BRANCH   5  23
HETATM   23  N   UNL     1      -9.780  10.970  69.039  1.00  0.00    -0.342 N  
HETATM   24  C   UNL     1     -11.376  10.161  70.729  1.00  0.00    -0.436 C  
HETATM   25  C   UNL     1     -11.073  10.559  69.290  1.00  0.00    -0.246 C  
HETATM   26  O   UNL     1     -11.926  10.467  68.407  1.00  0.00    -0.364 OA 
HETATM   27  H   UNL     1      -9.095  10.952  69.794  1.00  0.00     0.000 HD 
HETATM   28  C   UNL     1     -12.846  10.277  71.106  1.00  0.00    -0.408 C  
HETATM   29  C   UNL     1     -10.816   8.788  71.094  1.00  0.00    -0.335 A  
HETATM   30  C   UNL     1     -10.474   8.513  72.432  1.00  0.00    -0.367 A  
HETATM   31  O   UNL     1     -13.209  10.437  72.267  1.00  0.00    -0.400 OA 
HETATM   32  O   UNL     1     -13.750  10.158  70.108  1.00  0.00     0.282 OA 
HETATM   33  C   UNL     1      -9.904   7.287  72.791  1.00  0.00    -0.219 A  
HETATM   34  C   UNL     1      -9.679   6.326  71.814  1.00  0.00    -0.153 A  
HETATM   35  C   UNL     1     -10.064   6.551  70.499  1.00  0.00    -0.213 A  
HETATM   36  O   UNL     1      -9.076   5.140  72.105  1.00  0.00    -0.135 OA 
HETATM   37  H   UNL     1      -8.922   4.482  71.436  1.00  0.00     0.000 HD 
HETATM   38  C   UNL     1     -10.641   7.771  70.141  1.00  0.00    -0.237 A  
ENDBRANCH   5  23
TORSDOF 5
ENDMDL
MODEL       25
REMARK 921   NORMALIZED FREE ENERGY PREDICTED BY IDOCK:   -6.44 KCAL/MOL
REMARK 922        TOTAL FREE ENERGY PREDICTED BY IDOCK:   -9.67 KCAL/MOL
REMARK 923 INTER-LIGAND FREE ENERGY PREDICTED BY IDOCK:   -9.01 KCAL/MOL
REMARK 924 INTRA-LIGAND FREE ENERGY PREDICTED BY IDOCK:   -0.65 KCAL/MOL
REMARK 927      BINDING AFFINITY PREDICTED BY RF-SCORE:    0.00 PKD
ROOT
HETATM    1  C   UNL     1      -8.052   9.952  69.755  1.00  0.00    -0.176 C  
HETATM    2  O   UNL     1      -7.584   9.578  68.450  1.00  0.00    -0.081 OA 
HETATM    3  C   UNL     1      -7.805  10.609  67.486  1.00  0.00    -0.106 C  
HETATM    4  C   UNL     1      -9.245  11.104  67.528  1.00  0.00    -0.155 C  
HETATM    5  C   UNL     1      -8.422   8.812  70.799  1.00  0.00    -0.173 C  
HETATM    6  C   UNL     1     -10.037  10.856  68.609  1.00  0.00    -0.191 C  
HETATM    7  N   UNL     1      -9.456  10.339  69.745  1.00  0.00    -0.156 N  
HETATM    8  C   UNL     1     -11.526  11.117  68.553  1.00  0.00    -0.302 C  
HETATM    9  O   UNL     1     -12.135  11.348  67.517  1.00  0.00    -0.592 OA 
HETATM   10  O   UNL     1     -12.174  11.122  69.733  1.00  0.00    -0.315 OA 
HETATM   11  O   UNL     1     -11.010   9.192  71.024  1.00  0.00    -0.254 OA 
HETATM   12  C   UNL     1      -9.884   9.423  70.642  1.00  0.00    -0.276 C  
ENDROOT
BRANCH   4  13
HETATM   13  C   UNL     1      -9.659  11.748  66.216  1.00  0.00    -0.225 C  
BRANCH  13  14
HETATM   14  S   UNL     1      -9.650  13.563  66.212  1.00  0.00    -0.187 SA 
BRANCH  14  15
HETATM   15  C   UNL     1     -10.943  13.982  65.161  1.00  0.00    -0.353 A  
HETATM   16  N   UNL     1     -11.721  13.176  64.477  1.00  0.00    -0.352 NA 
HETATM   17  C   UNL     1     -10.778  16.502  65.401  1.00  0.00    -0.259 C  
HETATM   18  N   UNL     1     -12.562  13.991  63.758  1.00  0.00    -0.783 NA 
HETATM   19  N   UNL     1     -12.313  15.270  64.002  1.00  0.00    -0.643 NA 
HETATM   20  N   UNL     1     -11.303  15.269  64.888  1.00  0.00    -0.399 NA 
ENDBRANCH  14  15
ENDBRANCH  13  14
ENDBRANCH   4  13
BRANCH   5  21
HETATM   21  O   UNL     1      -7.869   8.982  72.131  1.00  0.00    -0.355 OA 
HETATM   22  C   UNL     1      -6.555   8.490  72.352  1.00  0.00    -0.082 C  
ENDBRANCH   5  21
BRANCH   5  23
HETATM   23  N   UNL     1      -8.285   7.432  70.230  1.00  0.00    -0.130 N  
HETATM   24  C   UNL     1      -8.791   5.030  70.052  1.00  0.00    -0.130 C  
HETATM   25  C   UNL     1      -9.076   6.391  70.672  1.00  0.00    -0.148 C  
HETATM   26  O   UNL     1      -9.992   6.547  71.481  1.00  0.00    -0.176 OA 
HETATM   27  H   UNL     1      -7.593   7.258  69.501  1.00  0.00     0.000 HD 
HETATM   28  C   UNL     1      -9.223   3.853  70.916  1.00  0.00    -0.129 C  
HETATM   29  C   UNL     1      -9.332   4.901  68.629  1.00  0.00    -0.182 A  
HETATM   30  C   UNL     1      -8.699   4.028  67.724  1.00  0.00    -0.119 A  
HETATM   31  O   UNL     1      -8.701   2.748  70.817  1.00  0.00    -0.067 OA 
HETATM   32  O   UNL     1     -10.240   4.065  71.781  1.00  0.00    -0.158 OA 
HETATM   33  C   UNL     1      -9.132   3.931  66.398  1.00  0.00    -0.150 A  
HETATM   34  C   UNL     1     -10.206   4.702  65.971  1.00  0.00    -0.277 A  
HETATM   35  C   UNL     1     -10.884   5.524  66.861  1.00  0.00    -0.224 A  
HETATM   36  O   UNL     1     -10.629   4.683  64.676  1.00  0.00    -0.446 OA 
HETATM   37  H   UNL     1     -11.364   5.210  64.384  1.00  0.00     0.000 HD 
HETATM   38  C   UNL     1     -10.459   5.615  68.188  1.00  0.00    -0.260 A  
ENDBRANCH   5  23
TORSDOF 5
ENDMDL
MODEL       26
REMARK 921   NORMALIZED FREE ENERGY PREDICTED BY IDOCK:   -6.38 KCAL/MOL
REMARK 922        TOTAL FREE ENERGY PREDICTED BY IDOCK:   -9.59 KCAL/MOL
REMARK 923 INTER-LIGAND FREE ENERGY PREDICTED BY IDOCK:   -8.73 KCAL/MOL
REMARK 924 INTRA-LIGAND FREE ENERGY PREDICTED BY IDOCK:   -0.86 KCAL/MOL
REMARK 927      BINDING AFFINITY PREDICTED BY RF-SCORE:    0.00 PKD
ROOT
HETATM    1  C   UNL     1     -10.872   8.442  69.666  1.00  0.00    -0.148 C  
HETATM    2  O   UNL     1     -10.096   9.082  68.642  1.00  0.00    -0.178 OA 
HETATM    3  C   UNL     1      -9.136   8.196  68.064  1.00  0.00    -0.133 C  
HETATM    4  C   UNL     1      -8.316   7.494  69.139  1.00  0.00    -0.135 C  
HETATM    5  C   UNL     1     -11.561   9.334  70.785  1.00  0.00    -0.285 C  
HETATM    6  C   UNL     1      -8.751   7.448  70.430  1.00  0.00    -0.145 C  
HETATM    7  N   UNL     1     -10.036   7.858  70.706  1.00  0.00    -0.192 N  
HETATM    8  C   UNL     1      -7.834   6.983  71.539  1.00  0.00    -0.098 C  
HETATM    9  O   UNL     1      -6.627   6.832  71.403  1.00  0.00    -0.051 OA 
HETATM   10  O   UNL     1      -8.422   6.696  72.716  1.00  0.00    -0.119 OA 
HETATM   11  O   UNL     1     -10.234   8.547  72.908  1.00  0.00    -0.197 OA 
HETATM   12  C   UNL     1     -10.562   8.547  71.742  1.00  0.00    -0.301 C  
ENDROOT
BRANCH   4  13
HETATM   13  C   UNL     1      -6.978   7.012  68.605  1.00  0.00    -0.079 C  
BRANCH  13  14
HETATM   14  S   UNL     1      -5.873   8.318  68.002  1.00  0.00    -0.043 SA 
BRANCH  14  15
HETATM   15  C   UNL     1      -6.158   8.354  66.308  1.00  0.00    -0.048 A  
HETATM   16  N   UNL     1      -5.874   7.428  65.422  1.00  0.00    -0.037 NA 
HETATM   17  C   UNL     1      -7.218  10.655  66.185  1.00  0.00    -0.138 C  
HETATM   18  N   UNL     1      -6.252   7.946  64.206  1.00  0.00    -0.056 NA 
HETATM   19  N   UNL     1      -6.766   9.161  64.343  1.00  0.00    -0.082 NA 
HETATM   20  N   UNL     1      -6.718   9.417  65.661  1.00  0.00    -0.073 NA 
ENDBRANCH  14  15
ENDBRANCH  13  14
ENDBRANCH   4  13
BRANCH   5  21
HETATM   21  O   UNL     1     -12.959   9.039  71.047  1.00  0.00    -0.197 OA 
HETATM   22  C   UNL     1     -13.523   9.584  72.231  1.00  0.00    -0.440 C  
ENDBRANCH   5  21
BRANCH   5  23
HETATM   23  N   UNL     1     -11.239  10.793  70.650  1.00  0.00    -0.404 N  
HETATM   24  C   UNL     1     -11.315  13.005  69.576  1.00  0.00    -0.223 C  
HETATM   25  C   UNL     1     -11.772  11.554  69.630  1.00  0.00    -0.351 C  
HETATM   26  O   UNL     1     -12.605  11.114  68.835  1.00  0.00    -0.358 OA 
HETATM   27  H   UNL     1     -10.613  11.231  71.325  1.00  0.00     0.000 HD 
HETATM   28  C   UNL     1     -11.427  13.638  68.195  1.00  0.00    -0.313 C  
HETATM   29  C   UNL     1     -11.980  13.877  70.640  1.00  0.00    -0.364 A  
HETATM   30  C   UNL     1     -11.305  15.012  71.126  1.00  0.00    -0.315 A  
HETATM   31  O   UNL     1     -10.727  14.587  67.857  1.00  0.00    -0.241 OA 
HETATM   32  O   UNL     1     -12.361  13.133  67.359  1.00  0.00    -0.225 OA 
HETATM   33  C   UNL     1     -11.859  15.797  72.142  1.00  0.00    -0.593 A  
HETATM   34  C   UNL     1     -13.096  15.455  72.673  1.00  0.00    -0.442 A  
HETATM   35  C   UNL     1     -13.809  14.376  72.167  1.00  0.00    -0.572 A  
HETATM   36  O   UNL     1     -13.651  16.156  73.701  1.00  0.00    -0.899 OA 
HETATM   37  H   UNL     1     -14.498  15.922  74.063  1.00  0.00     0.000 HD 
HETATM   38  C   UNL     1     -13.261  13.596  71.146  1.00  0.00    -0.254 A  
ENDBRANCH   5  23
TORSDOF 5
ENDMDL
MODEL       27
REMARK 921   NORMALIZED FREE ENERGY PREDICTED BY IDOCK:   -6.32 KCAL/MOL
REMARK 922        TOTAL FREE ENERGY PREDICTED BY IDOCK:   -9.52 KCAL/MOL
REMARK 923 INTER-LIGAND FREE ENERGY PREDICTED BY IDOCK:   -7.91 KCAL/MOL
REMARK 924 INTRA-LIGAND FREE ENERGY PREDICTED BY IDOCK:   -1.61 KCAL/MOL
REMARK 927      BINDING AFFINITY PREDICTED BY RF-SCORE:    0.00 PKD
ROOT
HETATM    1  C   UNL     1     -10.957   7.705  70.602  1.00  0.00    -0.249 C  
HETATM    2  O   UNL     1     -11.209   6.810  69.509  1.00  0.00    -0.285 OA 
HETATM    3  C   UNL     1     -10.738   5.488  69.779  1.00  0.00    -0.285 C  
HETATM    4  C   UNL     1      -9.295   5.507  70.266  1.00  0.00    -0.194 C  
HETATM    5  C   UNL     1     -10.872   9.266  70.319  1.00  0.00    -0.246 C  
HETATM    6  C   UNL     1      -8.733   6.654  70.742  1.00  0.00    -0.143 C  
HETATM    7  N   UNL     1      -9.549   7.739  70.972  1.00  0.00    -0.160 N  
HETATM    8  C   UNL     1      -7.243   6.742  70.985  1.00  0.00    -0.077 C  
HETATM    9  O   UNL     1      -6.440   5.909  70.586  1.00  0.00    -0.037 OA 
HETATM   10  O   UNL     1      -6.820   7.791  71.716  1.00  0.00    -0.055 OA 
HETATM   11  O   UNL     1      -8.347   9.717  70.874  1.00  0.00    -0.272 OA 
HETATM   12  C   UNL     1      -9.363   9.064  70.784  1.00  0.00    -0.249 C  
ENDROOT
BRANCH   4  13
HETATM   13  C   UNL     1      -8.601   4.177  70.028  1.00  0.00    -0.065 C  
BRANCH  13  14
HETATM   14  S   UNL     1      -8.774   3.507  68.351  1.00  0.00    -0.115 SA 
BRANCH  14  15
HETATM   15  C   UNL     1      -8.388   4.835  67.332  1.00  0.00    -0.105 A  
HETATM   16  N   UNL     1      -7.276   5.533  67.302  1.00  0.00    -0.074 NA 
HETATM   17  C   UNL     1     -10.573   4.931  66.047  1.00  0.00    -0.261 C  
HETATM   18  N   UNL     1      -7.473   6.509  66.354  1.00  0.00    -0.084 NA 
HETATM   19  N   UNL     1      -8.677   6.407  65.807  1.00  0.00    -0.148 NA 
HETATM   20  N   UNL     1      -9.251   5.353  66.410  1.00  0.00    -0.142 NA 
ENDBRANCH  14  15
ENDBRANCH  13  14
ENDBRANCH   4  13
BRANCH   5  21
HETATM   21  O   UNL     1     -11.642  10.107  71.219  1.00  0.00    -0.364 OA 
HETATM   22  C   UNL     1     -12.846   9.562  71.740  1.00  0.00    -0.406 C  
ENDBRANCH   5  21
BRANCH   5  23
HETATM   23  N   UNL     1     -11.012   9.604  68.864  1.00  0.00    -0.394 N  
HETATM   24  C   UNL     1     -11.230  11.116  66.935  1.00  0.00    -0.258 C  
HETATM   25  C   UNL     1     -11.021  10.914  68.430  1.00  0.00    -0.237 C  
HETATM   26  O   UNL     1     -10.824  11.868  69.184  1.00  0.00    -0.212 OA 
HETATM   27  H   UNL     1     -11.103   8.852  68.183  1.00  0.00     0.000 HD 
HETATM   28  C   UNL     1     -11.802  12.479  66.569  1.00  0.00    -0.367 C  
HETATM   29  C   UNL     1      -9.981  10.800  66.114  1.00  0.00    -0.283 A  
HETATM   30  C   UNL     1     -10.119  10.364  64.783  1.00  0.00    -0.387 A  
HETATM   31  O   UNL     1     -12.435  12.661  65.534  1.00  0.00    -0.622 OA 
HETATM   32  O   UNL     1     -11.552  13.500  67.418  1.00  0.00    -0.317 OA 
HETATM   33  C   UNL     1      -9.000  10.010  64.023  1.00  0.00    -0.270 A  
HETATM   34  C   UNL     1      -7.735  10.098  64.587  1.00  0.00    -0.141 A  
HETATM   35  C   UNL     1      -7.568  10.584  65.877  1.00  0.00    -0.148 A  
HETATM   36  O   UNL     1      -6.620   9.712  63.906  1.00  0.00    -0.101 OA 
HETATM   37  H   UNL     1      -5.754   9.772  64.293  1.00  0.00     0.000 HD 
HETATM   38  C   UNL     1      -8.684  10.946  66.635  1.00  0.00    -0.156 A  
ENDBRANCH   5  23
TORSDOF 5
ENDMDL
MODEL       28
REMARK 921   NORMALIZED FREE ENERGY PREDICTED BY IDOCK:   -6.27 KCAL/MOL
REMARK 922        TOTAL FREE ENERGY PREDICTED BY IDOCK:   -9.44 KCAL/MOL
REMARK 923 INTER-LIGAND FREE ENERGY PREDICTED BY IDOCK:   -8.00 KCAL/MOL
REMARK 924 INTRA-LIGAND FREE ENERGY PREDICTED BY IDOCK:   -1.45 KCAL/MOL
REMARK 927      BINDING AFFINITY PREDICTED BY RF-SCORE:    0.00 PKD
ROOT
HETATM    1  C   UNL     1      -6.954  10.416  68.941  1.00  0.00    -0.067 C  
HETATM    2  O   UNL     1      -7.269  10.416  70.342  1.00  0.00    -0.266 OA 
HETATM    3  C   UNL     1      -6.876   9.199  70.979  1.00  0.00    -0.095 C  
HETATM    4  C   UNL     1      -7.386   7.985  70.212  1.00  0.00    -0.060 C  
HETATM    5  C   UNL     1      -7.772  11.366  67.966  1.00  0.00    -0.114 C  
HETATM    6  C   UNL     1      -7.790   8.098  68.915  1.00  0.00    -0.112 C  
HETATM    7  N   UNL     1      -7.533   9.275  68.247  1.00  0.00    -0.079 N  
HETATM    8  C   UNL     1      -8.528   6.968  68.234  1.00  0.00    -0.123 C  
HETATM    9  O   UNL     1      -8.990   6.004  68.829  1.00  0.00    -0.119 OA 
HETATM   10  O   UNL     1      -8.630   7.047  66.893  1.00  0.00    -0.116 OA 
HETATM   11  O   UNL     1      -9.029   9.584  66.506  1.00  0.00    -0.142 OA 
HETATM   12  C   UNL     1      -8.257   9.981  67.350  1.00  0.00    -0.118 C  
ENDROOT
BRANCH   4  13
HETATM   13  C   UNL     1      -7.488   6.757  71.100  1.00  0.00    -0.087 C  
BRANCH  13  14
HETATM   14  S   UNL     1      -8.169   7.057  72.755  1.00  0.00    -0.107 SA 
BRANCH  14  15
HETATM   15  C   UNL     1      -9.869   7.080  72.506  1.00  0.00    -0.154 A  
HETATM   16  N   UNL     1     -10.687   8.099  72.617  1.00  0.00    -0.350 NA 
HETATM   17  C   UNL     1     -10.163   4.630  71.915  1.00  0.00    -0.184 C  
HETATM   18  N   UNL     1     -11.943   7.600  72.365  1.00  0.00    -0.283 NA 
HETATM   19  N   UNL     1     -11.895   6.302  72.094  1.00  0.00    -0.331 NA 
HETATM   20  N   UNL     1     -10.595   5.974  72.173  1.00  0.00    -0.206 NA 
ENDBRANCH  14  15
ENDBRANCH  13  14
ENDBRANCH   4  13
BRANCH   5  21
HETATM   21  O   UNL     1      -6.971  12.154  67.044  1.00  0.00    -0.137 OA 
HETATM   22  C   UNL     1      -5.825  12.801  67.577  1.00  0.00    -0.132 C  
ENDBRANCH   5  21
BRANCH   5  23
HETATM   23  N   UNL     1      -8.859  12.126  68.665  1.00  0.00    -0.376 N  
HETATM   24  C   UNL     1     -10.983  13.359  68.810  1.00  0.00    -0.290 C  
HETATM   25  C   UNL     1      -9.987  12.547  67.993  1.00  0.00    -0.219 C  
HETATM   26  O   UNL     1     -10.213  12.251  66.819  1.00  0.00    -0.209 OA 
HETATM   27  H   UNL     1      -8.763  12.336  69.658  1.00  0.00     0.000 HD 
HETATM   28  C   UNL     1     -11.871  14.271  67.974  1.00  0.00    -0.344 C  
HETATM   29  C   UNL     1     -11.812  12.498  69.761  1.00  0.00    -0.380 A  
HETATM   30  C   UNL     1     -12.315  13.065  70.948  1.00  0.00    -0.376 A  
HETATM   31  O   UNL     1     -12.387  15.282  68.441  1.00  0.00    -0.016 OA 
HETATM   32  O   UNL     1     -12.103  13.903  66.695  1.00  0.00    -0.423 OA 
HETATM   33  C   UNL     1     -13.027  12.289  71.868  1.00  0.00    -0.411 A  
HETATM   34  C   UNL     1     -13.246  10.943  71.603  1.00  0.00    -0.367 A  
HETATM   35  C   UNL     1     -12.813  10.377  70.412  1.00  0.00    -0.249 A  
HETATM   36  O   UNL     1     -13.885  10.135  72.495  1.00  0.00    -0.561 OA 
HETATM   37  H   UNL     1     -14.036   9.214  72.313  1.00  0.00     0.000 HD 
HETATM   38  C   UNL     1     -12.110  11.152  69.487  1.00  0.00    -0.396 A  
ENDBRANCH   5  23
TORSDOF 5
ENDMDL
MODEL       29
REMARK 921   NORMALIZED FREE ENERGY PREDICTED BY IDOCK:   -6.26 KCAL/MOL
REMARK 922        TOTAL FREE ENERGY PREDICTED BY IDOCK:   -9.43 KCAL/MOL
REMARK 923 INTER-LIGAND FREE ENERGY PREDICTED BY IDOCK:   -8.27 KCAL/MOL
REMARK 924 INTRA-LIGAND FREE ENERGY PREDICTED BY IDOCK:   -1.17 KCAL/MOL
REMARK 927      BINDING AFFINITY PREDICTED BY RF-SCORE:    0.00 PKD
ROOT
HETATM    1  C   UNL     1      -7.385   9.376  68.729  1.00  0.00    -0.074 C  
HETATM    2  O   UNL     1      -7.913   9.908  69.953  1.00  0.00    -0.154 OA 
HETATM    3  C   UNL     1      -7.687   9.033  71.060  1.00  0.00    -0.125 C  
HETATM    4  C   UNL     1      -8.133   7.612  70.740  1.00  0.00    -0.103 C  
HETATM    5  C   UNL     1      -7.993   9.869  67.347  1.00  0.00    -0.106 C  
HETATM    6  C   UNL     1      -8.325   7.215  69.450  1.00  0.00    -0.133 C  
HETATM    7  N   UNL     1      -7.908   8.048  68.436  1.00  0.00    -0.120 N  
HETATM    8  C   UNL     1      -9.006   5.901  69.139  1.00  0.00    -0.119 C  
HETATM    9  O   UNL     1      -9.603   5.233  69.972  1.00  0.00    -0.151 OA 
HETATM   10  O   UNL     1      -8.895   5.458  67.872  1.00  0.00    -0.107 OA 
HETATM   11  O   UNL     1      -9.099   7.648  66.490  1.00  0.00    -0.152 OA 
HETATM   12  C   UNL     1      -8.448   8.348  67.234  1.00  0.00    -0.124 C  
ENDROOT
BRANCH   4  13
HETATM   13  C   UNL     1      -8.434   6.817  71.998  1.00  0.00    -0.112 C  
BRANCH  13  14
HETATM   14  S   UNL     1      -9.470   7.670  73.219  1.00  0.00    -0.282 SA 
BRANCH  14  15
HETATM   15  C   UNL     1     -10.941   7.963  72.383  1.00  0.00    -0.325 A  
HETATM   16  N   UNL     1     -11.359   9.090  71.855  1.00  0.00    -0.369 NA 
HETATM   17  C   UNL     1     -11.907   5.623  72.555  1.00  0.00    -0.134 C  
HETATM   18  N   UNL     1     -12.607   8.823  71.343  1.00  0.00    -0.309 NA 
HETATM   19  N   UNL     1     -12.945   7.556  71.545  1.00  0.00    -0.358 NA 
HETATM   20  N   UNL     1     -11.899   7.011  72.188  1.00  0.00    -0.286 NA 
ENDBRANCH  14  15
ENDBRANCH  13  14
ENDBRANCH   4  13
BRANCH   5  21
HETATM   21  O   UNL     1      -7.020  10.254  66.338  1.00  0.00    -0.098 OA 
HETATM   22  C   UNL     1      -7.364  10.006  64.983  1.00  0.00    -0.140 C  
ENDBRANCH   5  21
BRANCH   5  23
HETATM   23  N   UNL     1      -9.135  10.826  67.519  1.00  0.00    -0.139 N  
HETATM   24  C   UNL     1     -10.170  12.996  68.044  1.00  0.00    -0.233 C  
HETATM   25  C   UNL     1      -8.920  12.150  67.842  1.00  0.00    -0.184 C  
HETATM   26  O   UNL     1      -7.794  12.643  67.916  1.00  0.00    -0.128 OA 
HETATM   27  H   UNL     1     -10.090  10.491  67.394  1.00  0.00     0.000 HD 
HETATM   28  C   UNL     1      -9.955  14.217  68.928  1.00  0.00    -0.127 C  
HETATM   29  C   UNL     1     -10.849  13.376  66.729  1.00  0.00    -0.286 A  
HETATM   30  C   UNL     1     -12.237  13.612  66.709  1.00  0.00    -0.416 A  
HETATM   31  O   UNL     1     -10.873  14.738  69.552  1.00  0.00    -0.255 OA 
HETATM   32  O   UNL     1      -8.707  14.733  68.971  1.00  0.00    -0.183 OA 
HETATM   33  C   UNL     1     -12.898  13.903  65.512  1.00  0.00    -0.471 A  
HETATM   34  C   UNL     1     -12.174  13.968  64.329  1.00  0.00    -0.418 A  
HETATM   35  C   UNL     1     -10.796  13.799  64.333  1.00  0.00    -0.343 A  
HETATM   36  O   UNL     1     -12.782  14.193  63.131  1.00  0.00    -0.922 OA 
HETATM   37  H   UNL     1     -12.287  14.238  62.321  1.00  0.00     0.000 HD 
HETATM   38  C   UNL     1     -10.132  13.517  65.529  1.00  0.00    -0.283 A  
ENDBRANCH   5  23
TORSDOF 5
ENDMDL
MODEL       30
REMARK 921   NORMALIZED FREE ENERGY PREDICTED BY IDOCK:   -6.24 KCAL/MOL
REMARK 922        TOTAL FREE ENERGY PREDICTED BY IDOCK:   -9.41 KCAL/MOL
REMARK 923 INTER-LIGAND FREE ENERGY PREDICTED BY IDOCK:   -7.88 KCAL/MOL
REMARK 924 INTRA-LIGAND FREE ENERGY PREDICTED BY IDOCK:   -1.52 KCAL/MOL
REMARK 927      BINDING AFFINITY PREDICTED BY RF-SCORE:    0.00 PKD
ROOT
HETATM    1  C   UNL     1     -10.474  11.740  65.401  1.00  0.00    -0.272 C  
HETATM    2  O   UNL     1      -9.115  11.282  65.345  1.00  0.00    -0.205 OA 
HETATM    3  C   UNL     1      -8.996   9.907  65.714  1.00  0.00    -0.156 C  
HETATM    4  C   UNL     1      -9.709   9.627  67.031  1.00  0.00    -0.232 C  
HETATM    5  C   UNL     1     -10.760  13.291  65.586  1.00  0.00    -0.282 C  
HETATM    6  C   UNL     1     -10.639  10.494  67.521  1.00  0.00    -0.259 C  
HETATM    7  N   UNL     1     -11.077  11.516  66.708  1.00  0.00    -0.298 N  
HETATM    8  C   UNL     1     -11.158  10.355  68.934  1.00  0.00    -0.247 C  
HETATM    9  O   UNL     1     -10.648   9.628  69.776  1.00  0.00    -0.213 OA 
HETATM   10  O   UNL     1     -12.266  11.060  69.233  1.00  0.00    -0.369 OA 
HETATM   11  O   UNL     1     -11.875  13.292  67.963  1.00  0.00    -0.340 OA 
HETATM   12  C   UNL     1     -11.388  12.805  66.966  1.00  0.00    -0.314 C  
ENDROOT
BRANCH   4  13
HETATM   13  C   UNL     1      -9.158   8.389  67.720  1.00  0.00    -0.135 C  
BRANCH  13  14
HETATM   14  S   UNL     1      -7.349   8.315  67.840  1.00  0.00    -0.098 SA 
BRANCH  14  15
HETATM   15  C   UNL     1      -6.935   9.721  68.737  1.00  0.00    -0.066 A  
HETATM   16  N   UNL     1      -6.544  10.886  68.277  1.00  0.00    -0.058 NA 
HETATM   17  C   UNL     1      -7.317   8.773  71.059  1.00  0.00    -0.092 C  
HETATM   18  N   UNL     1      -6.291  11.660  69.384  1.00  0.00    -0.094 NA 
HETATM   19  N   UNL     1      -6.531  10.987  70.502  1.00  0.00    -0.307 NA 
HETATM   20  N   UNL     1      -6.944   9.773  70.100  1.00  0.00    -0.101 NA 
ENDBRANCH  14  15
ENDBRANCH  13  14
ENDBRANCH   4  13
BRANCH   5  21
HETATM   21  O   UNL     1     -11.742  13.859  64.677  1.00  0.00    -0.362 OA 
HETATM   22  C   UNL     1     -13.095  13.858  65.107  1.00  0.00    -0.088 C  
ENDBRANCH   5  21
BRANCH   5  23
HETATM   23  N   UNL     1      -9.509  14.101  65.749  1.00  0.00    -0.526 N  
HETATM   24  C   UNL     1      -8.215  16.159  66.131  1.00  0.00    -0.143 C  
HETATM   25  C   UNL     1      -9.558  15.446  66.054  1.00  0.00    -0.347 C  
HETATM   26  O   UNL     1     -10.611  16.035  66.299  1.00  0.00    -0.306 OA 
HETATM   27  H   UNL     1      -8.602  13.649  65.632  1.00  0.00     0.000 HD 
HETATM   28  C   UNL     1      -8.297  17.660  65.889  1.00  0.00     0.050 C  
HETATM   29  C   UNL     1      -7.450  15.846  67.416  1.00  0.00    -0.217 A  
HETATM   30  C   UNL     1      -6.044  15.904  67.416  1.00  0.00    -0.149 A  
HETATM   31  O   UNL     1      -7.338  18.305  65.476  1.00  0.00    -0.539 OA 
HETATM   32  O   UNL     1      -9.467  18.269  66.182  1.00  0.00    -0.464 OA 
HETATM   33  C   UNL     1      -5.311  15.566  68.558  1.00  0.00    -0.099 A  
HETATM   34  C   UNL     1      -5.982  15.175  69.710  1.00  0.00    -0.132 A  
HETATM   35  C   UNL     1      -7.370  15.169  69.752  1.00  0.00    -0.141 A  
HETATM   36  O   UNL     1      -5.311  14.783  70.829  1.00  0.00    -0.122 OA 
HETATM   37  H   UNL     1      -5.770  14.516  71.617  1.00  0.00     0.000 HD 
HETATM   38  C   UNL     1      -8.103  15.515  68.616  1.00  0.00    -0.159 A  
ENDBRANCH   5  23
TORSDOF 5
ENDMDL
MODEL       31
REMARK 921   NORMALIZED FREE ENERGY PREDICTED BY IDOCK:   -6.22 KCAL/MOL
REMARK 922        TOTAL FREE ENERGY PREDICTED BY IDOCK:   -9.39 KCAL/MOL
REMARK 923 INTER-LIGAND FREE ENERGY PREDICTED BY IDOCK:   -8.56 KCAL/MOL
REMARK 924 INTRA-LIGAND FREE ENERGY PREDICTED BY IDOCK:   -0.82 KCAL/MOL
REMARK 927      BINDING AFFINITY PREDICTED BY RF-SCORE:    0.00 PKD
ROOT
HETATM    1  C   UNL     1      -6.178  14.266  68.039  1.00  0.00    -0.152 C  
HETATM    2  O   UNL     1      -7.146  14.872  67.169  1.00  0.00    -0.197 OA 
HETATM    3  C   UNL     1      -6.716  16.151  66.698  1.00  0.00     0.225 C  
HETATM    4  C   UNL     1      -6.252  17.035  67.848  1.00  0.00    -0.147 C  
HETATM    5  C   UNL     1      -6.658  13.171  69.085  1.00  0.00    -0.104 C  
HETATM    6  C   UNL     1      -5.932  16.495  69.058  1.00  0.00    -0.150 C  
HETATM    7  N   UNL     1      -5.833  15.126  69.162  1.00  0.00    -0.097 N  
HETATM    8  C   UNL     1      -5.720  17.379  70.267  1.00  0.00    -0.192 C  
HETATM    9  O   UNL     1      -6.019  18.565  70.302  1.00  0.00    -0.206 OA 
HETATM   10  O   UNL     1      -5.133  16.800  71.332  1.00  0.00    -0.335 OA 
HETATM   11  O   UNL     1      -6.194  14.429  71.341  1.00  0.00    -0.081 OA 
HETATM   12  C   UNL     1      -6.189  14.266  70.141  1.00  0.00    -0.161 C  
ENDROOT
BRANCH   4  13
HETATM   13  C   UNL     1      -6.328  18.510  67.494  1.00  0.00    -0.194 C  
BRANCH  13  14
HETATM   14  S   UNL     1      -7.285  18.896  66.001  1.00  0.00    -0.247 SA 
BRANCH  14  15
HETATM   15  C   UNL     1      -8.898  19.051  66.571  1.00  0.00    -0.327 A  
HETATM   16  N   UNL     1      -9.436  20.066  67.205  1.00  0.00    -0.362 NA 
HETATM   17  C   UNL     1      -9.752  16.786  65.809  1.00  0.00    -0.128 C  
HETATM   18  N   UNL     1     -10.728  19.690  67.485  1.00  0.00    -0.448 NA 
HETATM   19  N   UNL     1     -10.981  18.472  67.025  1.00  0.00    -0.191 NA 
HETATM   20  N   UNL     1      -9.839  18.071  66.443  1.00  0.00    -0.352 NA 
ENDBRANCH  14  15
ENDBRANCH  13  14
ENDBRANCH   4  13
BRANCH   5  21
HETATM   21  O   UNL     1      -5.863  11.956  69.126  1.00  0.00    -0.059 OA 
HETATM   22  C   UNL     1      -6.039  11.108  70.252  1.00  0.00    -0.144 C  
ENDBRANCH   5  21
BRANCH   5  23
HETATM   23  N   UNL     1      -8.142  12.954  69.064  1.00  0.00    -0.315 N  
HETATM   24  C   UNL     1     -10.259  12.089  68.155  1.00  0.00    -0.203 C  
HETATM   25  C   UNL     1      -8.740  12.177  68.093  1.00  0.00    -0.185 C  
HETATM   26  O   UNL     1      -8.096  11.548  67.252  1.00  0.00    -0.138 OA 
HETATM   27  H   UNL     1      -8.721  13.388  69.782  1.00  0.00     0.000 HD 
HETATM   28  C   UNL     1     -10.915  11.750  66.824  1.00  0.00    -0.288 C  
HETATM   29  C   UNL     1     -10.755  11.167  69.268  1.00  0.00    -0.241 A  
HETATM   30  C   UNL     1     -12.016  11.400  69.850  1.00  0.00    -0.434 A  
HETATM   31  O   UNL     1     -12.072  12.065  66.570  1.00  0.00    -0.617 OA 
HETATM   32  O   UNL     1     -10.176  11.048  65.934  1.00  0.00    -0.239 OA 
HETATM   33  C   UNL     1     -12.474  10.611  70.910  1.00  0.00    -0.495 A  
HETATM   34  C   UNL     1     -11.676   9.580  71.389  1.00  0.00    -0.393 A  
HETATM   35  C   UNL     1     -10.457   9.293  70.791  1.00  0.00    -0.343 A  
HETATM   36  O   UNL     1     -12.055   8.821  72.456  1.00  0.00    -0.347 OA 
HETATM   37  H   UNL     1     -11.509   8.115  72.783  1.00  0.00     0.000 HD 
HETATM   38  C   UNL     1     -10.002  10.073  69.727  1.00  0.00    -0.276 A  
ENDBRANCH   5  23
TORSDOF 5
ENDMDL
MODEL       32
REMARK 921   NORMALIZED FREE ENERGY PREDICTED BY IDOCK:   -6.22 KCAL/MOL
REMARK 922        TOTAL FREE ENERGY PREDICTED BY IDOCK:   -9.38 KCAL/MOL
REMARK 923 INTER-LIGAND FREE ENERGY PREDICTED BY IDOCK:   -8.40 KCAL/MOL
REMARK 924 INTRA-LIGAND FREE ENERGY PREDICTED BY IDOCK:   -0.97 KCAL/MOL
REMARK 927      BINDING AFFINITY PREDICTED BY RF-SCORE:    0.00 PKD
ROOT
HETATM    1  C   UNL     1      -7.886  10.201  69.701  1.00  0.00    -0.175 C  
HETATM    2  O   UNL     1      -8.038  10.436  68.293  1.00  0.00    -0.107 OA 
HETATM    3  C   UNL     1      -8.944  11.508  68.024  1.00  0.00    -0.170 C  
HETATM    4  C   UNL     1     -10.251  11.328  68.784  1.00  0.00    -0.215 C  
HETATM    5  C   UNL     1      -7.410   8.769  70.198  1.00  0.00    -0.055 C  
HETATM    6  C   UNL     1     -10.329  10.483  69.851  1.00  0.00    -0.114 C  
HETATM    7  N   UNL     1      -9.162   9.958  70.359  1.00  0.00    -0.099 N  
HETATM    8  C   UNL     1     -11.668  10.108  70.444  1.00  0.00    -0.308 C  
HETATM    9  O   UNL     1     -12.740  10.346  69.905  1.00  0.00    -0.156 OA 
HETATM   10  O   UNL     1     -11.638   9.513  71.653  1.00  0.00    -0.377 OA 
HETATM   11  O   UNL     1      -9.562   7.963  71.466  1.00  0.00    -0.146 OA 
HETATM   12  C   UNL     1      -8.861   8.737  70.852  1.00  0.00    -0.200 C  
ENDROOT
BRANCH   4  13
HETATM   13  C   UNL     1     -11.395  12.082  68.127  1.00  0.00    -0.291 C  
BRANCH  13  14
HETATM   14  S   UNL     1     -10.903  13.526  67.145  1.00  0.00    -0.287 SA 
BRANCH  14  15
HETATM   15  C   UNL     1     -11.789  13.355  65.683  1.00  0.00    -0.370 A  
HETATM   16  N   UNL     1     -12.558  12.356  65.317  1.00  0.00    -0.588 NA 
HETATM   17  C   UNL     1     -11.099  15.545  64.603  1.00  0.00    -0.359 C  
HETATM   18  N   UNL     1     -13.001  12.668  64.054  1.00  0.00    -0.716 NA 
HETATM   19  N   UNL     1     -12.521  13.839  63.655  1.00  0.00    -0.781 NA 
HETATM   20  N   UNL     1     -11.768  14.277  64.678  1.00  0.00    -0.410 NA 
ENDBRANCH  14  15
ENDBRANCH  13  14
ENDBRANCH   4  13
BRANCH   5  21
HETATM   21  O   UNL     1      -6.338   8.772  71.179  1.00  0.00    -0.043 OA 
HETATM   22  C   UNL     1      -5.480   9.903  71.193  1.00  0.00    -0.073 C  
ENDBRANCH   5  21
BRANCH   5  23
HETATM   23  N   UNL     1      -7.236   7.789  69.076  1.00  0.00    -0.078 N  
HETATM   24  C   UNL     1      -6.800   5.576  68.092  1.00  0.00    -0.060 C  
HETATM   25  C   UNL     1      -7.020   6.449  69.321  1.00  0.00    -0.067 C  
HETATM   26  O   UNL     1      -7.048   5.964  70.453  1.00  0.00    -0.065 OA 
HETATM   27  H   UNL     1      -7.278   8.120  68.113  1.00  0.00     0.000 HD 
HETATM   28  C   UNL     1      -6.019   4.299  68.371  1.00  0.00    -0.027 C  
HETATM   29  C   UNL     1      -8.095   5.279  67.337  1.00  0.00    -0.100 A  
HETATM   30  C   UNL     1      -8.046   5.028  65.952  1.00  0.00    -0.108 A  
HETATM   31  O   UNL     1      -5.377   3.725  67.497  1.00  0.00    -0.014 OA 
HETATM   32  O   UNL     1      -6.088   3.796  69.624  1.00  0.00    -0.022 OA 
HETATM   33  C   UNL     1      -9.218   4.812  65.220  1.00  0.00    -0.155 A  
HETATM   34  C   UNL     1     -10.445   4.838  65.870  1.00  0.00    -0.274 A  
HETATM   35  C   UNL     1     -10.513   5.023  67.245  1.00  0.00    -0.151 A  
HETATM   36  O   UNL     1     -11.617   4.689  65.191  1.00  0.00    -1.107 OA 
HETATM   37  H   UNL     1     -12.456   4.707  65.636  1.00  0.00     0.000 HD 
HETATM   38  C   UNL     1      -9.343   5.230  67.979  1.00  0.00    -0.135 A  
ENDBRANCH   5  23
TORSDOF 5
ENDMDL
MODEL       33
REMARK 921   NORMALIZED FREE ENERGY PREDICTED BY IDOCK:   -6.18 KCAL/MOL
REMARK 922        TOTAL FREE ENERGY PREDICTED BY IDOCK:   -9.33 KCAL/MOL
REMARK 923 INTER-LIGAND FREE ENERGY PREDICTED BY IDOCK:   -8.45 KCAL/MOL
REMARK 924 INTRA-LIGAND FREE ENERGY PREDICTED BY IDOCK:   -0.87 KCAL/MOL
REMARK 927      BINDING AFFINITY PREDICTED BY RF-SCORE:    0.00 PKD
ROOT
HETATM    1  C   UNL     1      -9.101   9.835  70.057  1.00  0.00    -0.223 C  
HETATM    2  O   UNL     1     -10.447  10.097  70.483  1.00  0.00    -0.261 OA 
HETATM    3  C   UNL     1     -11.022   8.979  71.161  1.00  0.00    -0.301 C  
HETATM    4  C   UNL     1     -10.847   7.697  70.357  1.00  0.00    -0.252 C  
HETATM    5  C   UNL     1      -8.498  10.668  68.846  1.00  0.00    -0.154 C  
HETATM    6  C   UNL     1      -9.923   7.620  69.357  1.00  0.00    -0.180 C  
HETATM    7  N   UNL     1      -9.009   8.642  69.227  1.00  0.00    -0.144 N  
HETATM    8  C   UNL     1      -9.919   6.453  68.396  1.00  0.00    -0.141 C  
HETATM    9  O   UNL     1     -10.832   5.643  68.308  1.00  0.00    -0.203 OA 
HETATM   10  O   UNL     1      -8.815   6.311  67.637  1.00  0.00    -0.113 OA 
HETATM   11  O   UNL     1      -8.210   8.769  67.057  1.00  0.00    -0.102 OA 
HETATM   12  C   UNL     1      -8.473   9.241  68.141  1.00  0.00    -0.121 C  
ENDROOT
BRANCH   4  13
HETATM   13  C   UNL     1     -11.881   6.649  70.731  1.00  0.00    -0.383 C  
BRANCH  13  14
HETATM   14  S   UNL     1     -11.622   5.852  72.340  1.00  0.00    -0.229 SA 
BRANCH  14  15
HETATM   15  C   UNL     1      -9.913   5.735  72.475  1.00  0.00    -0.170 A  
HETATM   16  N   UNL     1      -9.102   6.512  73.155  1.00  0.00    -0.128 NA 
HETATM   17  C   UNL     1      -9.589   3.701  70.994  1.00  0.00    -0.176 C  
HETATM   18  N   UNL     1      -7.836   6.037  72.909  1.00  0.00    -0.106 NA 
HETATM   19  N   UNL     1      -7.869   4.985  72.102  1.00  0.00    -0.107 NA 
HETATM   20  N   UNL     1      -9.171   4.787  71.835  1.00  0.00    -0.134 NA 
ENDBRANCH  14  15
ENDBRANCH  13  14
ENDBRANCH   4  13
BRANCH   5  21
HETATM   21  O   UNL     1      -7.173  11.222  69.067  1.00  0.00    -0.103 OA 
HETATM   22  C   UNL     1      -6.474  10.781  70.223  1.00  0.00    -0.127 C  
ENDBRANCH   5  21
BRANCH   5  23
HETATM   23  N   UNL     1      -9.487  11.619  68.241  1.00  0.00    -0.187 N  
HETATM   24  C   UNL     1     -10.183  13.649  67.038  1.00  0.00    -0.250 C  
HETATM   25  C   UNL     1      -9.075  12.738  67.548  1.00  0.00    -0.193 C  
HETATM   26  O   UNL     1      -7.890  12.974  67.306  1.00  0.00    -0.171 OA 
HETATM   27  H   UNL     1     -10.485  11.435  68.344  1.00  0.00     0.000 HD 
HETATM   28  C   UNL     1      -9.746  15.091  66.814  1.00  0.00    -0.241 C  
HETATM   29  C   UNL     1     -10.892  13.088  65.807  1.00  0.00    -0.292 A  
HETATM   30  C   UNL     1     -12.234  13.437  65.561  1.00  0.00    -0.499 A  
HETATM   31  O   UNL     1     -10.542  16.024  66.847  1.00  0.00    -0.312 OA 
HETATM   32  O   UNL     1      -8.440  15.303  66.540  1.00  0.00    -0.265 OA 
HETATM   33  C   UNL     1     -12.931  12.895  64.477  1.00  0.00    -0.168 A  
HETATM   34  C   UNL     1     -12.287  12.005  63.627  1.00  0.00    -0.539 A  
HETATM   35  C   UNL     1     -10.946  11.693  63.813  1.00  0.00    -0.495 A  
HETATM   36  O   UNL     1     -12.939  11.408  62.590  1.00  0.00    -0.673 OA 
HETATM   37  H   UNL     1     -12.498  10.799  62.009  1.00  0.00     0.000 HD 
HETATM   38  C   UNL     1     -10.247  12.241  64.890  1.00  0.00    -0.307 A  
ENDBRANCH   5  23
TORSDOF 5
ENDMDL
MODEL       34
REMARK 921   NORMALIZED FREE ENERGY PREDICTED BY IDOCK:   -6.15 KCAL/MOL
REMARK 922        TOTAL FREE ENERGY PREDICTED BY IDOCK:   -9.29 KCAL/MOL
REMARK 923 INTER-LIGAND FREE ENERGY PREDICTED BY IDOCK:   -8.49 KCAL/MOL
REMARK 924 INTRA-LIGAND FREE ENERGY PREDICTED BY IDOCK:   -0.80 KCAL/MOL
REMARK 927      BINDING AFFINITY PREDICTED BY RF-SCORE:    0.00 PKD
ROOT
HETATM    1  C   UNL     1      -9.787  10.057  68.702  1.00  0.00    -0.160 C  
HETATM    2  O   UNL     1      -8.686  10.193  69.613  1.00  0.00    -0.186 OA 
HETATM    3  C   UNL     1      -8.614   9.102  70.533  1.00  0.00    -0.219 C  
HETATM    4  C   UNL     1      -9.961   8.850  71.197  1.00  0.00    -0.342 C  
HETATM    5  C   UNL     1     -10.381  11.358  68.009  1.00  0.00    -0.184 C  
HETATM    6  C   UNL     1     -11.110   9.348  70.657  1.00  0.00    -0.289 C  
HETATM    7  N   UNL     1     -11.058   9.899  69.395  1.00  0.00    -0.223 N  
HETATM    8  C   UNL     1     -12.405   9.322  71.436  1.00  0.00    -0.343 C  
HETATM    9  O   UNL     1     -12.474   9.068  72.631  1.00  0.00    -0.303 OA 
HETATM   10  O   UNL     1     -13.528   9.561  70.731  1.00  0.00    -0.150 OA 
HETATM   11  O   UNL     1     -12.775  11.422  69.084  1.00  0.00    -0.135 OA 
HETATM   12  C   UNL     1     -11.674  10.972  68.853  1.00  0.00    -0.330 C  
ENDROOT
BRANCH   4  13
HETATM   13  C   UNL     1      -9.811   8.127  72.524  1.00  0.00    -0.293 C  
BRANCH  13  14
HETATM   14  S   UNL     1      -9.914   6.318  72.432  1.00  0.00    -0.172 SA 
BRANCH  14  15
HETATM   15  C   UNL     1     -10.078   5.997  70.752  1.00  0.00    -0.197 A  
HETATM   16  N   UNL     1     -11.165   6.062  70.020  1.00  0.00    -0.382 NA 
HETATM   17  C   UNL     1      -7.659   5.394  70.279  1.00  0.00    -0.076 C  
HETATM   18  N   UNL     1     -10.790   5.671  68.757  1.00  0.00    -0.208 NA 
HETATM   19  N   UNL     1      -9.496   5.380  68.712  1.00  0.00    -0.123 NA 
HETATM   20  N   UNL     1      -9.044   5.593  69.959  1.00  0.00    -0.135 NA 
ENDBRANCH  14  15
ENDBRANCH  13  14
ENDBRANCH   4  13
BRANCH   5  21
HETATM   21  O   UNL     1     -10.583  11.263  66.573  1.00  0.00    -0.247 OA 
HETATM   22  C   UNL     1     -11.518  12.160  65.993  1.00  0.00    -0.370 C  
ENDBRANCH   5  21
BRANCH   5  23
HETATM   23  N   UNL     1      -9.718  12.621  68.471  1.00  0.00    -0.368 N  
HETATM   24  C   UNL     1      -7.925  14.305  68.538  1.00  0.00    -0.145 C  
HETATM   25  C   UNL     1      -8.516  13.037  67.936  1.00  0.00    -0.185 C  
HETATM   26  O   UNL     1      -7.967  12.458  66.998  1.00  0.00    -0.167 OA 
HETATM   27  H   UNL     1     -10.164  13.184  69.194  1.00  0.00     0.000 HD 
HETATM   28  C   UNL     1      -6.416  14.421  68.378  1.00  0.00    -0.102 C  
HETATM   29  C   UNL     1      -8.632  15.573  68.062  1.00  0.00    -0.155 A  
HETATM   30  C   UNL     1      -8.650  16.710  68.892  1.00  0.00    -0.235 A  
HETATM   31  O   UNL     1      -5.730  15.091  69.143  1.00  0.00    -0.096 OA 
HETATM   32  O   UNL     1      -5.856  13.780  67.327  1.00  0.00    -0.326 OA 
HETATM   33  C   UNL     1      -9.339  17.866  68.513  1.00  0.00    -0.299 A  
HETATM   34  C   UNL     1     -10.007  17.895  67.296  1.00  0.00    -0.325 A  
HETATM   35  C   UNL     1      -9.953  16.808  66.433  1.00  0.00    -0.317 A  
HETATM   36  O   UNL     1     -10.737  18.977  66.907  1.00  0.00    -0.429 OA 
HETATM   37  H   UNL     1     -11.194  18.997  66.074  1.00  0.00     0.000 HD 
HETATM   38  C   UNL     1      -9.258  15.656  66.806  1.00  0.00    -0.275 A  
ENDBRANCH   5  23
TORSDOF 5
ENDMDL
MODEL       35
REMARK 921   NORMALIZED FREE ENERGY PREDICTED BY IDOCK:   -6.05 KCAL/MOL
REMARK 922        TOTAL FREE ENERGY PREDICTED BY IDOCK:   -9.16 KCAL/MOL
REMARK 923 INTER-LIGAND FREE ENERGY PREDICTED BY IDOCK:   -8.37 KCAL/MOL
REMARK 924 INTRA-LIGAND FREE ENERGY PREDICTED BY IDOCK:   -0.79 KCAL/MOL
REMARK 927      BINDING AFFINITY PREDICTED BY RF-SCORE:    0.00 PKD
ROOT
HETATM    1  C   UNL     1      -9.570   9.818  67.347  1.00  0.00    -0.155 C  
HETATM    2  O   UNL     1     -10.411  10.749  68.046  1.00  0.00    -0.170 OA 
HETATM    3  C   UNL     1     -10.410  12.038  67.431  1.00  0.00    -0.207 C  
HETATM    4  C   UNL     1      -8.990  12.528  67.181  1.00  0.00    -0.200 C  
HETATM    5  C   UNL     1      -8.990   8.563  68.129  1.00  0.00    -0.142 C  
HETATM    6  C   UNL     1      -7.940  11.659  67.184  1.00  0.00    -0.163 C  
HETATM    7  N   UNL     1      -8.206  10.308  67.207  1.00  0.00    -0.120 N  
HETATM    8  C   UNL     1      -6.516  12.166  67.191  1.00  0.00    -0.135 C  
HETATM    9  O   UNL     1      -6.212  13.332  67.406  1.00  0.00    -0.277 OA 
HETATM   10  O   UNL     1      -5.560  11.261  66.904  1.00  0.00    -0.072 OA 
HETATM   11  O   UNL     1      -6.427   9.127  68.105  1.00  0.00    -0.058 OA 
HETATM   12  C   UNL     1      -7.598   9.279  67.838  1.00  0.00    -0.084 C  
ENDROOT
BRANCH   4  13
HETATM   13  C   UNL     1      -8.925  14.042  67.069  1.00  0.00    -0.235 C  
BRANCH  13  14
HETATM   14  S   UNL     1     -10.479  14.907  67.428  1.00  0.00    -0.258 SA 
BRANCH  14  15
HETATM   15  C   UNL     1     -10.993  15.490  65.895  1.00  0.00    -0.264 A  
HETATM   16  N   UNL     1     -10.554  16.541  65.242  1.00  0.00    -0.624 NA 
HETATM   17  C   UNL     1     -12.757  13.728  65.430  1.00  0.00    -0.472 C  
HETATM   18  N   UNL     1     -11.307  16.610  64.095  1.00  0.00    -1.075 NA 
HETATM   19  N   UNL     1     -12.184  15.617  64.039  1.00  0.00    -0.578 NA 
HETATM   20  N   UNL     1     -11.984  14.906  65.161  1.00  0.00    -0.265 NA 
ENDBRANCH  14  15
ENDBRANCH  13  14
ENDBRANCH   4  13
BRANCH   5  21
HETATM   21  O   UNL     1      -9.131   7.285  67.452  1.00  0.00    -0.121 OA 
HETATM   22  C   UNL     1      -8.267   6.237  67.866  1.00  0.00    -0.114 C  
ENDBRANCH   5  21
BRANCH   5  23
HETATM   23  N   UNL     1      -9.367   8.553  69.581  1.00  0.00    -0.157 N  
HETATM   24  C   UNL     1     -10.893   8.257  71.489  1.00  0.00    -0.308 C  
HETATM   25  C   UNL     1     -10.625   8.162  69.993  1.00  0.00    -0.239 C  
HETATM   26  O   UNL     1     -11.471   7.716  69.218  1.00  0.00     0.226 OA 
HETATM   27  H   UNL     1      -8.681   8.841  70.278  1.00  0.00     0.000 HD 
HETATM   28  C   UNL     1     -12.367   8.390  71.846  1.00  0.00    -0.347 C  
HETATM   29  C   UNL     1     -10.229   7.132  72.282  1.00  0.00    -0.213 A  
HETATM   30  C   UNL     1      -9.865   7.353  73.624  1.00  0.00    -0.365 A  
HETATM   31  O   UNL     1     -12.737   8.910  72.894  1.00  0.00    -0.301 OA 
HETATM   32  O   UNL     1     -13.261   7.876  70.973  1.00  0.00    -0.114 OA 
HETATM   33  C   UNL     1      -9.203   6.366  74.360  1.00  0.00    -0.204 A  
HETATM   34  C   UNL     1      -8.908   5.148  73.761  1.00  0.00    -0.118 A  
HETATM   35  C   UNL     1      -9.312   4.885  72.459  1.00  0.00    -0.155 A  
HETATM   36  O   UNL     1      -8.216   4.177  74.420  1.00  0.00    -0.089 OA 
HETATM   37  H   UNL     1      -8.015   3.344  74.010  1.00  0.00     0.000 HD 
HETATM   38  C   UNL     1      -9.981   5.866  71.725  1.00  0.00    -0.200 A  
ENDBRANCH   5  23
TORSDOF 5
ENDMDL
MODEL       36
REMARK 921   NORMALIZED FREE ENERGY PREDICTED BY IDOCK:   -6.05 KCAL/MOL
REMARK 922        TOTAL FREE ENERGY PREDICTED BY IDOCK:   -9.16 KCAL/MOL
REMARK 923 INTER-LIGAND FREE ENERGY PREDICTED BY IDOCK:   -8.27 KCAL/MOL
REMARK 924 INTRA-LIGAND FREE ENERGY PREDICTED BY IDOCK:   -0.89 KCAL/MOL
REMARK 927      BINDING AFFINITY PREDICTED BY RF-SCORE:    0.00 PKD
ROOT
HETATM    1  C   UNL     1     -10.953   9.082  67.741  1.00  0.00     0.067 C  
HETATM    2  O   UNL     1     -11.201   9.744  68.991  1.00  0.00    -0.155 OA 
HETATM    3  C   UNL     1     -11.355  11.155  68.829  1.00  0.00    -0.277 C  
HETATM    4  C   UNL     1     -10.211  11.744  68.013  1.00  0.00    -0.202 C  
HETATM    5  C   UNL     1     -10.215   7.676  67.745  1.00  0.00    -0.201 C  
HETATM    6  C   UNL     1      -9.421  10.946  67.240  1.00  0.00    -0.159 C  
HETATM    7  N   UNL     1      -9.801   9.637  67.044  1.00  0.00    -0.183 N  
HETATM    8  C   UNL     1      -8.141  11.478  66.636  1.00  0.00    -0.139 C  
HETATM    9  O   UNL     1      -7.630  12.542  66.957  1.00  0.00    -0.119 OA 
HETATM   10  O   UNL     1      -7.583  10.726  65.668  1.00  0.00    -0.131 OA 
HETATM   11  O   UNL     1      -7.973   8.309  66.535  1.00  0.00    -0.097 OA 
HETATM   12  C   UNL     1      -9.089   8.491  66.970  1.00  0.00    -0.143 C  
ENDROOT
BRANCH   4  13
HETATM   13  C   UNL     1     -10.028  13.227  68.285  1.00  0.00    -0.236 C  
BRANCH  13  14
HETATM   14  S   UNL     1     -11.491  14.254  67.977  1.00  0.00    -0.333 SA 
BRANCH  14  15
HETATM   15  C   UNL     1     -11.871  13.952  66.329  1.00  0.00    -0.408 A  
HETATM   16  N   UNL     1     -12.566  12.957  65.830  1.00  0.00    -0.513 NA 
HETATM   17  C   UNL     1     -10.679  15.955  65.328  1.00  0.00    -0.424 C  
HETATM   18  N   UNL     1     -12.549  13.135  64.467  1.00  0.00    -0.647 NA 
HETATM   19  N   UNL     1     -11.864  14.222  64.136  1.00  0.00    -0.359 NA 
HETATM   20  N   UNL     1     -11.445  14.743  65.301  1.00  0.00    -0.350 NA 
ENDBRANCH  14  15
ENDBRANCH  13  14
ENDBRANCH   4  13
BRANCH   5  21
HETATM   21  O   UNL     1     -10.836   6.642  66.934  1.00  0.00    -0.341 OA 
HETATM   22  C   UNL     1     -10.054   5.492  66.645  1.00  0.00    -0.209 C  
ENDBRANCH   5  21
BRANCH   5  23
HETATM   23  N   UNL     1      -9.800   7.237  69.118  1.00  0.00    -0.164 N  
HETATM   24  C   UNL     1     -10.173   6.403  71.403  1.00  0.00    -0.228 C  
HETATM   25  C   UNL     1     -10.721   6.757  70.026  1.00  0.00    -0.247 C  
HETATM   26  O   UNL     1     -11.905   6.574  69.742  1.00  0.00    -0.345 OA 
HETATM   27  H   UNL     1      -8.818   7.294  69.385  1.00  0.00     0.000 HD 
HETATM   28  C   UNL     1     -11.215   6.442  72.512  1.00  0.00    -0.272 C  
HETATM   29  C   UNL     1      -9.402   5.084  71.413  1.00  0.00    -0.194 A  
HETATM   30  C   UNL     1      -8.376   4.889  72.358  1.00  0.00    -0.120 A  
HETATM   31  O   UNL     1     -10.909   6.630  73.685  1.00  0.00    -0.274 OA 
HETATM   32  O   UNL     1     -12.501   6.225  72.158  1.00  0.00    -0.291 OA 
HETATM   33  C   UNL     1      -7.612   3.718  72.356  1.00  0.00    -0.066 A  
HETATM   34  C   UNL     1      -7.874   2.732  71.414  1.00  0.00    -0.051 A  
HETATM   35  C   UNL     1      -8.920   2.875  70.512  1.00  0.00    -0.169 A  
HETATM   36  O   UNL     1      -7.121   1.599  71.337  1.00  0.00    -0.030 OA 
HETATM   37  H   UNL     1      -7.301   0.924  70.693  1.00  0.00     0.000 HD 
HETATM   38  C   UNL     1      -9.690   4.040  70.518  1.00  0.00    -0.258 A  
ENDBRANCH   5  23
TORSDOF 5
ENDMDL
MODEL       37
REMARK 921   NORMALIZED FREE ENERGY PREDICTED BY IDOCK:   -6.04 KCAL/MOL
REMARK 922        TOTAL FREE ENERGY PREDICTED BY IDOCK:   -9.15 KCAL/MOL
REMARK 923 INTER-LIGAND FREE ENERGY PREDICTED BY IDOCK:   -8.25 KCAL/MOL
REMARK 924 INTRA-LIGAND FREE ENERGY PREDICTED BY IDOCK:   -0.90 KCAL/MOL
REMARK 927      BINDING AFFINITY PREDICTED BY RF-SCORE:    0.00 PKD
ROOT
HETATM    1  C   UNL     1      -7.722  10.357  69.332  1.00  0.00    -0.158 C  
HETATM    2  O   UNL     1      -9.099  10.020  69.564  1.00  0.00    -0.199 OA 
HETATM    3  C   UNL     1      -9.292   8.610  69.689  1.00  0.00    -0.161 C  
HETATM    4  C   UNL     1      -8.640   7.860  68.534  1.00  0.00    -0.128 C  
HETATM    5  C   UNL     1      -7.373  11.735  68.623  1.00  0.00    -0.115 C  
HETATM    6  C   UNL     1      -7.689   8.458  67.761  1.00  0.00    -0.103 C  
HETATM    7  N   UNL     1      -7.177   9.670  68.169  1.00  0.00    -0.079 N  
HETATM    8  C   UNL     1      -7.227   7.819  66.471  1.00  0.00    -0.086 C  
HETATM    9  O   UNL     1      -7.799   6.878  65.937  1.00  0.00    -0.096 OA 
HETATM   10  O   UNL     1      -6.099   8.319  65.930  1.00  0.00    -0.044 OA 
HETATM   11  O   UNL     1      -6.344  10.867  66.369  1.00  0.00    -0.109 OA 
HETATM   12  C   UNL     1      -6.817  10.775  67.481  1.00  0.00    -0.079 C  
ENDROOT
BRANCH   4  13
HETATM   13  C   UNL     1      -9.270   6.495  68.319  1.00  0.00    -0.116 C  
BRANCH  13  14
HETATM   14  S   UNL     1     -10.992   6.346  68.869  1.00  0.00    -0.345 SA 
BRANCH  14  15
HETATM   15  C   UNL     1     -10.866   5.733  70.469  1.00  0.00    -0.278 A  
HETATM   16  N   UNL     1     -10.142   4.723  70.891  1.00  0.00    -0.219 NA 
HETATM   17  C   UNL     1     -12.463   7.356  71.587  1.00  0.00    -0.349 C  
HETATM   18  N   UNL     1     -10.417   4.601  72.233  1.00  0.00    -0.193 NA 
HETATM   19  N   UNL     1     -11.284   5.524  72.628  1.00  0.00    -0.286 NA 
HETATM   20  N   UNL     1     -11.561   6.242  71.527  1.00  0.00    -0.302 NA 
ENDBRANCH  14  15
ENDBRANCH  13  14
ENDBRANCH   4  13
BRANCH   5  21
HETATM   21  O   UNL     1      -6.336  12.523  69.266  1.00  0.00    -0.096 OA 
HETATM   22  C   UNL     1      -5.794  12.012  70.475  1.00  0.00    -0.122 C  
ENDBRANCH   5  21
BRANCH   5  23
HETATM   23  N   UNL     1      -8.592  12.508  68.216  1.00  0.00    -0.206 N  
HETATM   24  C   UNL     1      -9.803  14.398  67.207  1.00  0.00    -0.247 C  
HETATM   25  C   UNL     1      -8.491  13.685  67.503  1.00  0.00    -0.189 C  
HETATM   26  O   UNL     1      -7.418  14.119  67.082  1.00  0.00    -0.106 OA 
HETATM   27  H   UNL     1      -9.515  12.158  68.471  1.00  0.00     0.000 HD 
HETATM   28  C   UNL     1      -9.655  15.893  66.964  1.00  0.00    -0.223 C  
HETATM   29  C   UNL     1     -10.601  13.731  66.088  1.00  0.00    -0.291 A  
HETATM   30  C   UNL     1     -12.004  13.850  66.073  1.00  0.00    -0.436 A  
HETATM   31  O   UNL     1     -10.578  16.678  67.154  1.00  0.00    -0.316 OA 
HETATM   32  O   UNL     1      -8.464  16.325  66.491  1.00  0.00    -0.242 OA 
HETATM   33  C   UNL     1     -12.769  13.203  65.097  1.00  0.00    -0.468 A  
HETATM   34  C   UNL     1     -12.134  12.439  64.126  1.00  0.00    -0.453 A  
HETATM   35  C   UNL     1     -10.749  12.358  64.084  1.00  0.00    -0.414 A  
HETATM   36  O   UNL     1     -12.839  11.746  63.188  1.00  0.00    -0.843 OA 
HETATM   37  H   UNL     1     -12.404  11.224  62.524  1.00  0.00     0.000 HD 
HETATM   38  C   UNL     1      -9.983  13.011  65.052  1.00  0.00    -0.158 A  
ENDBRANCH   5  23
TORSDOF 5
ENDMDL
MODEL       38
REMARK 921   NORMALIZED FREE ENERGY PREDICTED BY IDOCK:   -6.03 KCAL/MOL
REMARK 922        TOTAL FREE ENERGY PREDICTED BY IDOCK:   -9.14 KCAL/MOL
REMARK 923 INTER-LIGAND FREE ENERGY PREDICTED BY IDOCK:   -8.07 KCAL/MOL
REMARK 924 INTRA-LIGAND FREE ENERGY PREDICTED BY IDOCK:   -1.07 KCAL/MOL
REMARK 927      BINDING AFFINITY PREDICTED BY RF-SCORE:    0.00 PKD
ROOT
HETATM    1  C   UNL     1      -8.353   8.717  69.235  1.00  0.00    -0.120 C  
HETATM    2  O   UNL     1      -8.462   9.691  70.284  1.00  0.00    -0.189 OA 
HETATM    3  C   UNL     1      -8.510   9.084  71.577  1.00  0.00    -0.022 C  
HETATM    4  C   UNL     1      -9.553   7.975  71.626  1.00  0.00    -0.218 C  
HETATM    5  C   UNL     1      -8.840   9.100  67.772  1.00  0.00    -0.124 C  
HETATM    6  C   UNL     1     -10.039   7.422  70.479  1.00  0.00    -0.191 C  
HETATM    7  N   UNL     1      -9.422   7.730  69.288  1.00  0.00    -0.155 N  
HETATM    8  C   UNL     1     -11.247   6.512  70.511  1.00  0.00    -0.344 C  
HETATM    9  O   UNL     1     -11.976   6.386  71.486  1.00  0.00    -0.327 OA 
HETATM   10  O   UNL     1     -11.478   5.791  69.397  1.00  0.00    -0.112 OA 
HETATM   11  O   UNL     1     -10.878   7.466  67.506  1.00  0.00    -0.242 OA 
HETATM   12  C   UNL     1      -9.911   7.955  68.049  1.00  0.00    -0.177 C  
ENDROOT
BRANCH   4  13
HETATM   13  C   UNL     1     -10.023   7.705  73.045  1.00  0.00    -0.285 C  
BRANCH  13  14
HETATM   14  S   UNL     1      -9.056   6.468  73.955  1.00  0.00    -0.159 SA 
BRANCH  14  15
HETATM   15  C   UNL     1      -9.873   4.990  73.641  1.00  0.00    -0.154 A  
HETATM   16  N   UNL     1     -10.904   4.486  74.278  1.00  0.00    -0.304 NA 
HETATM   17  C   UNL     1      -8.457   4.222  71.681  1.00  0.00    -0.100 C  
HETATM   18  N   UNL     1     -11.156   3.273  73.683  1.00  0.00    -0.230 NA 
HETATM   19  N   UNL     1     -10.303   3.041  72.693  1.00  0.00    -0.154 NA 
HETATM   20  N   UNL     1      -9.503   4.119  72.658  1.00  0.00    -0.125 NA 
ENDBRANCH  14  15
ENDBRANCH  13  14
ENDBRANCH   4  13
BRANCH   5  21
HETATM   21  O   UNL     1      -7.915   8.774  66.700  1.00  0.00    -0.098 OA 
HETATM   22  C   UNL     1      -8.472   8.556  65.412  1.00  0.00    -0.173 C  
ENDBRANCH   5  21
BRANCH   5  23
HETATM   23  N   UNL     1      -9.437  10.473  67.695  1.00  0.00    -0.149 N  
HETATM   24  C   UNL     1      -9.382  12.919  67.424  1.00  0.00    -0.194 C  
HETATM   25  C   UNL     1      -8.660  11.578  67.413  1.00  0.00    -0.145 C  
HETATM   26  O   UNL     1      -7.467  11.496  67.119  1.00  0.00    -0.126 OA 
HETATM   27  H   UNL     1     -10.436  10.594  67.855  1.00  0.00     0.000 HD 
HETATM   28  C   UNL     1      -8.472  14.110  67.688  1.00  0.00    -0.185 C  
HETATM   29  C   UNL     1     -10.239  13.141  66.179  1.00  0.00    -0.291 A  
HETATM   30  C   UNL     1     -11.376  13.968  66.259  1.00  0.00    -0.336 A  
HETATM   31  O   UNL     1      -8.895  15.158  68.166  1.00  0.00    -0.163 OA 
HETATM   32  O   UNL     1      -7.172  13.982  67.340  1.00  0.00    -0.178 OA 
HETATM   33  C   UNL     1     -12.214  14.146  65.154  1.00  0.00    -0.439 A  
HETATM   34  C   UNL     1     -11.917  13.503  63.960  1.00  0.00    -0.449 A  
HETATM   35  C   UNL     1     -10.768  12.731  63.839  1.00  0.00    -0.443 A  
HETATM   36  O   UNL     1     -12.733  13.600  62.873  1.00  0.00    -0.778 OA 
HETATM   37  H   UNL     1     -12.529  13.160  62.056  1.00  0.00     0.000 HD 
HETATM   38  C   UNL     1      -9.925  12.561  64.939  1.00  0.00    -0.190 A  
ENDBRANCH   5  23
TORSDOF 5
ENDMDL
MODEL       39
REMARK 921   NORMALIZED FREE ENERGY PREDICTED BY IDOCK:   -5.97 KCAL/MOL
REMARK 922        TOTAL FREE ENERGY PREDICTED BY IDOCK:   -9.06 KCAL/MOL
REMARK 923 INTER-LIGAND FREE ENERGY PREDICTED BY IDOCK:   -8.16 KCAL/MOL
REMARK 924 INTRA-LIGAND FREE ENERGY PREDICTED BY IDOCK:   -0.90 KCAL/MOL
REMARK 927      BINDING AFFINITY PREDICTED BY RF-SCORE:    0.00 PKD
ROOT
HETATM    1  C   UNL     1      -8.182   8.777  69.693  1.00  0.00    -0.113 C  
HETATM    2  O   UNL     1      -8.254   9.549  70.902  1.00  0.00    -0.291 OA 
HETATM    3  C   UNL     1      -8.237   8.722  72.067  1.00  0.00    -0.010 C  
HETATM    4  C   UNL     1      -9.266   7.603  71.964  1.00  0.00    -0.176 C  
HETATM    5  C   UNL     1      -8.739   9.403  68.343  1.00  0.00    -0.124 C  
HETATM    6  C   UNL     1      -9.797   7.252  70.759  1.00  0.00    -0.178 C  
HETATM    7  N   UNL     1      -9.237   7.777  69.615  1.00  0.00    -0.153 N  
HETATM    8  C   UNL     1     -10.993   6.330  70.680  1.00  0.00    -0.309 C  
HETATM    9  O   UNL     1     -11.676   6.020  71.647  1.00  0.00    -0.262 OA 
HETATM   10  O   UNL     1     -11.266   5.812  69.467  1.00  0.00    -0.343 OA 
HETATM   11  O   UNL     1     -10.769   7.805  67.878  1.00  0.00    -0.187 OA 
HETATM   12  C   UNL     1      -9.784   8.208  68.458  1.00  0.00    -0.162 C  
ENDROOT
BRANCH   4  13
HETATM   13  C   UNL     1      -9.669   7.078  73.331  1.00  0.00    -0.218 C  
BRANCH  13  14
HETATM   14  S   UNL     1      -8.595   5.781  74.006  1.00  0.00    -0.116 SA 
BRANCH  14  15
HETATM   15  C   UNL     1      -8.791   4.470  72.913  1.00  0.00    -0.115 A  
HETATM   16  N   UNL     1      -8.080   4.195  71.845  1.00  0.00    -0.086 NA 
HETATM   17  C   UNL     1     -10.791   3.383  74.035  1.00  0.00    -0.192 C  
HETATM   18  N   UNL     1      -8.658   3.079  71.288  1.00  0.00    -0.063 NA 
HETATM   19  N   UNL     1      -9.696   2.671  72.004  1.00  0.00    -0.136 NA 
HETATM   20  N   UNL     1      -9.778   3.534  73.030  1.00  0.00    -0.119 NA 
ENDBRANCH  14  15
ENDBRANCH  13  14
ENDBRANCH   4  13
BRANCH   5  21
HETATM   21  O   UNL     1      -7.859   9.288  67.192  1.00  0.00    -0.098 OA 
HETATM   22  C   UNL     1      -6.462   9.348  67.439  1.00  0.00    -0.063 C  
ENDBRANCH   5  21
BRANCH   5  23
HETATM   23  N   UNL     1      -9.352  10.757  68.536  1.00  0.00    -0.167 N  
HETATM   24  C   UNL     1     -10.917  12.591  68.040  1.00  0.00    -0.266 C  
HETATM   25  C   UNL     1     -10.431  11.170  67.783  1.00  0.00    -0.193 C  
HETATM   26  O   UNL     1     -11.008  10.432  66.984  1.00  0.00    -0.244 OA 
HETATM   27  H   UNL     1      -8.964  11.387  69.238  1.00  0.00     0.000 HD 
HETATM   28  C   UNL     1     -11.667  13.210  66.869  1.00  0.00    -0.387 C  
HETATM   29  C   UNL     1     -11.711  12.720  69.339  1.00  0.00    -0.380 A  
HETATM   30  C   UNL     1     -11.725  13.951  70.023  1.00  0.00    -0.338 A  
HETATM   31  O   UNL     1     -11.733  14.424  66.709  1.00  0.00    -0.371 OA 
HETATM   32  O   UNL     1     -12.296  12.364  66.024  1.00  0.00    -0.627 OA 
HETATM   33  C   UNL     1     -12.392  14.086  71.244  1.00  0.00    -0.436 A  
HETATM   34  C   UNL     1     -13.057  12.993  71.784  1.00  0.00    -0.373 A  
HETATM   35  C   UNL     1     -13.109  11.787  71.099  1.00  0.00    -0.145 A  
HETATM   36  O   UNL     1     -13.675  13.061  72.997  1.00  0.00    -0.600 OA 
HETATM   37  H   UNL     1     -14.130  12.313  73.367  1.00  0.00     0.000 HD 
HETATM   38  C   UNL     1     -12.450  11.652  69.875  1.00  0.00    -0.123 A  
ENDBRANCH   5  23
TORSDOF 5
ENDMDL
MODEL       40
REMARK 921   NORMALIZED FREE ENERGY PREDICTED BY IDOCK:   -5.95 KCAL/MOL
REMARK 922        TOTAL FREE ENERGY PREDICTED BY IDOCK:   -9.04 KCAL/MOL
REMARK 923 INTER-LIGAND FREE ENERGY PREDICTED BY IDOCK:   -7.21 KCAL/MOL
REMARK 924 INTRA-LIGAND FREE ENERGY PREDICTED BY IDOCK:   -1.83 KCAL/MOL
REMARK 927      BINDING AFFINITY PREDICTED BY RF-SCORE:    0.00 PKD
ROOT
HETATM    1  C   UNL     1      -8.817  12.096  67.721  1.00  0.00    -0.172 C  
HETATM    2  O   UNL     1      -7.766  11.198  68.109  1.00  0.00    -0.098 OA 
HETATM    3  C   UNL     1      -6.810  11.008  67.064  1.00  0.00    -0.109 C  
HETATM    4  C   UNL     1      -7.494  10.657  65.749  1.00  0.00    -0.114 C  
HETATM    5  C   UNL     1     -10.219  12.010  68.464  1.00  0.00    -0.212 C  
HETATM    6  C   UNL     1      -8.822  10.905  65.564  1.00  0.00    -0.188 C  
HETATM    7  N   UNL     1      -9.485  11.666  66.501  1.00  0.00    -0.200 N  
HETATM    8  C   UNL     1      -9.557  10.332  64.373  1.00  0.00    -0.316 C  
HETATM    9  O   UNL     1      -9.093   9.468  63.641  1.00  0.00    -0.225 OA 
HETATM   10  O   UNL     1     -10.771  10.856  64.115  1.00  0.00    -0.362 OA 
HETATM   11  O   UNL     1     -11.754  11.199  66.495  1.00  0.00    -0.234 OA 
HETATM   12  C   UNL     1     -10.730  11.577  67.019  1.00  0.00    -0.259 C  
ENDROOT
BRANCH   4  13
HETATM   13  C   UNL     1      -6.559   9.922  64.804  1.00  0.00    -0.121 C  
BRANCH  13  14
HETATM   14  S   UNL     1      -5.587   8.591  65.563  1.00  0.00    -0.043 SA 
BRANCH  14  15
HETATM   15  C   UNL     1      -6.679   7.266  65.627  1.00  0.00    -0.052 A  
HETATM   16  N   UNL     1      -7.020   6.454  64.654  1.00  0.00    -0.049 NA 
HETATM   17  C   UNL     1      -7.324   7.468  68.072  1.00  0.00    -0.096 C  
HETATM   18  N   UNL     1      -7.950   5.596  65.191  1.00  0.00    -0.106 NA 
HETATM   19  N   UNL     1      -8.168   5.869  66.471  1.00  0.00    -0.109 NA 
HETATM   20  N   UNL     1      -7.366   6.910  66.751  1.00  0.00    -0.076 NA 
ENDBRANCH  14  15
ENDBRANCH  13  14
ENDBRANCH   4  13
BRANCH   5  21
HETATM   21  O   UNL     1     -10.768  13.279  68.910  1.00  0.00    -0.242 OA 
HETATM   22  C   UNL     1     -10.057  14.453  68.546  1.00  0.00    -0.244 C  
ENDBRANCH   5  21
BRANCH   5  23
HETATM   23  N   UNL     1     -10.278  10.906  69.477  1.00  0.00    -0.429 N  
HETATM   24  C   UNL     1     -11.398   9.331  71.000  1.00  0.00    -0.390 C  
HETATM   25  C   UNL     1     -11.484  10.409  69.928  1.00  0.00    -0.297 C  
HETATM   26  O   UNL     1     -12.567  10.769  69.467  1.00  0.00    -0.293 OA 
HETATM   27  H   UNL     1      -9.410  10.514  69.840  1.00  0.00     0.000 HD 
HETATM   28  C   UNL     1     -12.644   9.221  71.867  1.00  0.00    -0.390 C  
HETATM   29  C   UNL     1     -10.991   7.969  70.440  1.00  0.00    -0.248 A  
HETATM   30  C   UNL     1     -10.311   7.055  71.268  1.00  0.00    -0.217 A  
HETATM   31  O   UNL     1     -12.606   8.764  73.005  1.00  0.00    -0.225 OA 
HETATM   32  O   UNL     1     -13.815   9.616  71.318  1.00  0.00    -0.276 OA 
HETATM   33  C   UNL     1      -9.871   5.825  70.770  1.00  0.00    -0.235 A  
HETATM   34  C   UNL     1     -10.116   5.497  69.443  1.00  0.00    -0.236 A  
HETATM   35  C   UNL     1     -10.837   6.356  68.624  1.00  0.00    -0.379 A  
HETATM   36  O   UNL     1      -9.659   4.335  68.898  1.00  0.00    -0.160 OA 
HETATM   37  H   UNL     1      -9.826   4.111  67.990  1.00  0.00     0.000 HD 
HETATM   38  C   UNL     1     -11.285   7.581  69.122  1.00  0.00     0.187 A  
ENDBRANCH   5  23
TORSDOF 5
ENDMDL
MODEL       41
REMARK 921   NORMALIZED FREE ENERGY PREDICTED BY IDOCK:   -5.94 KCAL/MOL
REMARK 922        TOTAL FREE ENERGY PREDICTED BY IDOCK:   -9.02 KCAL/MOL
REMARK 923 INTER-LIGAND FREE ENERGY PREDICTED BY IDOCK:   -8.69 KCAL/MOL
REMARK 924 INTRA-LIGAND FREE ENERGY PREDICTED BY IDOCK:   -0.33 KCAL/MOL
REMARK 927      BINDING AFFINITY PREDICTED BY RF-SCORE:    0.00 PKD
ROOT
HETATM    1  C   UNL     1     -10.130  11.915  67.206  1.00  0.00    -0.196 C  
HETATM    2  O   UNL     1     -10.864  12.543  68.268  1.00  0.00    -0.216 OA 
HETATM    3  C   UNL     1     -10.771  13.968  68.214  1.00  0.00    -0.254 C  
HETATM    4  C   UNL     1      -9.322  14.421  68.087  1.00  0.00    -0.203 C  
HETATM    5  C   UNL     1      -9.636  10.416  67.389  1.00  0.00    -0.154 C  
HETATM    6  C   UNL     1      -8.352  13.554  67.680  1.00  0.00    -0.179 C  
HETATM    7  N   UNL     1      -8.733  12.327  67.184  1.00  0.00    -0.186 N  
HETATM    8  C   UNL     1      -6.890  13.920  67.797  1.00  0.00    -0.175 C  
HETATM    9  O   UNL     1      -6.479  14.880  68.435  1.00  0.00    -0.093 OA 
HETATM   10  O   UNL     1      -6.026  13.143  67.115  1.00  0.00    -0.318 OA 
HETATM   11  O   UNL     1      -7.036  10.770  67.427  1.00  0.00    -0.078 OA 
HETATM   12  C   UNL     1      -8.198  11.094  67.316  1.00  0.00    -0.136 C  
ENDROOT
BRANCH   4  13
HETATM   13  C   UNL     1      -9.130  15.845  68.580  1.00  0.00    -0.200 C  
BRANCH  13  14
HETATM   14  S   UNL     1     -10.041  17.110  67.651  1.00  0.00    -0.317 SA 
BRANCH  14  15
HETATM   15  C   UNL     1      -8.828  17.897  66.723  1.00  0.00    -0.258 A  
HETATM   16  N   UNL     1      -7.784  17.358  66.136  1.00  0.00    -0.431 NA 
HETATM   17  C   UNL     1      -9.726  20.261  66.913  1.00  0.00    -0.444 C  
HETATM   18  N   UNL     1      -7.097  18.402  65.563  1.00  0.00    -0.542 NA 
HETATM   19  N   UNL     1      -7.711  19.557  65.785  1.00  0.00    -0.427 NA 
HETATM   20  N   UNL     1      -8.802  19.243  66.504  1.00  0.00    -0.333 NA 
ENDBRANCH  14  15
ENDBRANCH  13  14
ENDBRANCH   4  13
BRANCH   5  21
HETATM   21  O   UNL     1      -9.909   9.527  66.273  1.00  0.00    -0.226 OA 
HETATM   22  C   UNL     1      -9.558   9.992  64.978  1.00  0.00    -0.297 C  
ENDBRANCH   5  21
BRANCH   5  23
HETATM   23  N   UNL     1      -9.967   9.853  68.739  1.00  0.00    -0.166 N  
HETATM   24  C   UNL     1     -10.668   8.098  70.316  1.00  0.00    -0.235 C  
HETATM   25  C   UNL     1     -10.297   8.523  68.901  1.00  0.00    -0.210 C  
HETATM   26  O   UNL     1     -10.251   7.708  67.979  1.00  0.00    -0.186 OA 
HETATM   27  H   UNL     1      -9.947  10.465  69.555  1.00  0.00     0.000 HD 
HETATM   28  C   UNL     1     -11.552   6.860  70.378  1.00  0.00    -0.335 C  
HETATM   29  C   UNL     1      -9.453   7.958  71.231  1.00  0.00    -0.184 A  
HETATM   30  C   UNL     1      -9.603   8.158  72.617  1.00  0.00    -0.352 A  
HETATM   31  O   UNL     1     -12.293   6.638  71.330  1.00  0.00    -0.352 OA 
HETATM   32  O   UNL     1     -11.461   5.986  69.351  1.00  0.00    -0.372 OA 
HETATM   33  C   UNL     1      -8.500   8.097  73.475  1.00  0.00    -0.310 A  
HETATM   34  C   UNL     1      -7.242   7.827  72.953  1.00  0.00    -0.087 A  
HETATM   35  C   UNL     1      -7.079   7.566  71.599  1.00  0.00    -0.062 A  
HETATM   36  O   UNL     1      -6.130   7.812  73.740  1.00  0.00    -0.066 OA 
HETATM   37  H   UNL     1      -5.269   7.627  73.383  1.00  0.00     0.000 HD 
HETATM   38  C   UNL     1      -8.180   7.618  70.742  1.00  0.00    -0.109 A  
ENDBRANCH   5  23
TORSDOF 5
ENDMDL
MODEL       42
REMARK 921   NORMALIZED FREE ENERGY PREDICTED BY IDOCK:   -5.94 KCAL/MOL
REMARK 922        TOTAL FREE ENERGY PREDICTED BY IDOCK:   -9.02 KCAL/MOL
REMARK 923 INTER-LIGAND FREE ENERGY PREDICTED BY IDOCK:   -8.29 KCAL/MOL
REMARK 924 INTRA-LIGAND FREE ENERGY PREDICTED BY IDOCK:   -0.73 KCAL/MOL
REMARK 927      BINDING AFFINITY PREDICTED BY RF-SCORE:    0.00 PKD
ROOT
HETATM    1  C   UNL     1     -10.189   9.349  68.189  1.00  0.00    -0.200 C  
HETATM    2  O   UNL     1     -10.263   9.331  66.755  1.00  0.00    -0.242 OA 
HETATM    3  C   UNL     1      -9.830   8.082  66.211  1.00  0.00    -0.091 C  
HETATM    4  C   UNL     1      -8.479   7.671  66.784  1.00  0.00    -0.127 C  
HETATM    5  C   UNL     1     -10.072  10.745  68.938  1.00  0.00    -0.205 C  
HETATM    6  C   UNL     1      -8.005   8.236  67.930  1.00  0.00    -0.123 C  
HETATM    7  N   UNL     1      -8.854   9.025  68.674  1.00  0.00    -0.136 N  
HETATM    8  C   UNL     1      -6.571   8.025  68.361  1.00  0.00    -0.059 C  
HETATM    9  O   UNL     1      -5.711   7.539  67.639  1.00  0.00    -0.032 OA 
HETATM   10  O   UNL     1      -6.274   8.370  69.628  1.00  0.00    -0.035 OA 
HETATM   11  O   UNL     1      -7.665  10.537  69.965  1.00  0.00    -0.098 OA 
HETATM   12  C   UNL     1      -8.651  10.168  69.365  1.00  0.00    -0.174 C  
ENDROOT
BRANCH   4  13
HETATM   13  C   UNL     1      -7.748   6.705  65.868  1.00  0.00    -0.091 C  
BRANCH  13  14
HETATM   14  S   UNL     1      -8.010   4.948  66.234  1.00  0.00    -0.107 SA 
BRANCH  14  15
HETATM   15  C   UNL     1      -9.251   4.477  65.143  1.00  0.00    -0.157 A  
HETATM   16  N   UNL     1     -10.539   4.382  65.378  1.00  0.00    -0.233 NA 
HETATM   17  C   UNL     1      -7.788   4.063  63.113  1.00  0.00    -0.074 C  
HETATM   18  N   UNL     1     -11.100   3.926  64.209  1.00  0.00    -0.285 NA 
HETATM   19  N   UNL     1     -10.177   3.753  63.272  1.00  0.00    -0.183 NA 
HETATM   20  N   UNL     1      -9.017   4.107  63.851  1.00  0.00    -0.132 NA 
ENDBRANCH  14  15
ENDBRANCH  13  14
ENDBRANCH   4  13
BRANCH   5  21
HETATM   21  O   UNL     1     -10.977  10.929  70.059  1.00  0.00    -0.248 OA 
HETATM   22  C   UNL     1     -11.620   9.769  70.567  1.00  0.00    -0.292 C  
ENDBRANCH   5  21
BRANCH   5  23
HETATM   23  N   UNL     1      -9.989  11.909  67.996  1.00  0.00    -0.185 N  
HETATM   24  C   UNL     1     -10.840  13.468  66.293  1.00  0.00    -0.291 C  
HETATM   25  C   UNL     1     -11.080  12.310  67.253  1.00  0.00    -0.275 C  
HETATM   26  O   UNL     1     -12.196  11.807  67.383  1.00  0.00    -0.501 OA 
HETATM   27  H   UNL     1      -9.108  12.414  67.902  1.00  0.00     0.000 HD 
HETATM   28  C   UNL     1     -11.812  13.513  65.122  1.00  0.00    -0.343 C  
HETATM   29  C   UNL     1     -10.763  14.819  67.001  1.00  0.00    -0.300 A  
HETATM   30  C   UNL     1     -10.001  15.857  66.432  1.00  0.00    -0.304 A  
HETATM   31  O   UNL     1     -11.525  14.054  64.059  1.00  0.00    -0.267 OA 
HETATM   32  O   UNL     1     -13.031  12.959  65.312  1.00  0.00    -0.703 OA 
HETATM   33  C   UNL     1      -9.861  17.086  67.084  1.00  0.00    -0.269 A  
HETATM   34  C   UNL     1     -10.489  17.288  68.305  1.00  0.00    -0.385 A  
HETATM   35  C   UNL     1     -11.296  16.301  68.857  1.00  0.00    -0.317 A  
HETATM   36  O   UNL     1     -10.338  18.447  69.004  1.00  0.00    -0.471 OA 
HETATM   37  H   UNL     1     -10.768  18.585  69.840  1.00  0.00     0.000 HD 
HETATM   38  C   UNL     1     -11.444  15.077  68.203  1.00  0.00    -0.355 A  
ENDBRANCH   5  23
TORSDOF 5
ENDMDL
MODEL       43
REMARK 921   NORMALIZED FREE ENERGY PREDICTED BY IDOCK:   -5.92 KCAL/MOL
REMARK 922        TOTAL FREE ENERGY PREDICTED BY IDOCK:   -8.99 KCAL/MOL
REMARK 923 INTER-LIGAND FREE ENERGY PREDICTED BY IDOCK:   -8.29 KCAL/MOL
REMARK 924 INTRA-LIGAND FREE ENERGY PREDICTED BY IDOCK:   -0.71 KCAL/MOL
REMARK 927      BINDING AFFINITY PREDICTED BY RF-SCORE:    0.00 PKD
ROOT
HETATM    1  C   UNL     1      -9.805   9.852  68.882  1.00  0.00    -0.176 C  
HETATM    2  O   UNL     1      -8.695  10.023  69.776  1.00  0.00    -0.196 OA 
HETATM    3  C   UNL     1      -8.645   8.999  70.772  1.00  0.00    -0.217 C  
HETATM    4  C   UNL     1      -9.995   8.831  71.457  1.00  0.00    -0.370 C  
HETATM    5  C   UNL     1     -10.369  11.114  68.100  1.00  0.00    -0.187 C  
HETATM    6  C   UNL     1     -11.133   9.319  70.888  1.00  0.00    -0.306 C  
HETATM    7  N   UNL     1     -11.075   9.777  69.590  1.00  0.00    -0.235 N  
HETATM    8  C   UNL     1     -12.424   9.383  71.672  1.00  0.00    -0.378 C  
HETATM    9  O   UNL     1     -12.492   9.217  72.883  1.00  0.00    -0.102 OA 
HETATM   10  O   UNL     1     -13.545   9.601  70.957  1.00  0.00    -0.309 OA 
HETATM   11  O   UNL     1     -12.753  11.319  69.178  1.00  0.00    -0.205 OA 
HETATM   12  C   UNL     1     -11.666  10.824  68.975  1.00  0.00    -0.286 C  
ENDROOT
BRANCH   4  13
HETATM   13  C   UNL     1      -9.855   8.202  72.833  1.00  0.00    -0.268 C  
BRANCH  13  14
HETATM   14  S   UNL     1      -8.829   6.707  72.895  1.00  0.00    -0.124 SA 
BRANCH  14  15
HETATM   15  C   UNL     1      -9.959   5.437  73.138  1.00  0.00    -0.169 A  
HETATM   16  N   UNL     1     -11.260   5.531  73.290  1.00  0.00    -0.272 NA 
HETATM   17  C   UNL     1      -8.317   3.503  73.111  1.00  0.00    -0.079 C  
HETATM   18  N   UNL     1     -11.706   4.248  73.498  1.00  0.00    -0.115 NA 
HETATM   19  N   UNL     1     -10.702   3.382  73.466  1.00  0.00    -0.196 NA 
HETATM   20  N   UNL     1      -9.606   4.122  73.231  1.00  0.00    -0.114 NA 
ENDBRANCH  14  15
ENDBRANCH  13  14
ENDBRANCH   4  13
BRANCH   5  21
HETATM   21  O   UNL     1     -10.582  10.923  66.675  1.00  0.00    -0.246 OA 
HETATM   22  C   UNL     1     -11.202  11.986  65.967  1.00  0.00    -0.335 C  
ENDBRANCH   5  21
BRANCH   5  23
HETATM   23  N   UNL     1      -9.670  12.390  68.467  1.00  0.00    -0.355 N  
HETATM   24  C   UNL     1      -7.820  14.012  68.432  1.00  0.00    -0.144 C  
HETATM   25  C   UNL     1      -8.444  12.717  67.927  1.00  0.00    -0.173 C  
HETATM   26  O   UNL     1      -7.897  12.042  67.054  1.00  0.00    -0.160 OA 
HETATM   27  H   UNL     1     -10.110  13.028  69.130  1.00  0.00     0.000 HD 
HETATM   28  C   UNL     1      -6.304  14.063  68.297  1.00  0.00    -0.114 C  
HETATM   29  C   UNL     1      -8.472  15.257  67.833  1.00  0.00    -0.151 A  
HETATM   30  C   UNL     1      -8.466  16.461  68.563  1.00  0.00    -0.211 A  
HETATM   31  O   UNL     1      -5.611  14.773  69.018  1.00  0.00    -0.091 OA 
HETATM   32  O   UNL     1      -5.747  13.315  67.319  1.00  0.00    -0.352 OA 
HETATM   33  C   UNL     1      -9.105  17.603  68.070  1.00  0.00    -0.267 A  
HETATM   34  C   UNL     1      -9.747  17.550  66.840  1.00  0.00    -0.291 A  
HETATM   35  C   UNL     1      -9.714  16.392  66.074  1.00  0.00    -0.356 A  
HETATM   36  O   UNL     1     -10.430  18.619  66.344  1.00  0.00    -0.403 OA 
HETATM   37  H   UNL     1     -10.870  18.582  65.502  1.00  0.00     0.000 HD 
HETATM   38  C   UNL     1      -9.069  15.253  66.561  1.00  0.00    -0.334 A  
ENDBRANCH   5  23
TORSDOF 5
ENDMDL
MODEL       44
REMARK 921   NORMALIZED FREE ENERGY PREDICTED BY IDOCK:   -5.91 KCAL/MOL
REMARK 922        TOTAL FREE ENERGY PREDICTED BY IDOCK:   -8.98 KCAL/MOL
REMARK 923 INTER-LIGAND FREE ENERGY PREDICTED BY IDOCK:   -8.15 KCAL/MOL
REMARK 924 INTRA-LIGAND FREE ENERGY PREDICTED BY IDOCK:   -0.84 KCAL/MOL
REMARK 927      BINDING AFFINITY PREDICTED BY RF-SCORE:    0.00 PKD
ROOT
HETATM    1  C   UNL     1     -10.589   8.993  68.659  1.00  0.00    -0.160 C  
HETATM    2  O   UNL     1     -10.604   8.779  67.239  1.00  0.00    -0.286 OA 
HETATM    3  C   UNL     1     -10.332   7.418  66.899  1.00  0.00    -0.296 C  
HETATM    4  C   UNL     1      -9.080   6.913  67.605  1.00  0.00    -0.118 C  
HETATM    5  C   UNL     1     -10.304  10.453  69.217  1.00  0.00    -0.230 C  
HETATM    6  C   UNL     1      -8.579   7.567  68.691  1.00  0.00    -0.129 C  
HETATM    7  N   UNL     1      -9.336   8.563  69.266  1.00  0.00    -0.153 N  
HETATM    8  C   UNL     1      -7.210   7.226  69.235  1.00  0.00    -0.081 C  
HETATM    9  O   UNL     1      -6.398   6.529  68.642  1.00  0.00    -0.034 OA 
HETATM   10  O   UNL     1      -6.920   7.705  70.460  1.00  0.00    -0.046 OA 
HETATM   11  O   UNL     1      -7.999  10.068  70.411  1.00  0.00    -0.204 OA 
HETATM   12  C   UNL     1      -9.001   9.755  69.807  1.00  0.00    -0.221 C  
ENDROOT
BRANCH   4  13
HETATM   13  C   UNL     1      -8.456   5.735  66.877  1.00  0.00    -0.108 C  
BRANCH  13  14
HETATM   14  S   UNL     1      -9.189   4.119  67.256  1.00  0.00    -0.171 SA 
BRANCH  14  15
HETATM   15  C   UNL     1      -8.966   3.950  68.951  1.00  0.00    -0.120 A  
HETATM   16  N   UNL     1      -9.818   4.229  69.910  1.00  0.00    -0.221 NA 
HETATM   17  C   UNL     1      -6.590   3.061  68.899  1.00  0.00    -0.033 C  
HETATM   18  N   UNL     1      -9.157   3.969  71.086  1.00  0.00    -0.111 NA 
HETATM   19  N   UNL     1      -7.926   3.530  70.855  1.00  0.00    -0.056 NA 
HETATM   20  N   UNL     1      -7.805   3.509  69.517  1.00  0.00    -0.051 NA 
ENDBRANCH  14  15
ENDBRANCH  13  14
ENDBRANCH   4  13
BRANCH   5  21
HETATM   21  O   UNL     1     -11.221  10.918  70.244  1.00  0.00    -0.283 OA 
HETATM   22  C   UNL     1     -11.870   9.926  71.026  1.00  0.00    -0.376 C  
ENDBRANCH   5  21
BRANCH   5  23
HETATM   23  N   UNL     1     -10.014  11.447  68.133  1.00  0.00    -0.182 N  
HETATM   24  C   UNL     1     -10.532  12.783  66.132  1.00  0.00    -0.284 C  
HETATM   25  C   UNL     1     -10.978  11.809  67.215  1.00  0.00    -0.267 C  
HETATM   26  O   UNL     1     -12.144  11.417  67.282  1.00  0.00    -0.464 OA 
HETATM   27  H   UNL     1      -9.086  11.864  68.072  1.00  0.00     0.000 HD 
HETATM   28  C   UNL     1     -11.366  12.718  64.860  1.00  0.00    -0.306 C  
HETATM   29  C   UNL     1     -10.407  14.218  66.640  1.00  0.00    -0.279 A  
HETATM   30  C   UNL     1      -9.495  15.095  66.021  1.00  0.00    -0.358 A  
HETATM   31  O   UNL     1     -10.919  13.065  63.771  1.00  0.00    -0.392 OA 
HETATM   32  O   UNL     1     -12.643  12.294  64.981  1.00  0.00    -0.575 OA 
HETATM   33  C   UNL     1      -9.313  16.396  66.499  1.00  0.00    -0.300 A  
HETATM   34  C   UNL     1     -10.047  16.831  67.595  1.00  0.00    -0.275 A  
HETATM   35  C   UNL     1     -10.995  16.005  68.184  1.00  0.00    -0.339 A  
HETATM   36  O   UNL     1      -9.864  18.070  68.130  1.00  0.00    -0.306 OA 
HETATM   37  H   UNL     1     -10.366  18.368  68.880  1.00  0.00     0.000 HD 
HETATM   38  C   UNL     1     -11.185  14.709  67.702  1.00  0.00    -0.332 A  
ENDBRANCH   5  23
TORSDOF 5
ENDMDL
MODEL       45
REMARK 921   NORMALIZED FREE ENERGY PREDICTED BY IDOCK:   -5.90 KCAL/MOL
REMARK 922        TOTAL FREE ENERGY PREDICTED BY IDOCK:   -8.97 KCAL/MOL
REMARK 923 INTER-LIGAND FREE ENERGY PREDICTED BY IDOCK:   -9.38 KCAL/MOL
REMARK 924 INTRA-LIGAND FREE ENERGY PREDICTED BY IDOCK:    0.40 KCAL/MOL
REMARK 927      BINDING AFFINITY PREDICTED BY RF-SCORE:    0.00 PKD
ROOT
HETATM    1  C   UNL     1      -8.539   9.630  69.862  1.00  0.00    -0.203 C  
HETATM    2  O   UNL     1      -9.713   9.876  70.650  1.00  0.00    -0.158 OA 
HETATM    3  C   UNL     1     -10.329   8.663  71.087  1.00  0.00    -0.230 C  
HETATM    4  C   UNL     1     -10.532   7.698  69.925  1.00  0.00    -0.231 C  
HETATM    5  C   UNL     1      -8.047  10.743  68.840  1.00  0.00    -0.145 C  
HETATM    6  C   UNL     1      -9.844   7.855  68.759  1.00  0.00    -0.167 C  
HETATM    7  N   UNL     1      -8.812   8.766  68.722  1.00  0.00    -0.134 N  
HETATM    8  C   UNL     1     -10.223   7.066  67.526  1.00  0.00    -0.199 C  
HETATM    9  O   UNL     1     -11.260   6.424  67.423  1.00  0.00    -0.352 OA 
HETATM   10  O   UNL     1      -9.326   7.065  66.521  1.00  0.00    -0.160 OA 
HETATM   11  O   UNL     1      -8.434   9.504  66.559  1.00  0.00    -0.124 OA 
HETATM   12  C   UNL     1      -8.400   9.625  67.764  1.00  0.00    -0.121 C  
ENDROOT
BRANCH   4  13
HETATM   13  C   UNL     1     -11.638   6.696  70.209  1.00  0.00    -0.395 C  
BRANCH  13  14
HETATM   14  S   UNL     1     -12.013   6.440  71.966  1.00  0.00    -0.275 SA 
BRANCH  14  15
HETATM   15  C   UNL     1     -10.734   5.435  72.521  1.00  0.00    -0.237 A  
HETATM   16  N   UNL     1     -10.398   4.243  72.086  1.00  0.00    -0.160 NA 
HETATM   17  C   UNL     1      -9.845   6.976  74.330  1.00  0.00    -0.212 C  
HETATM   18  N   UNL     1      -9.348   3.840  72.877  1.00  0.00    -0.105 NA 
HETATM   19  N   UNL     1      -9.040   4.769  73.772  1.00  0.00    -0.116 NA 
HETATM   20  N   UNL     1      -9.901   5.775  73.546  1.00  0.00    -0.159 NA 
ENDBRANCH  14  15
ENDBRANCH  13  14
ENDBRANCH   4  13
BRANCH   5  21
HETATM   21  O   UNL     1      -6.630  11.059  68.896  1.00  0.00    -0.050 OA 
HETATM   22  C   UNL     1      -6.258  12.404  68.632  1.00  0.00    -0.069 C  
ENDBRANCH   5  21
BRANCH   5  23
HETATM   23  N   UNL     1      -8.957  11.934  68.790  1.00  0.00    -0.383 N  
HETATM   24  C   UNL     1     -10.925  13.209  68.045  1.00  0.00    -0.270 C  
HETATM   25  C   UNL     1     -10.125  11.913  68.056  1.00  0.00    -0.195 C  
HETATM   26  O   UNL     1     -10.534  10.903  67.482  1.00  0.00    -0.192 OA 
HETATM   27  H   UNL     1      -8.708  12.776  69.309  1.00  0.00     0.000 HD 
HETATM   28  C   UNL     1     -11.835  13.364  66.834  1.00  0.00    -0.403 C  
HETATM   29  C   UNL     1     -11.689  13.446  69.346  1.00  0.00    -0.382 A  
HETATM   30  C   UNL     1     -11.974  14.764  69.752  1.00  0.00    -0.368 A  
HETATM   31  O   UNL     1     -12.192  14.464  66.425  1.00  0.00    -0.417 OA 
HETATM   32  O   UNL     1     -12.271  12.230  66.241  1.00  0.00    -0.628 OA 
HETATM   33  C   UNL     1     -12.618  15.019  70.966  1.00  0.00    -0.416 A  
HETATM   34  C   UNL     1     -12.989  13.955  71.779  1.00  0.00    -0.358 A  
HETATM   35  C   UNL     1     -12.774  12.645  71.372  1.00  0.00    -0.347 A  
HETATM   36  O   UNL     1     -13.569  14.155  72.996  1.00  0.00    -0.651 OA 
HETATM   37  H   UNL     1     -13.823  13.427  73.552  1.00  0.00     0.000 HD 
HETATM   38  C   UNL     1     -12.139  12.389  70.156  1.00  0.00    -0.366 A  
ENDBRANCH   5  23
TORSDOF 5
ENDMDL
MODEL       46
REMARK 921   NORMALIZED FREE ENERGY PREDICTED BY IDOCK:   -5.87 KCAL/MOL
REMARK 922        TOTAL FREE ENERGY PREDICTED BY IDOCK:   -8.93 KCAL/MOL
REMARK 923 INTER-LIGAND FREE ENERGY PREDICTED BY IDOCK:   -8.05 KCAL/MOL
REMARK 924 INTRA-LIGAND FREE ENERGY PREDICTED BY IDOCK:   -0.88 KCAL/MOL
REMARK 927      BINDING AFFINITY PREDICTED BY RF-SCORE:    0.00 PKD
ROOT
HETATM    1  C   UNL     1     -10.256  12.169  65.278  1.00  0.00    -0.274 C  
HETATM    2  O   UNL     1      -8.874  11.827  65.460  1.00  0.00     0.000 OA 
HETATM    3  C   UNL     1      -8.710  10.490  65.935  1.00  0.00    -0.167 C  
HETATM    4  C   UNL     1      -9.595  10.223  67.146  1.00  0.00    -0.199 C  
HETATM    5  C   UNL     1     -10.685  13.698  65.312  1.00  0.00    -0.336 C  
HETATM    6  C   UNL     1     -10.654  11.034  67.429  1.00  0.00    -0.237 C  
HETATM    7  N   UNL     1     -11.036  11.967  66.492  1.00  0.00    -0.299 N  
HETATM    8  C   UNL     1     -11.374  10.930  68.754  1.00  0.00    -0.292 C  
HETATM    9  O   UNL     1     -10.948  10.297  69.711  1.00  0.00    -0.249 OA 
HETATM   10  O   UNL     1     -12.566  11.553  68.834  1.00  0.00    -0.203 OA 
HETATM   11  O   UNL     1     -12.153  13.735  67.488  1.00  0.00    -0.384 OA 
HETATM   12  C   UNL     1     -11.481  13.237  66.611  1.00  0.00    -0.347 C  
ENDROOT
BRANCH   4  13
HETATM   13  C   UNL     1      -9.066   9.078  67.992  1.00  0.00    -0.136 C  
BRANCH  13  14
HETATM   14  S   UNL     1      -7.567   8.278  67.355  1.00  0.00    -0.099 SA 
BRANCH  14  15
HETATM   15  C   UNL     1      -8.155   6.882  66.544  1.00  0.00    -0.111 A  
HETATM   16  N   UNL     1      -9.402   6.499  66.396  1.00  0.00    -0.160 NA 
HETATM   17  C   UNL     1      -5.915   5.931  65.826  1.00  0.00    -0.028 C  
HETATM   18  N   UNL     1      -9.348   5.304  65.719  1.00  0.00    -0.158 NA 
HETATM   19  N   UNL     1      -8.095   4.965  65.448  1.00  0.00    -0.110 NA 
HETATM   20  N   UNL     1      -7.344   5.956  65.955  1.00  0.00    -0.075 NA 
ENDBRANCH  14  15
ENDBRANCH  13  14
ENDBRANCH   4  13
BRANCH   5  21
HETATM   21  O   UNL     1     -11.553  14.127  64.229  1.00  0.00    -0.372 OA 
HETATM   22  C   UNL     1     -12.035  13.121  63.351  1.00  0.00    -0.483 C  
ENDBRANCH   5  21
BRANCH   5  23
HETATM   23  N   UNL     1      -9.539  14.620  65.606  1.00  0.00    -0.521 N  
HETATM   24  C   UNL     1      -8.502  16.740  66.302  1.00  0.00    -0.342 C  
HETATM   25  C   UNL     1      -9.749  15.888  66.106  1.00  0.00    -0.321 C  
HETATM   26  O   UNL     1     -10.864  16.303  66.426  1.00  0.00    -0.236 OA 
HETATM   27  H   UNL     1      -8.586  14.303  65.432  1.00  0.00     0.000 HD 
HETATM   28  C   UNL     1      -8.767  18.239  66.284  1.00  0.00    -0.178 C  
HETATM   29  C   UNL     1      -7.695  16.334  67.534  1.00  0.00    -0.169 A  
HETATM   30  C   UNL     1      -6.305  16.561  67.557  1.00  0.00    -0.187 A  
HETATM   31  O   UNL     1      -7.897  19.049  65.982  1.00  0.00    -0.360 OA 
HETATM   32  O   UNL     1     -10.000  18.651  66.654  1.00  0.00    -0.323 OA 
HETATM   33  C   UNL     1      -5.528  16.148  68.644  1.00  0.00    -0.105 A  
HETATM   34  C   UNL     1      -6.137  15.512  69.718  1.00  0.00    -0.153 A  
HETATM   35  C   UNL     1      -7.514  15.332  69.745  1.00  0.00    -0.122 A  
HETATM   36  O   UNL     1      -5.415  15.042  70.773  1.00  0.00    -0.135 OA 
HETATM   37  H   UNL     1      -5.832  14.608  71.508  1.00  0.00     0.000 HD 
HETATM   38  C   UNL     1      -8.293  15.752  68.665  1.00  0.00    -0.183 A  
ENDBRANCH   5  23
TORSDOF 5
ENDMDL
MODEL       47
REMARK 921   NORMALIZED FREE ENERGY PREDICTED BY IDOCK:   -5.86 KCAL/MOL
REMARK 922        TOTAL FREE ENERGY PREDICTED BY IDOCK:   -8.91 KCAL/MOL
REMARK 923 INTER-LIGAND FREE ENERGY PREDICTED BY IDOCK:   -7.76 KCAL/MOL
REMARK 924 INTRA-LIGAND FREE ENERGY PREDICTED BY IDOCK:   -1.16 KCAL/MOL
REMARK 927      BINDING AFFINITY PREDICTED BY RF-SCORE:    0.00 PKD
ROOT
HETATM    1  C   UNL     1     -11.121   7.578  70.621  1.00  0.00    -0.265 C  
HETATM    2  O   UNL     1     -11.269   6.719  69.480  1.00  0.00    -0.285 OA 
HETATM    3  C   UNL     1     -10.751   5.410  69.724  1.00  0.00    -0.210 C  
HETATM    4  C   UNL     1      -9.339   5.474  70.293  1.00  0.00    -0.194 C  
HETATM    5  C   UNL     1     -11.096   9.152  70.404  1.00  0.00    -0.253 C  
HETATM    6  C   UNL     1      -8.860   6.625  70.844  1.00  0.00    -0.146 C  
HETATM    7  N   UNL     1      -9.738   7.661  71.070  1.00  0.00    -0.164 N  
HETATM    8  C   UNL     1      -7.391   6.770  71.174  1.00  0.00    -0.079 C  
HETATM    9  O   UNL     1      -6.528   5.993  70.789  1.00  0.00    -0.038 OA 
HETATM   10  O   UNL     1      -7.060   7.806  71.969  1.00  0.00    -0.062 OA 
HETATM   11  O   UNL     1      -8.629   9.694  71.119  1.00  0.00    -0.191 OA 
HETATM   12  C   UNL     1      -9.606   9.000  70.945  1.00  0.00    -0.262 C  
ENDROOT
BRANCH   4  13
HETATM   13  C   UNL     1      -8.570   4.188  70.042  1.00  0.00    -0.065 C  
BRANCH  13  14
HETATM   14  S   UNL     1      -8.819   2.887  71.281  1.00  0.00    -0.085 SA 
BRANCH  14  15
HETATM   15  C   UNL     1      -9.401   3.733  72.659  1.00  0.00    -0.114 A  
HETATM   16  N   UNL     1     -10.647   3.958  73.001  1.00  0.00    -0.173 NA 
HETATM   17  C   UNL     1      -7.152   4.332  73.669  1.00  0.00    -0.066 C  
HETATM   18  N   UNL     1     -10.590   4.711  74.150  1.00  0.00    -0.279 NA 
HETATM   19  N   UNL     1      -9.333   4.935  74.511  1.00  0.00    -0.121 NA 
HETATM   20  N   UNL     1      -8.584   4.316  73.584  1.00  0.00    -0.092 NA 
ENDBRANCH  14  15
ENDBRANCH  13  14
ENDBRANCH   4  13
BRANCH   5  21
HETATM   21  O   UNL     1     -11.953   9.918  71.292  1.00  0.00    -0.344 OA 
HETATM   22  C   UNL     1     -13.274   9.434  71.490  1.00  0.00    -0.384 C  
ENDBRANCH   5  21
BRANCH   5  23
HETATM   23  N   UNL     1     -11.172   9.544  68.959  1.00  0.00    -0.446 N  
HETATM   24  C   UNL     1     -11.342  11.126  67.081  1.00  0.00    -0.257 C  
HETATM   25  C   UNL     1     -11.204  10.870  68.576  1.00  0.00    -0.274 C  
HETATM   26  O   UNL     1     -11.081  11.798  69.376  1.00  0.00    -0.235 OA 
HETATM   27  H   UNL     1     -11.200   8.818  68.244  1.00  0.00     0.000 HD 
HETATM   28  C   UNL     1     -11.943  12.482  66.738  1.00  0.00    -0.257 C  
HETATM   29  C   UNL     1     -10.042  10.886  66.316  1.00  0.00    -0.284 A  
HETATM   30  C   UNL     1     -10.096  10.499  64.963  1.00  0.00    -0.390 A  
HETATM   31  O   UNL     1     -12.528  12.686  65.680  1.00  0.00    -0.622 OA 
HETATM   32  O   UNL     1     -11.773  13.476  67.639  1.00  0.00    -0.321 OA 
HETATM   33  C   UNL     1      -8.927  10.214  64.250  1.00  0.00    -0.267 A  
HETATM   34  C   UNL     1      -7.697  10.321  64.885  1.00  0.00    -0.124 A  
HETATM   35  C   UNL     1      -7.614  10.759  66.200  1.00  0.00    -0.139 A  
HETATM   36  O   UNL     1      -6.535  10.000  64.249  1.00  0.00    -0.121 OA 
HETATM   37  H   UNL     1      -5.693  10.074  64.683  1.00  0.00     0.000 HD 
HETATM   38  C   UNL     1      -8.780  11.053  66.910  1.00  0.00    -0.148 A  
ENDBRANCH   5  23
TORSDOF 5
ENDMDL
MODEL       48
REMARK 921   NORMALIZED FREE ENERGY PREDICTED BY IDOCK:   -5.85 KCAL/MOL
REMARK 922        TOTAL FREE ENERGY PREDICTED BY IDOCK:   -8.90 KCAL/MOL
REMARK 923 INTER-LIGAND FREE ENERGY PREDICTED BY IDOCK:   -7.99 KCAL/MOL
REMARK 924 INTRA-LIGAND FREE ENERGY PREDICTED BY IDOCK:   -0.91 KCAL/MOL
REMARK 927      BINDING AFFINITY PREDICTED BY RF-SCORE:    0.00 PKD
ROOT
HETATM    1  C   UNL     1     -10.312  11.557  67.976  1.00  0.00    -0.190 C  
HETATM    2  O   UNL     1     -11.154  11.756  69.122  1.00  0.00    -0.232 OA 
HETATM    3  C   UNL     1     -11.716  13.069  69.152  1.00  0.00    -0.326 C  
HETATM    4  C   UNL     1     -10.643  14.133  68.958  1.00  0.00    -0.227 C  
HETATM    5  C   UNL     1      -9.183  10.440  68.032  1.00  0.00    -0.140 C  
HETATM    6  C   UNL     1      -9.427  13.811  68.433  1.00  0.00    -0.198 C  
HETATM    7  N   UNL     1      -9.258  12.558  67.887  1.00  0.00    -0.193 N  
HETATM    8  C   UNL     1      -8.282  14.797  68.474  1.00  0.00    -0.153 C  
HETATM    9  O   UNL     1      -8.292  15.822  69.143  1.00  0.00    -0.218 OA 
HETATM   10  O   UNL     1      -7.224  14.513  67.689  1.00  0.00    -0.159 OA 
HETATM   11  O   UNL     1      -7.028  11.934  67.917  1.00  0.00    -0.074 OA 
HETATM   12  C   UNL     1      -8.216  11.698  67.906  1.00  0.00    -0.141 C  
ENDROOT
BRANCH   4  13
HETATM   13  C   UNL     1     -11.070  15.476  69.525  1.00  0.00    -0.286 C  
BRANCH  13  14
HETATM   14  S   UNL     1     -12.769  15.541  70.156  1.00  0.00    -0.055 SA 
BRANCH  14  15
HETATM   15  C   UNL     1     -12.579  15.503  71.864  1.00  0.00    -0.405 A  
HETATM   16  N   UNL     1     -11.969  16.379  72.628  1.00  0.00    -0.549 NA 
HETATM   17  C   UNL     1     -13.793  13.318  72.297  1.00  0.00    -0.539 C  
HETATM   18  N   UNL     1     -12.048  15.880  73.906  1.00  0.00    -0.453 NA 
HETATM   19  N   UNL     1     -12.701  14.725  73.928  1.00  0.00    -0.469 NA 
HETATM   20  N   UNL     1     -13.044  14.490  72.650  1.00  0.00    -0.434 NA 
ENDBRANCH  14  15
ENDBRANCH  13  14
ENDBRANCH   4  13
BRANCH   5  21
HETATM   21  O   UNL     1      -9.125   9.554  66.883  1.00  0.00    -0.132 OA 
HETATM   22  C   UNL     1      -9.966   9.868  65.782  1.00  0.00    -0.277 C  
ENDBRANCH   5  21
BRANCH   5  23
HETATM   23  N   UNL     1      -9.105   9.754  69.363  1.00  0.00    -0.187 N  
HETATM   24  C   UNL     1      -9.837   8.186  71.113  1.00  0.00    -0.207 C  
HETATM   25  C   UNL     1      -9.992   8.756  69.709  1.00  0.00    -0.190 C  
HETATM   26  O   UNL     1     -10.830   8.308  68.925  1.00  0.00    -0.116 OA 
HETATM   27  H   UNL     1      -8.382  10.031  70.026  1.00  0.00     0.000 HD 
HETATM   28  C   UNL     1     -11.106   7.555  71.668  1.00  0.00    -0.239 C  
HETATM   29  C   UNL     1      -8.645   7.239  71.240  1.00  0.00    -0.119 A  
HETATM   30  C   UNL     1      -8.005   7.094  72.486  1.00  0.00    -0.103 A  
HETATM   31  O   UNL     1     -11.310   7.459  72.874  1.00  0.00    -0.317 OA 
HETATM   32  O   UNL     1     -11.993   7.065  70.774  1.00  0.00    -0.349 OA 
HETATM   33  C   UNL     1      -6.876   6.282  72.623  1.00  0.00    -0.074 A  
HETATM   34  C   UNL     1      -6.384   5.602  71.516  1.00  0.00    -0.043 A  
HETATM   35  C   UNL     1      -7.033   5.681  70.292  1.00  0.00    -0.058 A  
HETATM   36  O   UNL     1      -5.254   4.843  71.587  1.00  0.00    -0.004 OA 
HETATM   37  H   UNL     1      -4.918   4.379  70.830  1.00  0.00     0.000 HD 
HETATM   38  C   UNL     1      -8.167   6.485  70.155  1.00  0.00    -0.129 A  
ENDBRANCH   5  23
TORSDOF 5
ENDMDL
MODEL       49
REMARK 921   NORMALIZED FREE ENERGY PREDICTED BY IDOCK:   -5.84 KCAL/MOL
REMARK 922        TOTAL FREE ENERGY PREDICTED BY IDOCK:   -8.89 KCAL/MOL
REMARK 923 INTER-LIGAND FREE ENERGY PREDICTED BY IDOCK:   -8.16 KCAL/MOL
REMARK 924 INTRA-LIGAND FREE ENERGY PREDICTED BY IDOCK:   -0.74 KCAL/MOL
REMARK 927      BINDING AFFINITY PREDICTED BY RF-SCORE:    0.00 PKD
ROOT
HETATM    1  C   UNL     1     -10.275   8.283  68.963  1.00  0.00    -0.217 C  
HETATM    2  O   UNL     1      -9.815   8.690  67.665  1.00  0.00    -0.162 OA 
HETATM    3  C   UNL     1      -9.037   7.674  67.029  1.00  0.00    -0.135 C  
HETATM    4  C   UNL     1      -7.946   7.154  67.957  1.00  0.00    -0.119 C  
HETATM    5  C   UNL     1     -10.645   9.395  70.035  1.00  0.00    -0.235 C  
HETATM    6  C   UNL     1      -8.012   7.367  69.302  1.00  0.00    -0.118 C  
HETATM    7  N   UNL     1      -9.180   7.871  69.830  1.00  0.00    -0.153 N  
HETATM    8  C   UNL     1      -6.822   7.082  70.189  1.00  0.00    -0.060 C  
HETATM    9  O   UNL     1      -5.696   6.861  69.764  1.00  0.00    -0.018 OA 
HETATM   10  O   UNL     1      -7.063   7.043  71.514  1.00  0.00    -0.071 OA 
HETATM   11  O   UNL     1      -8.779   8.967  71.831  1.00  0.00    -0.343 OA 
HETATM   12  C   UNL     1      -9.412   8.762  70.819  1.00  0.00    -0.206 C  
ENDROOT
BRANCH   4  13
HETATM   13  C   UNL     1      -6.798   6.528  67.184  1.00  0.00    -0.066 C  
BRANCH  13  14
HETATM   14  S   UNL     1      -7.025   4.783  66.745  1.00  0.00    -0.068 SA 
BRANCH  14  15
HETATM   15  C   UNL     1      -7.553   4.831  65.111  1.00  0.00    -0.077 A  
HETATM   16  N   UNL     1      -8.773   4.676  64.651  1.00  0.00    -0.146 NA 
HETATM   17  C   UNL     1      -5.297   5.259  64.032  1.00  0.00    -0.013 C  
HETATM   18  N   UNL     1      -8.670   4.755  63.283  1.00  0.00    -0.131 NA 
HETATM   19  N   UNL     1      -7.414   4.963  62.910  1.00  0.00    -0.048 NA 
HETATM   20  N   UNL     1      -6.712   5.021  64.053  1.00  0.00    -0.045 NA 
ENDBRANCH  14  15
ENDBRANCH  13  14
ENDBRANCH   4  13
BRANCH   5  21
HETATM   21  O   UNL     1     -11.915   9.209  70.716  1.00  0.00    -0.272 OA 
HETATM   22  C   UNL     1     -12.272  10.177  71.691  1.00  0.00    -0.331 C  
ENDBRANCH   5  21
BRANCH   5  23
HETATM   23  N   UNL     1     -10.391  10.789  69.543  1.00  0.00    -0.383 N  
HETATM   24  C   UNL     1     -10.780  12.759  68.121  1.00  0.00    -0.243 C  
HETATM   25  C   UNL     1     -11.185  11.362  68.571  1.00  0.00    -0.250 C  
HETATM   26  O   UNL     1     -12.190  10.811  68.120  1.00  0.00    -0.399 OA 
HETATM   27  H   UNL     1      -9.617  11.324  69.934  1.00  0.00     0.000 HD 
HETATM   28  C   UNL     1     -11.259  13.123  66.722  1.00  0.00    -0.299 C  
HETATM   29  C   UNL     1     -11.155  13.840  69.134  1.00  0.00    -0.282 A  
HETATM   30  C   UNL     1     -10.393  15.022  69.200  1.00  0.00    -0.249 A  
HETATM   31  O   UNL     1     -10.686  13.964  66.037  1.00  0.00    -0.282 OA 
HETATM   32  O   UNL     1     -12.372  12.503  66.272  1.00  0.00    -0.570 OA 
HETATM   33  C   UNL     1     -10.672  16.004  70.155  1.00  0.00    -0.316 A  
HETATM   34  C   UNL     1     -11.722  15.814  71.044  1.00  0.00    -0.422 A  
HETATM   35  C   UNL     1     -12.526  14.685  70.959  1.00  0.00    -0.399 A  
HETATM   36  O   UNL     1     -11.998  16.717  72.027  1.00  0.00    -0.635 OA 
HETATM   37  H   UNL     1     -12.716  16.587  72.635  1.00  0.00     0.000 HD 
HETATM   38  C   UNL     1     -12.253  13.707  70.000  1.00  0.00    -0.395 A  
ENDBRANCH   5  23
TORSDOF 5
ENDMDL
MODEL       50
REMARK 921   NORMALIZED FREE ENERGY PREDICTED BY IDOCK:   -5.84 KCAL/MOL
REMARK 922        TOTAL FREE ENERGY PREDICTED BY IDOCK:   -8.89 KCAL/MOL
REMARK 923 INTER-LIGAND FREE ENERGY PREDICTED BY IDOCK:   -7.87 KCAL/MOL
REMARK 924 INTRA-LIGAND FREE ENERGY PREDICTED BY IDOCK:   -1.02 KCAL/MOL
REMARK 927      BINDING AFFINITY PREDICTED BY RF-SCORE:    0.00 PKD
ROOT
HETATM    1  C   UNL     1     -10.616   8.795  68.851  1.00  0.00    -0.155 C  
HETATM    2  O   UNL     1     -10.618   8.613  67.427  1.00  0.00    -0.274 OA 
HETATM    3  C   UNL     1     -10.361   7.257  67.059  1.00  0.00    -0.306 C  
HETATM    4  C   UNL     1      -9.125   6.719  67.767  1.00  0.00    -0.117 C  
HETATM    5  C   UNL     1     -10.317  10.238  69.445  1.00  0.00    -0.235 C  
HETATM    6  C   UNL     1      -8.626   7.341  68.873  1.00  0.00    -0.129 C  
HETATM    7  N   UNL     1      -9.376   8.334  69.462  1.00  0.00    -0.158 N  
HETATM    8  C   UNL     1      -7.269   6.968  69.423  1.00  0.00    -0.085 C  
HETATM    9  O   UNL     1      -6.460   6.273  68.823  1.00  0.00    -0.042 OA 
HETATM   10  O   UNL     1      -6.985   7.416  70.662  1.00  0.00    -0.051 OA 
HETATM   11  O   UNL     1      -8.031   9.793  70.655  1.00  0.00    -0.272 OA 
HETATM   12  C   UNL     1      -9.030   9.508  70.033  1.00  0.00    -0.223 C  
ENDROOT
BRANCH   4  13
HETATM   13  C   UNL     1      -8.509   5.549  67.018  1.00  0.00    -0.110 C  
BRANCH  13  14
HETATM   14  S   UNL     1      -8.479   5.720  65.212  1.00  0.00    -0.129 SA 
BRANCH  14  15
HETATM   15  C   UNL     1      -7.106   6.709  64.913  1.00  0.00    -0.057 A  
HETATM   16  N   UNL     1      -5.843   6.351  64.886  1.00  0.00    -0.022 NA 
HETATM   17  C   UNL     1      -8.330   8.908  64.590  1.00  0.00    -0.170 C  
HETATM   18  N   UNL     1      -5.133   7.504  64.654  1.00  0.00    -0.029 NA 
HETATM   19  N   UNL     1      -5.943   8.548  64.530  1.00  0.00    -0.064 NA 
HETATM   20  N   UNL     1      -7.182   8.052  64.683  1.00  0.00    -0.076 NA 
ENDBRANCH  14  15
ENDBRANCH  13  14
ENDBRANCH   4  13
BRANCH   5  21
HETATM   21  O   UNL     1     -11.239  10.692  70.473  1.00  0.00    -0.300 OA 
HETATM   22  C   UNL     1     -12.115   9.723  71.029  1.00  0.00    -0.346 C  
ENDBRANCH   5  21
BRANCH   5  23
HETATM   23  N   UNL     1     -10.002  11.252  68.387  1.00  0.00    -0.191 N  
HETATM   24  C   UNL     1     -10.503  12.697  66.460  1.00  0.00    -0.264 C  
HETATM   25  C   UNL     1     -10.973  11.714  67.524  1.00  0.00    -0.259 C  
HETATM   26  O   UNL     1     -12.160  11.400  67.625  1.00  0.00    -0.630 OA 
HETATM   27  H   UNL     1      -9.050  11.608  68.303  1.00  0.00     0.000 HD 
HETATM   28  C   UNL     1     -11.388  12.739  65.222  1.00  0.00    -0.303 C  
HETATM   29  C   UNL     1     -10.259  14.100  67.014  1.00  0.00    -0.260 A  
HETATM   30  C   UNL     1      -9.315  14.937  66.390  1.00  0.00    -0.327 A  
HETATM   31  O   UNL     1     -10.961  13.098  64.129  1.00  0.00    -0.381 OA 
HETATM   32  O   UNL     1     -12.687  12.398  65.380  1.00  0.00    -0.582 OA 
HETATM   33  C   UNL     1      -9.024  16.203  66.907  1.00  0.00    -0.248 A  
HETATM   34  C   UNL     1      -9.683  16.643  68.048  1.00  0.00    -0.241 A  
HETATM   35  C   UNL     1     -10.663  15.861  68.645  1.00  0.00    -0.274 A  
HETATM   36  O   UNL     1      -9.395  17.845  68.621  1.00  0.00    -0.291 OA 
HETATM   37  H   UNL     1      -9.845  18.146  69.401  1.00  0.00     0.000 HD 
HETATM   38  C   UNL     1     -10.960  14.600  68.125  1.00  0.00    -0.269 A  
ENDBRANCH   5  23
TORSDOF 5
ENDMDL
MODEL       51
REMARK 921   NORMALIZED FREE ENERGY PREDICTED BY IDOCK:   -5.82 KCAL/MOL
REMARK 922        TOTAL FREE ENERGY PREDICTED BY IDOCK:   -8.87 KCAL/MOL
REMARK 923 INTER-LIGAND FREE ENERGY PREDICTED BY IDOCK:   -7.55 KCAL/MOL
REMARK 924 INTRA-LIGAND FREE ENERGY PREDICTED BY IDOCK:   -1.32 KCAL/MOL
REMARK 927      BINDING AFFINITY PREDICTED BY RF-SCORE:    0.00 PKD
ROOT
HETATM    1  C   UNL     1     -11.335   8.287  70.140  1.00  0.00    -0.060 C  
HETATM    2  O   UNL     1     -11.146   7.873  68.778  1.00  0.00     0.086 OA 
HETATM    3  C   UNL     1     -11.113   6.450  68.650  1.00  0.00    -0.311 C  
HETATM    4  C   UNL     1     -10.140   5.830  69.644  1.00  0.00    -0.276 C  
HETATM    5  C   UNL     1     -10.850   9.734  70.582  1.00  0.00    -0.329 C  
HETATM    6  C   UNL     1      -9.709   6.531  70.730  1.00  0.00    -0.179 C  
HETATM    7  N   UNL     1     -10.327   7.725  71.030  1.00  0.00    -0.202 N  
HETATM    8  C   UNL     1      -8.560   6.024  71.572  1.00  0.00    -0.132 C  
HETATM    9  O   UNL     1      -7.823   5.108  71.233  1.00  0.00    -0.100 OA 
HETATM   10  O   UNL     1      -8.394   6.616  72.771  1.00  0.00    -0.118 OA 
HETATM   11  O   UNL     1      -8.923   9.105  72.249  1.00  0.00    -0.273 OA 
HETATM   12  C   UNL     1      -9.847   8.899  71.494  1.00  0.00    -0.314 C  
ENDROOT
BRANCH   4  13
HETATM   13  C   UNL     1      -9.662   4.462  69.188  1.00  0.00    -0.170 C  
BRANCH  13  14
HETATM   14  S   UNL     1      -8.973   4.406  67.510  1.00  0.00    -0.121 SA 
BRANCH  14  15
HETATM   15  C   UNL     1      -7.691   5.548  67.549  1.00  0.00    -0.096 A  
HETATM   16  N   UNL     1      -6.566   5.477  68.223  1.00  0.00    -0.047 NA 
HETATM   17  C   UNL     1      -8.707   7.262  65.979  1.00  0.00    -0.151 C  
HETATM   18  N   UNL     1      -5.898   6.649  67.961  1.00  0.00    -0.016 NA 
HETATM   19  N   UNL     1      -6.594   7.421  67.136  1.00  0.00    -0.059 NA 
HETATM   20  N   UNL     1      -7.715   6.731  66.869  1.00  0.00    -0.101 NA 
ENDBRANCH  14  15
ENDBRANCH  13  14
ENDBRANCH   4  13
BRANCH   5  21
HETATM   21  O   UNL     1     -11.812  10.508  71.347  1.00  0.00    -0.298 OA 
HETATM   22  C   UNL     1     -13.008   9.848  71.737  1.00  0.00    -0.449 C  
ENDBRANCH   5  21
BRANCH   5  23
HETATM   23  N   UNL     1     -10.171  10.486  69.476  1.00  0.00    -0.322 N  
HETATM   24  C   UNL     1     -10.075  11.744  67.364  1.00  0.00    -0.212 C  
HETATM   25  C   UNL     1     -10.894  11.062  68.452  1.00  0.00    -0.220 C  
HETATM   26  O   UNL     1     -12.125  11.075  68.429  1.00  0.00    -0.594 OA 
HETATM   27  H   UNL     1      -9.156  10.574  69.481  1.00  0.00     0.000 HD 
HETATM   28  C   UNL     1     -10.790  11.846  66.023  1.00  0.00    -0.299 C  
HETATM   29  C   UNL     1      -9.521  13.099  67.800  1.00  0.00    -0.209 A  
HETATM   30  C   UNL     1      -8.329  13.578  67.222  1.00  0.00    -0.188 A  
HETATM   31  O   UNL     1     -10.177  11.936  64.965  1.00  0.00    -0.261 OA 
HETATM   32  O   UNL     1     -12.141  11.869  66.046  1.00  0.00    -0.500 OA 
HETATM   33  C   UNL     1      -7.763  14.786  67.642  1.00  0.00    -0.199 A  
HETATM   34  C   UNL     1      -8.389  15.526  68.637  1.00  0.00    -0.172 A  
HETATM   35  C   UNL     1      -9.597  15.104  69.178  1.00  0.00    -0.232 A  
HETATM   36  O   UNL     1      -7.848  16.680  69.117  1.00  0.00    -0.237 OA 
HETATM   37  H   UNL     1      -8.276  17.186  69.798  1.00  0.00     0.000 HD 
HETATM   38  C   UNL     1     -10.168  13.902  68.754  1.00  0.00    -0.188 A  
ENDBRANCH   5  23
TORSDOF 5
ENDMDL
MODEL       52
REMARK 921   NORMALIZED FREE ENERGY PREDICTED BY IDOCK:   -5.81 KCAL/MOL
REMARK 922        TOTAL FREE ENERGY PREDICTED BY IDOCK:   -8.85 KCAL/MOL
REMARK 923 INTER-LIGAND FREE ENERGY PREDICTED BY IDOCK:   -8.19 KCAL/MOL
REMARK 924 INTRA-LIGAND FREE ENERGY PREDICTED BY IDOCK:   -0.66 KCAL/MOL
REMARK 927      BINDING AFFINITY PREDICTED BY RF-SCORE:    0.00 PKD
ROOT
HETATM    1  C   UNL     1     -11.521  12.888  68.361  1.00  0.00    -0.312 C  
HETATM    2  O   UNL     1     -10.613  11.894  68.859  1.00  0.00    -0.217 OA 
HETATM    3  C   UNL     1     -11.294  10.842  69.546  1.00  0.00    -0.283 C  
HETATM    4  C   UNL     1     -12.260  11.398  70.585  1.00  0.00    -0.484 C  
HETATM    5  C   UNL     1     -10.984  14.357  68.087  1.00  0.00    -0.254 C  
HETATM    6  C   UNL     1     -12.669  12.697  70.533  1.00  0.00     0.010 C  
HETATM    7  N   UNL     1     -12.364  13.438  69.413  1.00  0.00    -0.173 N  
HETATM    8  C   UNL     1     -13.416  13.319  71.691  1.00  0.00    -0.269 C  
HETATM    9  O   UNL     1     -13.512  12.798  72.795  1.00  0.00    -0.408 OA 
HETATM   10  O   UNL     1     -14.026  14.494  71.444  1.00  0.00    -0.388 OA 
HETATM   11  O   UNL     1     -12.320  15.702  69.903  1.00  0.00    -0.354 OA 
HETATM   12  C   UNL     1     -11.997  14.729  69.257  1.00  0.00    -0.294 C  
ENDROOT
BRANCH   4  13
HETATM   13  C   UNL     1     -12.561  10.385  71.676  1.00  0.00    -0.417 C  
BRANCH  13  14
HETATM   14  S   UNL     1     -12.388   8.647  71.183  1.00  0.00    -0.152 SA 
BRANCH  14  15
HETATM   15  C   UNL     1     -10.828   8.208  71.753  1.00  0.00    -0.256 A  
HETATM   16  N   UNL     1      -9.974   8.949  72.420  1.00  0.00    -0.161 NA 
HETATM   17  C   UNL     1     -10.801   5.824  70.884  1.00  0.00    -0.256 C  
HETATM   18  N   UNL     1      -8.860   8.164  72.602  1.00  0.00    -0.198 NA 
HETATM   19  N   UNL     1      -9.029   6.963  72.065  1.00  0.00    -0.133 NA 
HETATM   20  N   UNL     1     -10.265   6.983  71.539  1.00  0.00    -0.198 NA 
ENDBRANCH  14  15
ENDBRANCH  13  14
ENDBRANCH   4  13
BRANCH   5  21
HETATM   21  O   UNL     1     -11.354  14.929  66.804  1.00  0.00    -0.344 OA 
HETATM   22  C   UNL     1     -12.180  14.140  65.961  1.00  0.00    -0.443 C  
ENDBRANCH   5  21
BRANCH   5  23
HETATM   23  N   UNL     1      -9.542  14.532  68.463  1.00  0.00    -0.216 N  
HETATM   24  C   UNL     1      -7.121  14.138  68.269  1.00  0.00    -0.112 C  
HETATM   25  C   UNL     1      -8.534  13.926  67.743  1.00  0.00    -0.183 C  
HETATM   26  O   UNL     1      -8.743  13.291  66.708  1.00  0.00    -0.182 OA 
HETATM   27  H   UNL     1      -9.302  15.110  69.268  1.00  0.00     0.000 HD 
HETATM   28  C   UNL     1      -6.137  13.053  67.856  1.00  0.00    -0.131 C  
HETATM   29  C   UNL     1      -6.575  15.530  67.957  1.00  0.00    -0.156 A  
HETATM   30  C   UNL     1      -5.612  16.104  68.809  1.00  0.00    -0.108 A  
HETATM   31  O   UNL     1      -5.129  12.805  68.511  1.00  0.00    -0.057 OA 
HETATM   32  O   UNL     1      -6.398  12.389  66.708  1.00  0.00    -0.139 OA 
HETATM   33  C   UNL     1      -5.136  17.400  68.586  1.00  0.00    -0.143 A  
HETATM   34  C   UNL     1      -5.613  18.126  67.503  1.00  0.00    -0.141 A  
HETATM   35  C   UNL     1      -6.516  17.559  66.613  1.00  0.00    -0.252 A  
HETATM   36  O   UNL     1      -5.221  19.411  67.275  1.00  0.00    -0.162 OA 
HETATM   37  H   UNL     1      -5.548  19.908  66.534  1.00  0.00     0.000 HD 
HETATM   38  C   UNL     1      -6.986  16.262  66.830  1.00  0.00    -0.226 A  
ENDBRANCH   5  23
TORSDOF 5
ENDMDL
MODEL       53
REMARK 921   NORMALIZED FREE ENERGY PREDICTED BY IDOCK:   -5.71 KCAL/MOL
REMARK 922        TOTAL FREE ENERGY PREDICTED BY IDOCK:   -8.73 KCAL/MOL
REMARK 923 INTER-LIGAND FREE ENERGY PREDICTED BY IDOCK:   -7.98 KCAL/MOL
REMARK 924 INTRA-LIGAND FREE ENERGY PREDICTED BY IDOCK:   -0.75 KCAL/MOL
REMARK 927      BINDING AFFINITY PREDICTED BY RF-SCORE:    0.00 PKD
ROOT
HETATM    1  C   UNL     1     -11.375  12.701  66.386  1.00  0.00    -0.331 C  
HETATM    2  O   UNL     1     -10.190  11.897  66.488  1.00  0.00    -0.199 OA 
HETATM    3  C   UNL     1     -10.431  10.671  67.182  1.00  0.00    -0.245 C  
HETATM    4  C   UNL     1     -11.149  10.918  68.503  1.00  0.00    -0.311 C  
HETATM    5  C   UNL     1     -11.229  14.269  66.182  1.00  0.00    -0.331 C  
HETATM    6  C   UNL     1     -11.796  12.094  68.737  1.00  0.00    -0.303 C  
HETATM    7  N   UNL     1     -11.972  12.968  67.688  1.00  0.00    -0.337 N  
HETATM    8  C   UNL     1     -12.286  12.444  70.124  1.00  0.00    -0.229 C  
HETATM    9  O   UNL     1     -11.962  11.832  71.133  1.00  0.00    -0.090 OA 
HETATM   10  O   UNL     1     -13.155  13.470  70.207  1.00  0.00     0.072 OA 
HETATM   11  O   UNL     1     -12.223  15.141  68.450  1.00  0.00    -0.153 OA 
HETATM   12  C   UNL     1     -11.918  14.316  67.617  1.00  0.00    -0.365 C  
ENDROOT
BRANCH   4  13
HETATM   13  C   UNL     1     -10.926   9.782  69.487  1.00  0.00    -0.227 C  
BRANCH  13  14
HETATM   14  S   UNL     1     -10.169   8.291  68.784  1.00  0.00    -0.208 SA 
BRANCH  14  15
HETATM   15  C   UNL     1      -9.658   7.397  70.160  1.00  0.00    -0.165 A  
HETATM   16  N   UNL     1      -8.442   7.010  70.465  1.00  0.00    -0.132 NA 
HETATM   17  C   UNL     1     -11.929   7.127  71.258  1.00  0.00    -0.337 C  
HETATM   18  N   UNL     1      -8.559   6.291  71.631  1.00  0.00    -0.133 NA 
HETATM   19  N   UNL     1      -9.821   6.247  72.039  1.00  0.00    -0.158 NA 
HETATM   20  N   UNL     1     -10.512   6.947  71.124  1.00  0.00    -0.212 NA 
ENDBRANCH  14  15
ENDBRANCH  13  14
ENDBRANCH   4  13
BRANCH   5  21
HETATM   21  O   UNL     1     -12.053  14.842  65.131  1.00  0.00    -0.328 OA 
HETATM   22  C   UNL     1     -12.297  14.032  63.990  1.00  0.00    -0.298 C  
ENDBRANCH   5  21
BRANCH   5  23
HETATM   23  N   UNL     1      -9.802  14.729  66.187  1.00  0.00    -0.295 N  
HETATM   24  C   UNL     1      -7.994  16.397  66.265  1.00  0.00    -0.264 C  
HETATM   25  C   UNL     1      -9.478  16.062  66.339  1.00  0.00    -0.293 C  
HETATM   26  O   UNL     1     -10.320  16.930  66.571  1.00  0.00    -0.306 OA 
HETATM   27  H   UNL     1      -9.056  14.044  66.075  1.00  0.00     0.000 HD 
HETATM   28  C   UNL     1      -7.704  17.835  65.859  1.00  0.00    -0.098 C  
HETATM   29  C   UNL     1      -7.236  16.016  67.536  1.00  0.00    -0.196 A  
HETATM   30  C   UNL     1      -5.867  15.698  67.456  1.00  0.00    -0.103 A  
HETATM   31  O   UNL     1      -6.648  18.160  65.326  1.00  0.00    -0.396 OA 
HETATM   32  O   UNL     1      -8.650  18.758  66.142  1.00  0.00    -0.435 OA 
HETATM   33  C   UNL     1      -5.157  15.288  68.589  1.00  0.00    -0.093 A  
HETATM   34  C   UNL     1      -5.812  15.202  69.811  1.00  0.00    -0.126 A  
HETATM   35  C   UNL     1      -7.146  15.569  69.926  1.00  0.00    -0.047 A  
HETATM   36  O   UNL     1      -5.178  14.755  70.931  1.00  0.00    -0.120 OA 
HETATM   37  H   UNL     1      -5.626  14.696  71.767  1.00  0.00     0.000 HD 
HETATM   38  C   UNL     1      -7.854  15.987  68.797  1.00  0.00    -0.190 A  
ENDBRANCH   5  23
TORSDOF 5
ENDMDL
MODEL       54
REMARK 921   NORMALIZED FREE ENERGY PREDICTED BY IDOCK:   -5.68 KCAL/MOL
REMARK 922        TOTAL FREE ENERGY PREDICTED BY IDOCK:   -8.68 KCAL/MOL
REMARK 923 INTER-LIGAND FREE ENERGY PREDICTED BY IDOCK:   -7.46 KCAL/MOL
REMARK 924 INTRA-LIGAND FREE ENERGY PREDICTED BY IDOCK:   -1.23 KCAL/MOL
REMARK 927      BINDING AFFINITY PREDICTED BY RF-SCORE:    0.00 PKD
ROOT
HETATM    1  C   UNL     1      -8.635   9.897  69.681  1.00  0.00    -0.194 C  
HETATM    2  O   UNL     1     -10.059   9.752  69.798  1.00  0.00    -0.208 OA 
HETATM    3  C   UNL     1     -10.444   8.391  70.002  1.00  0.00    -0.224 C  
HETATM    4  C   UNL     1      -9.793   7.475  68.973  1.00  0.00    -0.170 C  
HETATM    5  C   UNL     1      -8.048  11.159  68.916  1.00  0.00    -0.115 C  
HETATM    6  C   UNL     1      -8.707   7.886  68.259  1.00  0.00    -0.130 C  
HETATM    7  N   UNL     1      -8.081   9.055  68.630  1.00  0.00    -0.106 N  
HETATM    8  C   UNL     1      -8.218   7.091  67.070  1.00  0.00    -0.117 C  
HETATM    9  O   UNL     1      -8.856   6.186  66.549  1.00  0.00    -0.124 OA 
HETATM   10  O   UNL     1      -6.991   7.403  66.609  1.00  0.00    -0.066 OA 
HETATM   11  O   UNL     1      -6.942   9.989  66.843  1.00  0.00    -0.086 OA 
HETATM   12  C   UNL     1      -7.520  10.048  67.905  1.00  0.00    -0.089 C  
ENDROOT
BRANCH   4  13
HETATM   13  C   UNL     1     -10.573   6.183  68.793  1.00  0.00    -0.273 C  
BRANCH  13  14
HETATM   14  S   UNL     1     -10.249   4.907  70.041  1.00  0.00    -0.167 SA 
BRANCH  14  15
HETATM   15  C   UNL     1      -8.607   4.474  69.774  1.00  0.00    -0.069 A  
HETATM   16  N   UNL     1      -7.536   4.989  70.331  1.00  0.00    -0.062 NA 
HETATM   17  C   UNL     1      -9.006   2.652  68.055  1.00  0.00    -0.160 C  
HETATM   18  N   UNL     1      -6.468   4.341  69.757  1.00  0.00    -0.032 NA 
HETATM   19  N   UNL     1      -6.875   3.439  68.874  1.00  0.00    -0.044 NA 
HETATM   20  N   UNL     1      -8.217   3.513  68.888  1.00  0.00    -0.060 NA 
ENDBRANCH  14  15
ENDBRANCH  13  14
ENDBRANCH   4  13
BRANCH   5  21
HETATM   21  O   UNL     1      -6.979  11.864  69.602  1.00  0.00    -0.018 OA 
HETATM   22  C   UNL     1      -6.072  11.079  70.363  1.00  0.00    -0.131 C  
ENDBRANCH   5  21
BRANCH   5  23
HETATM   23  N   UNL     1      -9.115  12.040  68.336  1.00  0.00    -0.263 N  
HETATM   24  C   UNL     1      -9.976  13.999  67.122  1.00  0.00    -0.252 C  
HETATM   25  C   UNL     1      -8.797  13.162  67.600  1.00  0.00    -0.191 C  
HETATM   26  O   UNL     1      -7.639  13.456  67.299  1.00  0.00    -0.147 OA 
HETATM   27  H   UNL     1     -10.095  11.804  68.489  1.00  0.00     0.000 HD 
HETATM   28  C   UNL     1      -9.630  15.456  66.846  1.00  0.00    -0.226 C  
HETATM   29  C   UNL     1     -10.707  13.370  65.937  1.00  0.00    -0.285 A  
HETATM   30  C   UNL     1     -12.076  13.639  65.746  1.00  0.00    -0.463 A  
HETATM   31  O   UNL     1     -10.474  16.345  66.895  1.00  0.00    -0.302 OA 
HETATM   32  O   UNL     1      -8.351  15.732  66.507  1.00  0.00    -0.272 OA 
HETATM   33  C   UNL     1     -12.789  13.033  64.707  1.00  0.00    -0.336 A  
HETATM   34  C   UNL     1     -12.136  12.159  63.848  1.00  0.00    -0.488 A  
HETATM   35  C   UNL     1     -10.773  11.925  63.979  1.00  0.00    -0.428 A  
HETATM   36  O   UNL     1     -12.799  11.501  62.857  1.00  0.00    -0.901 OA 
HETATM   37  H   UNL     1     -12.352  10.904  62.269  1.00  0.00     0.000 HD 
HETATM   38  C   UNL     1     -10.057  12.537  65.011  1.00  0.00    -0.258 A  
ENDBRANCH   5  23
TORSDOF 5
ENDMDL
MODEL       55
REMARK 921   NORMALIZED FREE ENERGY PREDICTED BY IDOCK:   -5.63 KCAL/MOL
REMARK 922        TOTAL FREE ENERGY PREDICTED BY IDOCK:   -8.62 KCAL/MOL
REMARK 923 INTER-LIGAND FREE ENERGY PREDICTED BY IDOCK:   -6.77 KCAL/MOL
REMARK 924 INTRA-LIGAND FREE ENERGY PREDICTED BY IDOCK:   -1.84 KCAL/MOL
REMARK 927      BINDING AFFINITY PREDICTED BY RF-SCORE:    0.00 PKD
ROOT
HETATM    1  C   UNL     1     -11.787   7.754  72.314  1.00  0.00    -0.329 C  
HETATM    2  O   UNL     1     -12.124   6.490  71.721  1.00  0.00    -0.338 OA 
HETATM    3  C   UNL     1     -12.131   5.432  72.681  1.00  0.00     0.098 C  
HETATM    4  C   UNL     1     -10.849   5.427  73.504  1.00  0.00    -0.342 C  
HETATM    5  C   UNL     1     -11.183   8.901  71.396  1.00  0.00    -0.312 C  
HETATM    6  C   UNL     1     -10.045   6.527  73.552  1.00  0.00    -0.240 C  
HETATM    7  N   UNL     1     -10.514   7.707  73.020  1.00  0.00    -0.326 N  
HETATM    8  C   UNL     1      -8.659   6.446  74.150  1.00  0.00    -0.124 C  
HETATM    9  O   UNL     1      -8.097   5.394  74.422  1.00  0.00    -0.104 OA 
HETATM   10  O   UNL     1      -8.057   7.621  74.418  1.00  0.00    -0.177 OA 
HETATM   11  O   UNL     1      -8.764   9.090  72.396  1.00  0.00    -0.347 OA 
HETATM   12  C   UNL     1      -9.903   8.687  72.318  1.00  0.00    -0.289 C  
ENDROOT
BRANCH   4  13
HETATM   13  C   UNL     1     -10.567   4.060  74.104  1.00  0.00    -0.227 C  
BRANCH  13  14
HETATM   14  S   UNL     1     -10.546   2.688  72.917  1.00  0.00    -0.093 SA 
BRANCH  14  15
HETATM   15  C   UNL     1      -9.026   2.843  72.131  1.00  0.00    -0.087 A  
HETATM   16  N   UNL     1      -7.859   2.402  72.537  1.00  0.00    -0.052 NA 
HETATM   17  C   UNL     1      -9.821   4.134  70.097  1.00  0.00    -0.172 C  
HETATM   18  N   UNL     1      -6.953   2.814  71.589  1.00  0.00    -0.030 NA 
HETATM   19  N   UNL     1      -7.553   3.487  70.616  1.00  0.00    -0.040 NA 
HETATM   20  N   UNL     1      -8.855   3.499  70.947  1.00  0.00    -0.078 NA 
ENDBRANCH  14  15
ENDBRANCH  13  14
ENDBRANCH   4  13
BRANCH   5  21
HETATM   21  O   UNL     1     -11.791  10.211  71.553  1.00  0.00    -0.362 OA 
HETATM   22  C   UNL     1     -12.956  10.478  70.786  1.00  0.00    -0.330 C  
ENDBRANCH   5  21
BRANCH   5  23
HETATM   23  N   UNL     1     -10.979   8.466  69.975  1.00  0.00    -0.334 N  
HETATM   24  C   UNL     1     -10.143   8.687  67.672  1.00  0.00    -0.271 C  
HETATM   25  C   UNL     1     -10.218   9.212  69.099  1.00  0.00    -0.207 C  
HETATM   26  O   UNL     1      -9.593  10.215  69.446  1.00  0.00    -0.210 OA 
HETATM   27  H   UNL     1     -11.411   7.602  69.650  1.00  0.00     0.000 HD 
HETATM   28  C   UNL     1      -9.824   9.755  66.635  1.00  0.00    -0.215 C  
HETATM   29  C   UNL     1      -9.213   7.483  67.531  1.00  0.00    -0.140 A  
HETATM   30  C   UNL     1      -9.451   6.540  66.513  1.00  0.00    -0.190 A  
HETATM   31  O   UNL     1     -10.152   9.638  65.459  1.00  0.00    -0.290 OA 
HETATM   32  O   UNL     1      -9.126  10.833  67.056  1.00  0.00    -0.144 OA 
HETATM   33  C   UNL     1      -8.655   5.396  66.394  1.00  0.00    -0.119 A  
HETATM   34  C   UNL     1      -7.612   5.193  67.288  1.00  0.00    -0.091 A  
HETATM   35  C   UNL     1      -7.320   6.139  68.262  1.00  0.00    -0.086 A  
HETATM   36  O   UNL     1      -6.844   4.068  67.247  1.00  0.00    -0.049 OA 
HETATM   37  H   UNL     1      -6.131   3.929  67.858  1.00  0.00     0.000 HD 
HETATM   38  C   UNL     1      -8.108   7.286  68.376  1.00  0.00    -0.125 A  
ENDBRANCH   5  23
TORSDOF 5
ENDMDL
MODEL       56
REMARK 921   NORMALIZED FREE ENERGY PREDICTED BY IDOCK:   -5.62 KCAL/MOL
REMARK 922        TOTAL FREE ENERGY PREDICTED BY IDOCK:   -8.61 KCAL/MOL
REMARK 923 INTER-LIGAND FREE ENERGY PREDICTED BY IDOCK:   -7.39 KCAL/MOL
REMARK 924 INTRA-LIGAND FREE ENERGY PREDICTED BY IDOCK:   -1.23 KCAL/MOL
REMARK 927      BINDING AFFINITY PREDICTED BY RF-SCORE:    0.00 PKD
ROOT
HETATM    1  C   UNL     1      -7.195   7.310  67.721  1.00  0.00    -0.091 C  
HETATM    2  O   UNL     1      -7.221   8.110  68.912  1.00  0.00    -0.074 OA 
HETATM    3  C   UNL     1      -6.860   7.357  70.072  1.00  0.00    -0.055 C  
HETATM    4  C   UNL     1      -7.656   6.062  70.158  1.00  0.00    -0.095 C  
HETATM    5  C   UNL     1      -8.070   7.755  66.472  1.00  0.00    -0.111 C  
HETATM    6  C   UNL     1      -8.295   5.560  69.063  1.00  0.00    -0.102 C  
HETATM    7  N   UNL     1      -8.036   6.126  67.835  1.00  0.00    -0.113 N  
HETATM    8  C   UNL     1      -9.287   4.427  69.198  1.00  0.00    -0.155 C  
HETATM    9  O   UNL     1      -9.734   4.041  70.269  1.00  0.00    -0.190 OA 
HETATM   10  O   UNL     1      -9.645   3.811  68.055  1.00  0.00    -0.173 OA 
HETATM   11  O   UNL     1      -9.801   5.785  66.375  1.00  0.00    -0.157 OA 
HETATM   12  C   UNL     1      -8.834   6.392  66.777  1.00  0.00    -0.124 C  
ENDROOT
BRANCH   4  13
HETATM   13  C   UNL     1      -7.727   5.535  71.581  1.00  0.00    -0.107 C  
BRANCH  13  14
HETATM   14  S   UNL     1      -8.417   6.692  72.797  1.00  0.00    -0.118 SA 
BRANCH  14  15
HETATM   15  C   UNL     1     -10.043   6.910  72.286  1.00  0.00    -0.176 A  
HETATM   16  N   UNL     1     -10.530   7.863  71.527  1.00  0.00    -0.207 NA 
HETATM   17  C   UNL     1     -11.045   4.893  73.455  1.00  0.00    -0.332 C  
HETATM   18  N   UNL     1     -11.881   7.625  71.447  1.00  0.00    -0.285 NA 
HETATM   19  N   UNL     1     -12.216   6.541  72.135  1.00  0.00    -0.281 NA 
HETATM   20  N   UNL     1     -11.065   6.084  72.655  1.00  0.00    -0.260 NA 
ENDBRANCH  14  15
ENDBRANCH  13  14
ENDBRANCH   4  13
BRANCH   5  21
HETATM   21  O   UNL     1      -7.380   7.753  65.193  1.00  0.00    -0.066 OA 
HETATM   22  C   UNL     1      -5.974   7.552  65.219  1.00  0.00    -0.038 C  
ENDBRANCH   5  21
BRANCH   5  23
HETATM   23  N   UNL     1      -8.894   8.978  66.742  1.00  0.00    -0.125 N  
HETATM   24  C   UNL     1      -9.270  11.385  67.091  1.00  0.00    -0.170 C  
HETATM   25  C   UNL     1      -8.331  10.237  66.743  1.00  0.00    -0.124 C  
HETATM   26  O   UNL     1      -7.156  10.442  66.435  1.00  0.00    -0.104 OA 
HETATM   27  H   UNL     1      -9.891   8.878  66.929  1.00  0.00     0.000 HD 
HETATM   28  C   UNL     1      -8.564  12.616  67.643  1.00  0.00    -0.180 C  
HETATM   29  C   UNL     1     -10.209  11.752  65.943  1.00  0.00    -0.272 A  
HETATM   30  C   UNL     1     -11.465  12.320  66.230  1.00  0.00    -0.435 A  
HETATM   31  O   UNL     1      -9.137  13.423  68.368  1.00  0.00    -0.189 OA 
HETATM   32  O   UNL     1      -7.279  12.809  67.270  1.00  0.00    -0.145 OA 
HETATM   33  C   UNL     1     -12.371  12.613  65.206  1.00  0.00    -0.528 A  
HETATM   34  C   UNL     1     -12.024  12.346  63.888  1.00  0.00    -0.486 A  
HETATM   35  C   UNL     1     -10.768  11.843  63.576  1.00  0.00    -0.504 A  
HETATM   36  O   UNL     1     -12.894  12.562  62.862  1.00  0.00    -0.531 OA 
HETATM   37  H   UNL     1     -12.656  12.379  61.961  1.00  0.00     0.000 HD 
HETATM   38  C   UNL     1      -9.858  11.559  64.596  1.00  0.00    -0.283 A  
ENDBRANCH   5  23
TORSDOF 5
ENDMDL
MODEL       57
REMARK 921   NORMALIZED FREE ENERGY PREDICTED BY IDOCK:   -5.59 KCAL/MOL
REMARK 922        TOTAL FREE ENERGY PREDICTED BY IDOCK:   -8.57 KCAL/MOL
REMARK 923 INTER-LIGAND FREE ENERGY PREDICTED BY IDOCK:   -7.98 KCAL/MOL
REMARK 924 INTRA-LIGAND FREE ENERGY PREDICTED BY IDOCK:   -0.59 KCAL/MOL
REMARK 927      BINDING AFFINITY PREDICTED BY RF-SCORE:    0.00 PKD
ROOT
HETATM    1  C   UNL     1      -8.148  10.588  69.640  1.00  0.00    -0.043 C  
HETATM    2  O   UNL     1      -7.306  10.758  68.490  1.00  0.00    -0.085 OA 
HETATM    3  C   UNL     1      -7.609  11.958  67.776  1.00  0.00    -0.130 C  
HETATM    4  C   UNL     1      -9.102  12.069  67.493  1.00  0.00    -0.177 C  
HETATM    5  C   UNL     1      -8.374   9.127  70.222  1.00  0.00    -0.173 C  
HETATM    6  C   UNL     1     -10.002  11.321  68.192  1.00  0.00    -0.181 C  
HETATM    7  N   UNL     1      -9.563  10.624  69.296  1.00  0.00    -0.182 N  
HETATM    8  C   UNL     1     -11.445  11.234  67.749  1.00  0.00    -0.275 C  
HETATM    9  O   UNL     1     -11.846  11.630  66.662  1.00  0.00    -0.533 OA 
HETATM   10  O   UNL     1     -12.313  10.721  68.643  1.00  0.00    -0.430 OA 
HETATM   11  O   UNL     1     -10.934   8.810  69.733  1.00  0.00    -0.223 OA 
HETATM   12  C   UNL     1      -9.878   9.402  69.777  1.00  0.00    -0.201 C  
ENDROOT
BRANCH   4  13
HETATM   13  C   UNL     1      -9.388  12.976  66.309  1.00  0.00    -0.140 C  
BRANCH  13  14
HETATM   14  S   UNL     1      -9.412  14.750  66.685  1.00  0.00    -0.288 SA 
BRANCH  14  15
HETATM   15  C   UNL     1     -10.476  15.410  65.508  1.00  0.00    -0.380 A  
HETATM   16  N   UNL     1     -11.225  14.764  64.645  1.00  0.00    -0.367 NA 
HETATM   17  C   UNL     1     -10.073  17.863  66.015  1.00  0.00    -0.253 C  
HETATM   18  N   UNL     1     -11.852  15.731  63.898  1.00  0.00    -0.540 NA 
HETATM   19  N   UNL     1     -11.503  16.947  64.299  1.00  0.00    -1.039 NA 
HETATM   20  N   UNL     1     -10.647  16.749  65.315  1.00  0.00    -0.648 NA 
ENDBRANCH  14  15
ENDBRANCH  13  14
ENDBRANCH   4  13
BRANCH   5  21
HETATM   21  O   UNL     1      -8.216   8.996  71.660  1.00  0.00    -0.330 OA 
HETATM   22  C   UNL     1      -9.365   8.616  72.403  1.00  0.00    -0.214 C  
ENDBRANCH   5  21
BRANCH   5  23
HETATM   23  N   UNL     1      -7.694   8.064  69.413  1.00  0.00    -0.102 N  
HETATM   24  C   UNL     1      -7.237   5.755  68.694  1.00  0.00    -0.082 C  
HETATM   25  C   UNL     1      -8.050   6.736  69.529  1.00  0.00    -0.126 C  
HETATM   26  O   UNL     1      -8.994   6.357  70.223  1.00  0.00    -0.152 OA 
HETATM   27  H   UNL     1      -6.953   8.327  68.763  1.00  0.00     0.000 HD 
HETATM   28  C   UNL     1      -7.231   4.334  69.241  1.00  0.00    -0.051 C  
HETATM   29  C   UNL     1      -7.619   5.778  67.215  1.00  0.00    -0.096 A  
HETATM   30  C   UNL     1      -6.658   5.430  66.246  1.00  0.00    -0.052 A  
HETATM   31  O   UNL     1      -6.323   3.547  68.994  1.00  0.00    -0.028 OA 
HETATM   32  O   UNL     1      -8.293   3.956  69.987  1.00  0.00    -0.056 OA 
HETATM   33  C   UNL     1      -6.956   5.498  64.882  1.00  0.00    -0.053 A  
HETATM   34  C   UNL     1      -8.220   5.907  64.478  1.00  0.00    -0.110 A  
HETATM   35  C   UNL     1      -9.203   6.196  65.415  1.00  0.00     0.210 A  
HETATM   36  O   UNL     1      -8.540   6.042  63.161  1.00  0.00    -0.327 OA 
HETATM   37  H   UNL     1      -9.405   6.322  62.884  1.00  0.00     0.000 HD 
HETATM   38  C   UNL     1      -8.910   6.121  66.778  1.00  0.00    -0.122 A  
ENDBRANCH   5  23
TORSDOF 5
ENDMDL
MODEL       58
REMARK 921   NORMALIZED FREE ENERGY PREDICTED BY IDOCK:   -5.52 KCAL/MOL
REMARK 922        TOTAL FREE ENERGY PREDICTED BY IDOCK:   -8.48 KCAL/MOL
REMARK 923 INTER-LIGAND FREE ENERGY PREDICTED BY IDOCK:   -7.93 KCAL/MOL
REMARK 924 INTRA-LIGAND FREE ENERGY PREDICTED BY IDOCK:   -0.55 KCAL/MOL
REMARK 927      BINDING AFFINITY PREDICTED BY RF-SCORE:    0.00 PKD
ROOT
HETATM    1  C   UNL     1     -11.832  13.199  67.754  1.00  0.00    -0.348 C  
HETATM    2  O   UNL     1     -11.015  12.092  68.166  1.00  0.00    -0.207 OA 
HETATM    3  C   UNL     1     -11.680  11.260  69.118  1.00  0.00    -0.341 C  
HETATM    4  C   UNL     1     -12.258  12.084  70.261  1.00  0.00    -0.348 C  
HETATM    5  C   UNL     1     -11.132  14.504  67.179  1.00  0.00    -0.321 C  
HETATM    6  C   UNL     1     -12.439  13.428  70.131  1.00  0.00    -0.174 C  
HETATM    7  N   UNL     1     -12.290  13.994  68.885  1.00  0.00    -0.211 N  
HETATM    8  C   UNL     1     -12.768  14.284  71.334  1.00  0.00    -0.352 C  
HETATM    9  O   UNL     1     -12.684  13.891  72.490  1.00  0.00    -0.268 OA 
HETATM   10  O   UNL     1     -13.210  15.530  71.075  1.00  0.00    -0.498 OA 
HETATM   11  O   UNL     1     -11.743  16.239  69.052  1.00  0.00    -0.299 OA 
HETATM   12  C   UNL     1     -11.756  15.169  68.484  1.00  0.00    -0.325 C  
ENDROOT
BRANCH   4  13
HETATM   13  C   UNL     1     -12.457  11.249  71.515  1.00  0.00    -0.227 C  
BRANCH  13  14
HETATM   14  S   UNL     1     -13.164   9.601  71.239  1.00  0.00    -0.310 SA 
BRANCH  14  15
HETATM   15  C   UNL     1     -11.960   8.528  71.831  1.00  0.00    -0.345 A  
HETATM   16  N   UNL     1     -11.823   8.061  73.050  1.00  0.00    -0.200 NA 
HETATM   17  C   UNL     1     -10.666   8.235  69.668  1.00  0.00    -0.194 C  
HETATM   18  N   UNL     1     -10.689   7.286  73.028  1.00  0.00    -0.306 NA 
HETATM   19  N   UNL     1     -10.145   7.269  71.818  1.00  0.00    -0.179 NA 
HETATM   20  N   UNL     1     -10.944   8.039  71.062  1.00  0.00    -0.236 NA 
ENDBRANCH  14  15
ENDBRANCH  13  14
ENDBRANCH   4  13
BRANCH   5  21
HETATM   21  O   UNL     1     -11.697  15.023  65.945  1.00  0.00    -0.248 OA 
HETATM   22  C   UNL     1     -11.231  14.450  64.732  1.00  0.00    -0.387 C  
ENDBRANCH   5  21
BRANCH   5  23
HETATM   23  N   UNL     1      -9.635  14.423  67.204  1.00  0.00    -0.243 N  
HETATM   24  C   UNL     1      -7.351  15.337  67.278  1.00  0.00    -0.230 C  
HETATM   25  C   UNL     1      -8.858  15.556  67.328  1.00  0.00    -0.201 C  
HETATM   26  O   UNL     1      -9.335  16.675  67.518  1.00  0.00    -0.217 OA 
HETATM   27  H   UNL     1      -9.182  13.513  67.126  1.00  0.00     0.000 HD 
HETATM   28  C   UNL     1      -6.561  16.562  66.841  1.00  0.00    -0.177 C  
HETATM   29  C   UNL     1      -6.794  14.752  68.575  1.00  0.00    -0.107 A  
HETATM   30  C   UNL     1      -5.629  13.963  68.535  1.00  0.00    -0.094 A  
HETATM   31  O   UNL     1      -5.453  16.471  66.324  1.00  0.00    -0.174 OA 
HETATM   32  O   UNL     1      -7.117  17.771  67.079  1.00  0.00    -0.170 OA 
HETATM   33  C   UNL     1      -5.126  13.365  69.694  1.00  0.00    -0.084 A  
HETATM   34  C   UNL     1      -5.782  13.558  70.903  1.00  0.00    -0.189 A  
HETATM   35  C   UNL     1      -6.898  14.381  70.979  1.00  0.00     0.788 A  
HETATM   36  O   UNL     1      -5.363  12.951  72.049  1.00  0.00    -0.375 OA 
HETATM   37  H   UNL     1      -5.812  13.083  72.876  1.00  0.00     0.000 HD 
HETATM   38  C   UNL     1      -7.396  14.987  69.823  1.00  0.00    -0.132 A  
ENDBRANCH   5  23
TORSDOF 5
ENDMDL
MODEL       59
REMARK 921   NORMALIZED FREE ENERGY PREDICTED BY IDOCK:   -5.51 KCAL/MOL
REMARK 922        TOTAL FREE ENERGY PREDICTED BY IDOCK:   -8.46 KCAL/MOL
REMARK 923 INTER-LIGAND FREE ENERGY PREDICTED BY IDOCK:   -7.88 KCAL/MOL
REMARK 924 INTRA-LIGAND FREE ENERGY PREDICTED BY IDOCK:   -0.59 KCAL/MOL
REMARK 927      BINDING AFFINITY PREDICTED BY RF-SCORE:    0.00 PKD
ROOT
HETATM    1  C   UNL     1      -8.548  11.749  66.282  1.00  0.00    -0.062 C  
HETATM    2  O   UNL     1      -7.488  11.993  67.219  1.00  0.00    -0.141 OA 
HETATM    3  C   UNL     1      -6.625  10.863  67.358  1.00  0.00    -0.069 C  
HETATM    4  C   UNL     1      -7.422   9.590  67.616  1.00  0.00    -0.091 C  
HETATM    5  C   UNL     1      -9.886  12.599  66.392  1.00  0.00    -0.259 C  
HETATM    6  C   UNL     1      -8.755   9.532  67.338  1.00  0.00    -0.125 C  
HETATM    7  N   UNL     1      -9.323  10.565  66.626  1.00  0.00    -0.159 N  
HETATM    8  C   UNL     1      -9.596   8.374  67.823  1.00  0.00    -0.156 C  
HETATM    9  O   UNL     1      -9.212   7.555  68.648  1.00  0.00    -0.144 OA 
HETATM   10  O   UNL     1     -10.817   8.250  67.267  1.00  0.00    -0.232 OA 
HETATM   11  O   UNL     1     -11.593  10.719  67.057  1.00  0.00    -0.322 OA 
HETATM   12  C   UNL     1     -10.522  11.179  66.727  1.00  0.00    -0.252 C  
ENDROOT
BRANCH   4  13
HETATM   13  C   UNL     1      -6.582   8.528  68.305  1.00  0.00    -0.061 C  
BRANCH  13  14
HETATM   14  S   UNL     1      -5.900   9.010  69.916  1.00  0.00    -0.031 SA 
BRANCH  14  15
HETATM   15  C   UNL     1      -7.199   8.753  71.011  1.00  0.00    -0.088 A  
HETATM   16  N   UNL     1      -8.261   9.503  71.194  1.00  0.00    -0.242 NA 
HETATM   17  C   UNL     1      -6.357   6.595  72.044  1.00  0.00    -0.049 C  
HETATM   18  N   UNL     1      -8.974   8.901  72.203  1.00  0.00    -0.384 NA 
HETATM   19  N   UNL     1      -8.367   7.799  72.625  1.00  0.00    -0.121 NA 
HETATM   20  N   UNL     1      -7.259   7.698  71.873  1.00  0.00    -0.063 NA 
ENDBRANCH  14  15
ENDBRANCH  13  14
ENDBRANCH   4  13
BRANCH   5  21
HETATM   21  O   UNL     1     -10.371  13.165  65.145  1.00  0.00    -0.300 OA 
HETATM   22  C   UNL     1     -10.600  12.263  64.073  1.00  0.00    -0.400 C  
ENDBRANCH   5  21
BRANCH   5  23
HETATM   23  N   UNL     1      -9.884  13.545  67.556  1.00  0.00    -0.223 N  
HETATM   24  C   UNL     1     -10.333  15.676  68.701  1.00  0.00    -0.216 C  
HETATM   25  C   UNL     1     -10.458  14.796  67.465  1.00  0.00    -0.245 C  
HETATM   26  O   UNL     1     -11.080  15.173  66.471  1.00  0.00    -0.330 OA 
HETATM   27  H   UNL     1      -9.449  13.258  68.433  1.00  0.00     0.000 HD 
HETATM   28  C   UNL     1     -10.430  17.168  68.412  1.00  0.00    -0.376 C  
HETATM   29  C   UNL     1     -11.287  15.265  69.821  1.00  0.00    -0.306 A  
HETATM   30  C   UNL     1     -10.939  15.529  71.160  1.00  0.00    -0.275 A  
HETATM   31  O   UNL     1      -9.926  18.007  69.150  1.00  0.00    -0.308 OA 
HETATM   32  O   UNL     1     -11.131  17.539  67.318  1.00  0.00    -0.099 OA 
HETATM   33  C   UNL     1     -11.762  15.113  72.211  1.00  0.00    -0.496 A  
HETATM   34  C   UNL     1     -12.942  14.438  71.930  1.00  0.00    -0.349 A  
HETATM   35  C   UNL     1     -13.337  14.221  70.616  1.00  0.00    -0.070 A  
HETATM   36  O   UNL     1     -13.749  13.965  72.921  1.00  0.00    -0.680 OA 
HETATM   37  H   UNL     1     -14.556  13.503  72.728  1.00  0.00     0.000 HD 
HETATM   38  C   UNL     1     -12.521  14.643  69.565  1.00  0.00    -0.151 A  
ENDBRANCH   5  23
TORSDOF 5
ENDMDL
MODEL       60
REMARK 921   NORMALIZED FREE ENERGY PREDICTED BY IDOCK:   -5.49 KCAL/MOL
REMARK 922        TOTAL FREE ENERGY PREDICTED BY IDOCK:   -8.44 KCAL/MOL
REMARK 923 INTER-LIGAND FREE ENERGY PREDICTED BY IDOCK:   -7.29 KCAL/MOL
REMARK 924 INTRA-LIGAND FREE ENERGY PREDICTED BY IDOCK:   -1.15 KCAL/MOL
REMARK 927      BINDING AFFINITY PREDICTED BY RF-SCORE:    0.00 PKD
ROOT
HETATM    1  C   UNL     1      -8.603   9.155  68.883  1.00  0.00    -0.131 C  
HETATM    2  O   UNL     1     -10.001   8.830  68.858  1.00  0.00    -0.180 OA 
HETATM    3  C   UNL     1     -10.229   7.477  68.458  1.00  0.00    -0.197 C  
HETATM    4  C   UNL     1      -9.476   7.147  67.176  1.00  0.00    -0.180 C  
HETATM    5  C   UNL     1      -8.161  10.675  68.742  1.00  0.00    -0.142 C  
HETATM    6  C   UNL     1      -8.442   7.928  66.752  1.00  0.00    -0.129 C  
HETATM    7  N   UNL     1      -7.954   8.892  67.606  1.00  0.00    -0.102 N  
HETATM    8  C   UNL     1      -7.863   7.759  65.366  1.00  0.00    -0.114 C  
HETATM    9  O   UNL     1      -8.393   7.095  64.485  1.00  0.00    -0.047 OA 
HETATM   10  O   UNL     1      -6.678   8.358  65.139  1.00  0.00    -0.062 OA 
HETATM   11  O   UNL     1      -6.924  10.600  66.428  1.00  0.00    -0.114 OA 
HETATM   12  C   UNL     1      -7.508  10.149  67.388  1.00  0.00    -0.094 C  
ENDROOT
BRANCH   4  13
HETATM   13  C   UNL     1     -10.103   5.978  66.437  1.00  0.00    -0.086 C  
BRANCH  13  14
HETATM   14  S   UNL     1      -9.638   4.337  67.055  1.00  0.00    -0.202 SA 
BRANCH  14  15
HETATM   15  C   UNL     1      -7.962   4.217  66.694  1.00  0.00    -0.098 A  
HETATM   16  N   UNL     1      -7.404   3.797  65.583  1.00  0.00    -0.071 NA 
HETATM   17  C   UNL     1      -7.070   5.065  68.913  1.00  0.00    -0.053 C  
HETATM   18  N   UNL     1      -6.048   3.846  65.804  1.00  0.00    -0.027 NA 
HETATM   19  N   UNL     1      -5.779   4.297  67.022  1.00  0.00    -0.021 NA 
HETATM   20  N   UNL     1      -6.976   4.540  67.581  1.00  0.00    -0.059 NA 
ENDBRANCH  14  15
ENDBRANCH  13  14
ENDBRANCH   4  13
BRANCH   5  21
HETATM   21  O   UNL     1      -7.181  11.133  69.711  1.00  0.00    -0.083 OA 
HETATM   22  C   UNL     1      -6.461  10.136  70.421  1.00  0.00    -0.131 C  
ENDBRANCH   5  21
BRANCH   5  23
HETATM   23  N   UNL     1      -9.320  11.603  68.528  1.00  0.00    -0.269 N  
HETATM   24  C   UNL     1     -10.427  13.796  68.391  1.00  0.00    -0.256 C  
HETATM   25  C   UNL     1      -9.158  12.972  68.565  1.00  0.00    -0.053 C  
HETATM   26  O   UNL     1      -8.057  13.511  68.680  1.00  0.00    -0.133 OA 
HETATM   27  H   UNL     1     -10.246  11.214  68.352  1.00  0.00     0.000 HD 
HETATM   28  C   UNL     1     -10.346  15.193  68.991  1.00  0.00    -0.244 C  
HETATM   29  C   UNL     1     -10.911  13.842  66.943  1.00  0.00    -0.300 A  
HETATM   30  C   UNL     1     -12.283  14.017  66.676  1.00  0.00    -0.463 A  
HETATM   31  O   UNL     1     -11.347  15.808  69.345  1.00  0.00    -0.298 OA 
HETATM   32  O   UNL     1      -9.119  15.751  69.088  1.00  0.00    -0.228 OA 
HETATM   33  C   UNL     1     -12.766  14.004  65.364  1.00  0.00    -0.499 A  
HETATM   34  C   UNL     1     -11.880  13.825  64.310  1.00  0.00    -0.417 A  
HETATM   35  C   UNL     1     -10.516  13.712  64.545  1.00  0.00    -0.411 A  
HETATM   36  O   UNL     1     -12.310  13.750  63.020  1.00  0.00    -1.089 OA 
HETATM   37  H   UNL     1     -11.703  13.627  62.299  1.00  0.00     0.000 HD 
HETATM   38  C   UNL     1     -10.030  13.733  65.854  1.00  0.00    -0.308 A  
ENDBRANCH   5  23
TORSDOF 5
ENDMDL
MODEL       61
REMARK 921   NORMALIZED FREE ENERGY PREDICTED BY IDOCK:   -5.46 KCAL/MOL
REMARK 922        TOTAL FREE ENERGY PREDICTED BY IDOCK:   -8.40 KCAL/MOL
REMARK 923 INTER-LIGAND FREE ENERGY PREDICTED BY IDOCK:   -7.31 KCAL/MOL
REMARK 924 INTRA-LIGAND FREE ENERGY PREDICTED BY IDOCK:   -1.09 KCAL/MOL
REMARK 927      BINDING AFFINITY PREDICTED BY RF-SCORE:    0.00 PKD
ROOT
HETATM    1  C   UNL     1      -9.606   5.789  69.363  1.00  0.00    -0.140 C  
HETATM    2  O   UNL     1      -8.278   6.141  69.779  1.00  0.00    -0.119 OA 
HETATM    3  C   UNL     1      -7.745   5.206  70.719  1.00  0.00    -0.080 C  
HETATM    4  C   UNL     1      -8.723   4.953  71.859  1.00  0.00    -0.136 C  
HETATM    5  C   UNL     1     -10.566   6.924  68.802  1.00  0.00    -0.220 C  
HETATM    6  C   UNL     1     -10.041   5.277  71.733  1.00  0.00    -0.200 C  
HETATM    7  N   UNL     1     -10.514   5.638  70.492  1.00  0.00    -0.259 N  
HETATM    8  C   UNL     1     -10.958   5.267  72.936  1.00  0.00    -0.287 C  
HETATM    9  O   UNL     1     -10.561   5.187  74.091  1.00  0.00    -0.276 OA 
HETATM   10  O   UNL     1     -12.279   5.313  72.678  1.00  0.00    -0.072 OA 
HETATM   11  O   UNL     1     -12.404   6.963  70.676  1.00  0.00    -0.348 OA 
HETATM   12  C   UNL     1     -11.413   6.569  70.103  1.00  0.00    -0.415 C  
ENDROOT
BRANCH   4  13
HETATM   13  C   UNL     1      -8.019   4.447  73.106  1.00  0.00    -0.095 C  
BRANCH  13  14
HETATM   14  S   UNL     1      -6.428   5.241  73.468  1.00  0.00    -0.069 SA 
BRANCH  14  15
HETATM   15  C   UNL     1      -6.810   6.914  73.559  1.00  0.00    -0.074 A  
HETATM   16  N   UNL     1      -7.658   7.505  74.368  1.00  0.00    -0.129 NA 
HETATM   17  C   UNL     1      -5.275   7.720  71.708  1.00  0.00    -0.035 C  
HETATM   18  N   UNL     1      -7.641   8.834  74.020  1.00  0.00    -0.418 NA 
HETATM   19  N   UNL     1      -6.794   9.057  73.025  1.00  0.00    -0.310 NA 
HETATM   20  N   UNL     1      -6.263   7.857  72.739  1.00  0.00    -0.061 NA 
ENDBRANCH  14  15
ENDBRANCH  13  14
ENDBRANCH   4  13
BRANCH   5  21
HETATM   21  O   UNL     1     -11.255   6.604  67.564  1.00  0.00    -0.319 OA 
HETATM   22  C   UNL     1     -10.776   5.486  66.830  1.00  0.00    -0.253 C  
ENDBRANCH   5  21
BRANCH   5  23
HETATM   23  N   UNL     1      -9.945   8.288  68.845  1.00  0.00    -0.181 N  
HETATM   24  C   UNL     1      -8.494  10.106  68.042  1.00  0.00    -0.118 C  
HETATM   25  C   UNL     1      -9.101   8.724  67.844  1.00  0.00    -0.139 C  
HETATM   26  O   UNL     1      -8.881   8.068  66.825  1.00  0.00    -0.129 OA 
HETATM   27  H   UNL     1     -10.151   8.907  69.628  1.00  0.00     0.000 HD 
HETATM   28  C   UNL     1      -7.187  10.322  67.291  1.00  0.00    -0.089 C  
HETATM   29  C   UNL     1      -9.485  11.235  67.764  1.00  0.00    -0.173 A  
HETATM   30  C   UNL     1      -9.332  12.470  68.423  1.00  0.00    -0.149 A  
HETATM   31  O   UNL     1      -6.354  11.144  67.658  1.00  0.00    -0.051 OA 
HETATM   32  O   UNL     1      -6.992   9.590  66.172  1.00  0.00    -0.088 OA 
HETATM   33  C   UNL     1     -10.255  13.503  68.236  1.00  0.00    -0.250 A  
HETATM   34  C   UNL     1     -11.334  13.310  67.383  1.00  0.00    -0.303 A  
HETATM   35  C   UNL     1     -11.472  12.123  66.676  1.00  0.00    -0.426 A  
HETATM   36  O   UNL     1     -12.289  14.266  67.212  1.00  0.00    -0.598 OA 
HETATM   37  H   UNL     1     -13.027  14.134  66.628  1.00  0.00     0.000 HD 
HETATM   38  C   UNL     1     -10.546  11.094  66.854  1.00  0.00    -0.304 A  
ENDBRANCH   5  23
TORSDOF 5
ENDMDL
MODEL       62
REMARK 921   NORMALIZED FREE ENERGY PREDICTED BY IDOCK:   -5.46 KCAL/MOL
REMARK 922        TOTAL FREE ENERGY PREDICTED BY IDOCK:   -8.40 KCAL/MOL
REMARK 923 INTER-LIGAND FREE ENERGY PREDICTED BY IDOCK:   -7.77 KCAL/MOL
REMARK 924 INTRA-LIGAND FREE ENERGY PREDICTED BY IDOCK:   -0.63 KCAL/MOL
REMARK 927      BINDING AFFINITY PREDICTED BY RF-SCORE:    0.00 PKD
ROOT
HETATM    1  C   UNL     1      -9.662   9.802  68.956  1.00  0.00    -0.177 C  
HETATM    2  O   UNL     1      -8.606  10.062  69.894  1.00  0.00    -0.194 OA 
HETATM    3  C   UNL     1      -8.584   9.106  70.956  1.00  0.00    -0.177 C  
HETATM    4  C   UNL     1      -9.965   8.944  71.580  1.00  0.00    -0.397 C  
HETATM    5  C   UNL     1     -10.215  10.995  68.065  1.00  0.00    -0.179 C  
HETATM    6  C   UNL     1     -11.083   9.362  70.921  1.00  0.00    -0.319 C  
HETATM    7  N   UNL     1     -10.966   9.737  69.602  1.00  0.00    -0.240 N  
HETATM    8  C   UNL     1     -12.415   9.439  71.632  1.00  0.00    -0.378 C  
HETATM    9  O   UNL     1     -12.543   9.349  72.846  1.00  0.00    -0.000 OA 
HETATM   10  O   UNL     1     -13.501   9.579  70.847  1.00  0.00    -0.233 OA 
HETATM   11  O   UNL     1     -12.658  11.201  69.002  1.00  0.00    -0.370 OA 
HETATM   12  C   UNL     1     -11.550  10.725  68.889  1.00  0.00    -0.291 C  
ENDROOT
BRANCH   4  13
HETATM   13  C   UNL     1      -9.883   8.408  72.999  1.00  0.00    -0.082 C  
BRANCH  13  14
HETATM   14  S   UNL     1      -8.860   6.924  73.205  1.00  0.00    -0.125 SA 
BRANCH  14  15
HETATM   15  C   UNL     1      -7.358   7.532  73.778  1.00  0.00    -0.100 A  
HETATM   16  N   UNL     1      -7.048   8.774  74.068  1.00  0.00    -0.384 NA 
HETATM   17  C   UNL     1      -6.093   5.334  73.828  1.00  0.00    -0.048 C  
HETATM   18  N   UNL     1      -5.725   8.753  74.437  1.00  0.00    -0.116 NA 
HETATM   19  N   UNL     1      -5.234   7.521  74.384  1.00  0.00    -0.054 NA 
HETATM   20  N   UNL     1      -6.258   6.751  73.979  1.00  0.00    -0.064 NA 
ENDBRANCH  14  15
ENDBRANCH  13  14
ENDBRANCH   4  13
BRANCH   5  21
HETATM   21  O   UNL     1     -10.346  10.707  66.647  1.00  0.00    -0.227 OA 
HETATM   22  C   UNL     1      -9.980   9.403  66.218  1.00  0.00    -0.283 C  
ENDBRANCH   5  21
BRANCH   5  23
HETATM   23  N   UNL     1      -9.569  12.311  68.384  1.00  0.00    -0.286 N  
HETATM   24  C   UNL     1      -7.793  14.010  68.275  1.00  0.00    -0.140 C  
HETATM   25  C   UNL     1      -8.364  12.674  67.818  1.00  0.00    -0.172 C  
HETATM   26  O   UNL     1      -7.799  11.996  66.960  1.00  0.00    -0.160 OA 
HETATM   27  H   UNL     1     -10.029  12.950  69.031  1.00  0.00     0.000 HD 
HETATM   28  C   UNL     1      -6.282  14.123  68.120  1.00  0.00    -0.133 C  
HETATM   29  C   UNL     1      -8.505  15.206  67.645  1.00  0.00    -0.171 A  
HETATM   30  C   UNL     1      -8.544  16.432  68.337  1.00  0.00    -0.209 A  
HETATM   31  O   UNL     1      -5.613  14.885  68.809  1.00  0.00    -0.083 OA 
HETATM   32  O   UNL     1      -5.704  13.369  67.158  1.00  0.00    -0.302 OA 
HETATM   33  C   UNL     1      -9.238  17.529  67.817  1.00  0.00    -0.253 A  
HETATM   34  C   UNL     1      -9.891  17.408  66.597  1.00  0.00    -0.297 A  
HETATM   35  C   UNL     1      -9.816  16.229  65.868  1.00  0.00    -0.365 A  
HETATM   36  O   UNL     1     -10.626  18.430  66.076  1.00  0.00    -0.427 OA 
HETATM   37  H   UNL     1     -11.073  18.348  65.242  1.00  0.00     0.000 HD 
HETATM   38  C   UNL     1      -9.115  15.136  66.382  1.00  0.00    -0.331 A  
ENDBRANCH   5  23
TORSDOF 5
ENDMDL
MODEL       63
REMARK 921   NORMALIZED FREE ENERGY PREDICTED BY IDOCK:   -5.44 KCAL/MOL
REMARK 922        TOTAL FREE ENERGY PREDICTED BY IDOCK:   -8.37 KCAL/MOL
REMARK 923 INTER-LIGAND FREE ENERGY PREDICTED BY IDOCK:   -6.52 KCAL/MOL
REMARK 924 INTRA-LIGAND FREE ENERGY PREDICTED BY IDOCK:   -1.86 KCAL/MOL
REMARK 927      BINDING AFFINITY PREDICTED BY RF-SCORE:    0.00 PKD
ROOT
HETATM    1  C   UNL     1      -9.423  10.425  68.679  1.00  0.00    -0.167 C  
HETATM    2  O   UNL     1     -10.694   9.792  68.470  1.00  0.00    -0.217 OA 
HETATM    3  C   UNL     1     -11.526   9.863  69.629  1.00  0.00    -0.108 C  
HETATM    4  C   UNL     1     -10.780   9.397  70.872  1.00  0.00    -0.393 C  
HETATM    5  C   UNL     1      -8.185   9.988  67.783  1.00  0.00    -0.113 C  
HETATM    6  C   UNL     1      -9.419   9.327  70.885  1.00  0.00    -0.261 C  
HETATM    7  N   UNL     1      -8.722   9.883  69.835  1.00  0.00    -0.213 N  
HETATM    8  C   UNL     1      -8.691   8.630  72.012  1.00  0.00    -0.165 C  
HETATM    9  O   UNL     1      -9.244   7.921  72.842  1.00  0.00    -0.183 OA 
HETATM   10  O   UNL     1      -7.365   8.857  72.095  1.00  0.00    -0.320 OA 
HETATM   11  O   UNL     1      -6.642   8.891  69.601  1.00  0.00    -0.041 OA 
HETATM   12  C   UNL     1      -7.609   9.487  69.180  1.00  0.00    -0.075 C  
ENDROOT
BRANCH   4  13
HETATM   13  C   UNL     1     -11.731   8.931  71.961  1.00  0.00    -0.367 C  
BRANCH  13  14
HETATM   14  S   UNL     1     -12.752   7.494  71.530  1.00  0.00    -0.354 SA 
BRANCH  14  15
HETATM   15  C   UNL     1     -11.644   6.181  71.539  1.00  0.00    -0.241 A  
HETATM   16  N   UNL     1     -11.279   5.439  72.559  1.00  0.00    -0.262 NA 
HETATM   17  C   UNL     1     -11.031   6.231  69.078  1.00  0.00    -0.372 C  
HETATM   18  N   UNL     1     -10.345   4.560  72.066  1.00  0.00    -0.178 NA 
HETATM   19  N   UNL     1     -10.146   4.751  70.769  1.00  0.00    -0.230 NA 
HETATM   20  N   UNL     1     -10.966   5.761  70.432  1.00  0.00    -0.291 NA 
ENDBRANCH  14  15
ENDBRANCH  13  14
ENDBRANCH   4  13
BRANCH   5  21
HETATM   21  O   UNL     1      -7.419  11.078  67.204  1.00  0.00    -0.105 OA 
HETATM   22  C   UNL     1      -7.929  12.392  67.382  1.00  0.00    -0.178 C  
ENDBRANCH   5  21
BRANCH   5  23
HETATM   23  N   UNL     1      -8.515   8.874  66.835  1.00  0.00    -0.111 N  
HETATM   24  C   UNL     1      -8.014   7.178  65.124  1.00  0.00    -0.128 C  
HETATM   25  C   UNL     1      -7.534   8.253  66.090  1.00  0.00    -0.081 C  
HETATM   26  O   UNL     1      -6.335   8.505  66.223  1.00  0.00    -0.055 OA 
HETATM   27  H   UNL     1      -9.483   8.570  66.738  1.00  0.00     0.000 HD 
HETATM   28  C   UNL     1      -7.073   6.933  63.953  1.00  0.00    -0.060 C  
HETATM   29  C   UNL     1      -8.379   5.871  65.824  1.00  0.00    -0.140 A  
HETATM   30  C   UNL     1      -9.345   5.023  65.249  1.00  0.00    -0.095 A  
HETATM   31  O   UNL     1      -7.467   6.472  62.887  1.00  0.00    -0.058 OA 
HETATM   32  O   UNL     1      -5.764   7.212  64.145  1.00  0.00    -0.032 OA 
HETATM   33  C   UNL     1      -9.746   3.849  65.894  1.00  0.00    -0.168 A  
HETATM   34  C   UNL     1      -9.177   3.511  67.115  1.00  0.00    -0.192 A  
HETATM   35  C   UNL     1      -8.178   4.299  67.672  1.00  0.00    -0.098 A  
HETATM   36  O   UNL     1      -9.574   2.407  67.807  1.00  0.00    -0.366 OA 
HETATM   37  H   UNL     1      -9.184   2.176  68.643  1.00  0.00     0.000 HD 
HETATM   38  C   UNL     1      -7.771   5.468  67.025  1.00  0.00    -0.100 A  
ENDBRANCH   5  23
TORSDOF 5
ENDMDL
MODEL       64
REMARK 921   NORMALIZED FREE ENERGY PREDICTED BY IDOCK:   -5.40 KCAL/MOL
REMARK 922        TOTAL FREE ENERGY PREDICTED BY IDOCK:   -8.32 KCAL/MOL
REMARK 923 INTER-LIGAND FREE ENERGY PREDICTED BY IDOCK:   -7.09 KCAL/MOL
REMARK 924 INTRA-LIGAND FREE ENERGY PREDICTED BY IDOCK:   -1.24 KCAL/MOL
REMARK 927      BINDING AFFINITY PREDICTED BY RF-SCORE:    0.00 PKD
ROOT
HETATM    1  C   UNL     1      -6.302   9.589  70.260  1.00  0.00    -0.066 C  
HETATM    2  O   UNL     1      -6.822   9.826  71.577  1.00  0.00    -0.310 OA 
HETATM    3  C   UNL     1      -6.339   8.871  72.524  1.00  0.00     0.026 C  
HETATM    4  C   UNL     1      -6.524   7.448  72.014  1.00  0.00    -0.043 C  
HETATM    5  C   UNL     1      -7.106  10.135  69.003  1.00  0.00    -0.072 C  
HETATM    6  C   UNL     1      -6.741   7.203  70.691  1.00  0.00    -0.052 C  
HETATM    7  N   UNL     1      -6.579   8.236  69.795  1.00  0.00    -0.039 N  
HETATM    8  C   UNL     1      -7.176   5.834  70.219  1.00  0.00    -0.075 C  
HETATM    9  O   UNL     1      -7.561   4.948  70.971  1.00  0.00    -0.073 OA 
HETATM   10  O   UNL     1      -7.086   5.603  68.895  1.00  0.00    -0.065 OA 
HETATM   11  O   UNL     1      -7.825   7.875  67.876  1.00  0.00    -0.121 OA 
HETATM   12  C   UNL     1      -7.263   8.583  68.683  1.00  0.00    -0.080 C  
ENDROOT
BRANCH   4  13
HETATM   13  C   UNL     1      -6.560   6.441  73.150  1.00  0.00    -0.069 C  
BRANCH  13  14
HETATM   14  S   UNL     1      -7.715   6.836  74.494  1.00  0.00    -0.120 SA 
BRANCH  14  15
HETATM   15  C   UNL     1      -9.209   6.173  73.965  1.00  0.00    -0.135 A  
HETATM   16  N   UNL     1     -10.277   6.816  73.555  1.00  0.00    -0.260 NA 
HETATM   17  C   UNL     1      -8.624   3.722  74.263  1.00  0.00    -0.088 C  
HETATM   18  N   UNL     1     -11.217   5.848  73.289  1.00  0.00    -0.180 NA 
HETATM   19  N   UNL     1     -10.732   4.635  73.521  1.00  0.00    -0.235 NA 
HETATM   20  N   UNL     1      -9.470   4.834  73.936  1.00  0.00    -0.126 NA 
ENDBRANCH  14  15
ENDBRANCH  13  14
ENDBRANCH   4  13
BRANCH   5  21
HETATM   21  O   UNL     1      -6.313  10.846  68.015  1.00  0.00    -0.056 OA 
HETATM   22  C   UNL     1      -6.246  12.260  68.138  1.00  0.00    -0.058 C  
ENDBRANCH   5  21
BRANCH   5  23
HETATM   23  N   UNL     1      -8.395  10.804  69.378  1.00  0.00    -0.368 N  
HETATM   24  C   UNL     1     -10.694  11.592  68.997  1.00  0.00    -0.217 C  
HETATM   25  C   UNL     1      -9.469  10.828  68.513  1.00  0.00    -0.181 C  
HETATM   26  O   UNL     1      -9.471  10.233  67.435  1.00  0.00    -0.151 OA 
HETATM   27  H   UNL     1      -8.479  11.250  70.291  1.00  0.00     0.000 HD 
HETATM   28  C   UNL     1     -11.593  12.095  67.876  1.00  0.00    -0.347 C  
HETATM   29  C   UNL     1     -11.495  10.825  70.048  1.00  0.00    -0.412 A  
HETATM   30  C   UNL     1     -12.251  11.537  70.998  1.00  0.00    -0.368 A  
HETATM   31  O   UNL     1     -12.333  13.063  68.020  1.00  0.00    -0.116 OA 
HETATM   32  O   UNL     1     -11.573  11.405  66.714  1.00  0.00    -0.465 OA 
HETATM   33  C   UNL     1     -12.947  10.867  72.009  1.00  0.00    -0.418 A  
HETATM   34  C   UNL     1     -12.898   9.480  72.071  1.00  0.00    -0.414 A  
HETATM   35  C   UNL     1     -12.209   8.754  71.109  1.00  0.00    -0.284 A  
HETATM   36  O   UNL     1     -13.513   8.787  73.069  1.00  0.00    -0.873 OA 
HETATM   37  H   UNL     1     -13.479   7.838  73.111  1.00  0.00     0.000 HD 
HETATM   38  C   UNL     1     -11.520   9.421  70.093  1.00  0.00    -0.175 A  
ENDBRANCH   5  23
TORSDOF 5
ENDMDL
MODEL       65
REMARK 921   NORMALIZED FREE ENERGY PREDICTED BY IDOCK:   -5.33 KCAL/MOL
REMARK 922        TOTAL FREE ENERGY PREDICTED BY IDOCK:   -8.24 KCAL/MOL
REMARK 923 INTER-LIGAND FREE ENERGY PREDICTED BY IDOCK:   -6.29 KCAL/MOL
REMARK 924 INTRA-LIGAND FREE ENERGY PREDICTED BY IDOCK:   -1.95 KCAL/MOL
REMARK 927      BINDING AFFINITY PREDICTED BY RF-SCORE:    0.00 PKD
ROOT
HETATM    1  C   UNL     1      -6.427   8.143  67.762  1.00  0.00    -0.053 C  
HETATM    2  O   UNL     1      -6.186   7.854  69.147  1.00  0.00    -0.034 OA 
HETATM    3  C   UNL     1      -5.394   6.677  69.319  1.00  0.00    -0.014 C  
HETATM    4  C   UNL     1      -5.955   5.512  68.513  1.00  0.00    -0.021 C  
HETATM    5  C   UNL     1      -7.693   9.017  67.364  1.00  0.00    -0.092 C  
HETATM    6  C   UNL     1      -6.831   5.727  67.492  1.00  0.00    -0.060 C  
HETATM    7  N   UNL     1      -7.037   7.020  67.063  1.00  0.00    -0.077 N  
HETATM    8  C   UNL     1      -7.582   4.576  66.862  1.00  0.00    -0.086 C  
HETATM    9  O   UNL     1      -7.625   3.451  67.341  1.00  0.00    -0.075 OA 
HETATM   10  O   UNL     1      -8.194   4.835  65.690  1.00  0.00    -0.109 OA 
HETATM   11  O   UNL     1      -9.108   7.239  66.049  1.00  0.00    -0.153 OA 
HETATM   12  C   UNL     1      -8.148   7.669  66.650  1.00  0.00    -0.119 C  
ENDROOT
BRANCH   4  13
HETATM   13  C   UNL     1      -5.518   4.172  69.078  1.00  0.00    -0.012 C  
BRANCH  13  14
HETATM   14  S   UNL     1      -5.794   3.959  70.859  1.00  0.00    -0.014 SA 
BRANCH  14  15
HETATM   15  C   UNL     1      -7.478   3.642  70.982  1.00  0.00    -0.037 A  
HETATM   16  N   UNL     1      -8.105   2.510  70.762  1.00  0.00    -0.049 NA 
HETATM   17  C   UNL     1      -8.218   5.970  71.667  1.00  0.00    -0.119 C  
HETATM   18  N   UNL     1      -9.440   2.780  70.947  1.00  0.00    -0.150 NA 
HETATM   19  N   UNL     1      -9.629   4.049  71.283  1.00  0.00    -0.164 NA 
HETATM   20  N   UNL     1      -8.401   4.591  71.315  1.00  0.00    -0.101 NA 
ENDBRANCH  14  15
ENDBRANCH  13  14
ENDBRANCH   4  13
BRANCH   5  21
HETATM   21  O   UNL     1      -7.436  10.101  66.432  1.00  0.00    -0.100 OA 
HETATM   22  C   UNL     1      -6.579  11.143  66.875  1.00  0.00    -0.124 C  
ENDBRANCH   5  21
BRANCH   5  23
HETATM   23  N   UNL     1      -8.542   9.387  68.544  1.00  0.00    -0.123 N  
HETATM   24  C   UNL     1     -10.562  10.241  69.661  1.00  0.00    -0.288 C  
HETATM   25  C   UNL     1      -9.834   9.844  68.383  1.00  0.00    -0.151 C  
HETATM   26  O   UNL     1     -10.394   9.889  67.287  1.00  0.00    -0.214 OA 
HETATM   27  H   UNL     1      -8.157   9.299  69.484  1.00  0.00     0.000 HD 
HETATM   28  C   UNL     1     -11.689  11.241  69.446  1.00  0.00    -0.339 C  
HETATM   29  C   UNL     1     -11.037   9.035  70.471  1.00  0.00    -0.297 A  
HETATM   30  C   UNL     1     -11.176   9.150  71.867  1.00  0.00    -0.400 A  
HETATM   31  O   UNL     1     -12.072  11.991  70.338  1.00  0.00    -0.351 OA 
HETATM   32  O   UNL     1     -12.284  11.248  68.233  1.00  0.00    -0.611 OA 
HETATM   33  C   UNL     1     -11.551   8.050  72.644  1.00  0.00    -0.448 A  
HETATM   34  C   UNL     1     -11.798   6.830  72.029  1.00  0.00    -0.314 A  
HETATM   35  C   UNL     1     -11.727   6.708  70.647  1.00  0.00    -0.452 A  
HETATM   36  O   UNL     1     -12.112   5.717  72.749  1.00  0.00    -0.543 OA 
HETATM   37  H   UNL     1     -12.280   4.882  72.327  1.00  0.00     0.000 HD 
HETATM   38  C   UNL     1     -11.361   7.808  69.869  1.00  0.00     0.008 A  
ENDBRANCH   5  23
TORSDOF 5
ENDMDL
MODEL       66
REMARK 921   NORMALIZED FREE ENERGY PREDICTED BY IDOCK:   -5.33 KCAL/MOL
REMARK 922        TOTAL FREE ENERGY PREDICTED BY IDOCK:   -8.23 KCAL/MOL
REMARK 923 INTER-LIGAND FREE ENERGY PREDICTED BY IDOCK:   -7.58 KCAL/MOL
REMARK 924 INTRA-LIGAND FREE ENERGY PREDICTED BY IDOCK:   -0.65 KCAL/MOL
REMARK 927      BINDING AFFINITY PREDICTED BY RF-SCORE:    0.00 PKD
ROOT
HETATM    1  C   UNL     1      -7.677  10.217  67.235  1.00  0.00    -0.095 C  
HETATM    2  O   UNL     1      -7.405  11.102  68.333  1.00  0.00    -0.083 OA 
HETATM    3  C   UNL     1      -7.171  10.390  69.550  1.00  0.00    -0.130 C  
HETATM    4  C   UNL     1      -8.273   9.371  69.812  1.00  0.00    -0.146 C  
HETATM    5  C   UNL     1      -8.492  10.763  65.986  1.00  0.00    -0.169 C  
HETATM    6  C   UNL     1      -9.099   8.961  68.808  1.00  0.00    -0.134 C  
HETATM    7  N   UNL     1      -8.790   9.320  67.515  1.00  0.00    -0.119 N  
HETATM    8  C   UNL     1     -10.341   8.155  69.110  1.00  0.00    -0.220 C  
HETATM    9  O   UNL     1     -10.796   8.005  70.237  1.00  0.00    -0.238 OA 
HETATM   10  O   UNL     1     -10.932   7.554  68.059  1.00  0.00    -0.075 OA 
HETATM   11  O   UNL     1     -10.684   9.333  66.182  1.00  0.00     0.082 OA 
HETATM   12  C   UNL     1      -9.564   9.691  66.472  1.00  0.00    -0.196 C  
ENDROOT
BRANCH   4  13
HETATM   13  C   UNL     1      -8.376   9.018  71.286  1.00  0.00    -0.120 C  
BRANCH  13  14
HETATM   14  S   UNL     1      -6.919   8.194  71.985  1.00  0.00    -0.087 SA 
BRANCH  14  15
HETATM   15  C   UNL     1      -7.557   6.782  72.728  1.00  0.00    -0.091 A  
HETATM   16  N   UNL     1      -7.635   6.510  74.010  1.00  0.00    -0.087 NA 
HETATM   17  C   UNL     1      -8.212   5.544  70.613  1.00  0.00    -0.116 C  
HETATM   18  N   UNL     1      -8.176   5.249  74.092  1.00  0.00    -0.109 NA 
HETATM   19  N   UNL     1      -8.434   4.761  72.886  1.00  0.00    -0.110 NA 
HETATM   20  N   UNL     1      -8.056   5.723  72.028  1.00  0.00    -0.111 NA 
ENDBRANCH  14  15
ENDBRANCH  13  14
ENDBRANCH   4  13
BRANCH   5  21
HETATM   21  O   UNL     1      -7.922  10.457  64.685  1.00  0.00    -0.149 OA 
HETATM   22  C   UNL     1      -8.576   9.461  63.913  1.00  0.00    -0.210 C  
ENDBRANCH   5  21
BRANCH   5  23
HETATM   23  N   UNL     1      -8.943  12.183  66.158  1.00  0.00    -0.399 N  
HETATM   24  C   UNL     1     -10.363  14.144  65.716  1.00  0.00    -0.338 C  
HETATM   25  C   UNL     1     -10.052  12.669  65.497  1.00  0.00    -0.265 C  
HETATM   26  O   UNL     1     -10.783  11.956  64.808  1.00  0.00    -0.283 OA 
HETATM   27  H   UNL     1      -8.420  12.802  66.777  1.00  0.00     0.000 HD 
HETATM   28  C   UNL     1     -11.172  14.779  64.594  1.00  0.00    -0.342 C  
HETATM   29  C   UNL     1     -10.994  14.420  67.079  1.00  0.00    -0.304 A  
HETATM   30  C   UNL     1     -10.811  15.678  67.685  1.00  0.00    -0.307 A  
HETATM   31  O   UNL     1     -11.134  15.984  64.367  1.00  0.00    -0.560 OA 
HETATM   32  O   UNL     1     -11.970  13.962  63.870  1.00  0.00    -0.421 OA 
HETATM   33  C   UNL     1     -11.325  15.944  68.958  1.00  0.00    -0.371 A  
HETATM   34  C   UNL     1     -12.032  14.956  69.630  1.00  0.00    -0.320 A  
HETATM   35  C   UNL     1     -12.278  13.729  69.028  1.00  0.00    -0.259 A  
HETATM   36  O   UNL     1     -12.504  15.148  70.893  1.00  0.00    -0.310 OA 
HETATM   37  H   UNL     1     -12.988  14.472  71.353  1.00  0.00     0.000 HD 
HETATM   38  C   UNL     1     -11.773  13.465  67.753  1.00  0.00    -0.394 A  
ENDBRANCH   5  23
TORSDOF 5
ENDMDL
MODEL       67
REMARK 921   NORMALIZED FREE ENERGY PREDICTED BY IDOCK:   -5.27 KCAL/MOL
REMARK 922        TOTAL FREE ENERGY PREDICTED BY IDOCK:   -8.16 KCAL/MOL
REMARK 923 INTER-LIGAND FREE ENERGY PREDICTED BY IDOCK:   -7.22 KCAL/MOL
REMARK 924 INTRA-LIGAND FREE ENERGY PREDICTED BY IDOCK:   -0.94 KCAL/MOL
REMARK 927      BINDING AFFINITY PREDICTED BY RF-SCORE:    0.00 PKD
ROOT
HETATM    1  C   UNL     1      -8.870   9.106  68.748  1.00  0.00    -0.132 C  
HETATM    2  O   UNL     1     -10.281   8.880  68.607  1.00  0.00    -0.190 OA 
HETATM    3  C   UNL     1     -10.566   7.577  68.095  1.00  0.00    -0.145 C  
HETATM    4  C   UNL     1      -9.747   7.285  66.844  1.00  0.00    -0.252 C  
HETATM    5  C   UNL     1      -8.324  10.598  68.747  1.00  0.00    -0.144 C  
HETATM    6  C   UNL     1      -8.639   8.021  66.548  1.00  0.00    -0.140 C  
HETATM    7  N   UNL     1      -8.151   8.888  67.500  1.00  0.00    -0.108 N  
HETATM    8  C   UNL     1      -7.975   7.908  65.194  1.00  0.00    -0.132 C  
HETATM    9  O   UNL     1      -8.483   7.344  64.234  1.00  0.00     0.050 OA 
HETATM   10  O   UNL     1      -6.741   8.439  65.090  1.00  0.00    -0.062 OA 
HETATM   11  O   UNL     1      -6.934  10.598  66.521  1.00  0.00    -0.109 OA 
HETATM   12  C   UNL     1      -7.612  10.123  67.405  1.00  0.00    -0.094 C  
ENDROOT
BRANCH   4  13
HETATM   13  C   UNL     1     -10.394   6.215  65.982  1.00  0.00     0.361 C  
BRANCH  13  14
HETATM   14  S   UNL     1      -9.623   4.576  66.081  1.00  0.00    -0.210 SA 
BRANCH  14  15
HETATM   15  C   UNL     1      -9.885   3.900  64.523  1.00  0.00    -0.191 A  
HETATM   16  N   UNL     1     -11.023   3.528  63.985  1.00  0.00    -0.277 NA 
HETATM   17  C   UNL     1      -7.470   3.883  63.745  1.00  0.00    -0.055 C  
HETATM   18  N   UNL     1     -10.703   3.011  62.752  1.00  0.00    -0.179 NA 
HETATM   19  N   UNL     1      -9.396   3.073  62.533  1.00  0.00    -0.090 NA 
HETATM   20  N   UNL     1      -8.880   3.638  63.637  1.00  0.00    -0.095 NA 
ENDBRANCH  14  15
ENDBRANCH  13  14
ENDBRANCH   4  13
BRANCH   5  21
HETATM   21  O   UNL     1      -7.387  10.921  69.811  1.00  0.00    -0.119 OA 
HETATM   22  C   UNL     1      -6.838   9.832  70.539  1.00  0.00    -0.127 C  
ENDBRANCH   5  21
BRANCH   5  23
HETATM   23  N   UNL     1      -9.403  11.616  68.527  1.00  0.00    -0.269 N  
HETATM   24  C   UNL     1     -10.311  13.890  68.286  1.00  0.00    -0.249 C  
HETATM   25  C   UNL     1      -9.114  12.963  68.453  1.00  0.00    -0.126 C  
HETATM   26  O   UNL     1      -7.963  13.400  68.471  1.00  0.00    -0.139 OA 
HETATM   27  H   UNL     1     -10.369  11.307  68.429  1.00  0.00     0.000 HD 
HETATM   28  C   UNL     1     -10.066  15.311  68.776  1.00  0.00    -0.219 C  
HETATM   29  C   UNL     1     -10.873  13.883  66.866  1.00  0.00    -0.286 A  
HETATM   30  C   UNL     1     -12.236  14.170  66.659  1.00  0.00    -0.450 A  
HETATM   31  O   UNL     1     -10.983  16.042  69.135  1.00  0.00    -0.255 OA 
HETATM   32  O   UNL     1      -8.789  15.755  68.768  1.00  0.00    -0.180 OA 
HETATM   33  C   UNL     1     -12.795  14.114  65.378  1.00  0.00    -0.393 A  
HETATM   34  C   UNL     1     -11.992  13.778  64.296  1.00  0.00    -0.443 A  
HETATM   35  C   UNL     1     -10.633  13.552  64.467  1.00  0.00    -0.439 A  
HETATM   36  O   UNL     1     -12.503  13.656  63.038  1.00  0.00    -1.020 OA 
HETATM   37  H   UNL     1     -11.953  13.427  62.298  1.00  0.00     0.000 HD 
HETATM   38  C   UNL     1     -10.071  13.616  65.743  1.00  0.00    -0.311 A  
ENDBRANCH   5  23
TORSDOF 5
ENDMDL
MODEL       68
REMARK 921   NORMALIZED FREE ENERGY PREDICTED BY IDOCK:   -5.26 KCAL/MOL
REMARK 922        TOTAL FREE ENERGY PREDICTED BY IDOCK:   -8.14 KCAL/MOL
REMARK 923 INTER-LIGAND FREE ENERGY PREDICTED BY IDOCK:   -8.44 KCAL/MOL
REMARK 924 INTRA-LIGAND FREE ENERGY PREDICTED BY IDOCK:    0.30 KCAL/MOL
REMARK 927      BINDING AFFINITY PREDICTED BY RF-SCORE:    0.00 PKD
ROOT
HETATM    1  C   UNL     1     -11.877  13.008  67.448  1.00  0.00    -0.357 C  
HETATM    2  O   UNL     1     -11.204  11.821  67.894  1.00  0.00    -0.229 OA 
HETATM    3  C   UNL     1     -11.908  11.172  68.955  1.00  0.00    -0.348 C  
HETATM    4  C   UNL     1     -12.265  12.156  70.062  1.00  0.00    -0.270 C  
HETATM    5  C   UNL     1     -11.038  14.144  66.720  1.00  0.00    -0.310 C  
HETATM    6  C   UNL     1     -12.253  13.500  69.833  1.00  0.00    -0.292 C  
HETATM    7  N   UNL     1     -12.120  13.944  68.536  1.00  0.00    -0.351 N  
HETATM    8  C   UNL     1     -12.354  14.481  70.979  1.00  0.00    -0.347 C  
HETATM    9  O   UNL     1     -12.238  14.165  72.155  1.00  0.00    -0.168 OA 
HETATM   10  O   UNL     1     -12.624  15.758  70.647  1.00  0.00    -0.426 OA 
HETATM   11  O   UNL     1     -11.233  16.083  68.478  1.00  0.00    -0.338 OA 
HETATM   12  C   UNL     1     -11.450  14.990  68.004  1.00  0.00    -0.342 C  
ENDROOT
BRANCH   4  13
HETATM   13  C   UNL     1     -12.486  11.456  71.391  1.00  0.00    -0.265 C  
BRANCH  13  14
HETATM   14  S   UNL     1     -13.052   9.736  71.271  1.00  0.00    -0.364 SA 
BRANCH  14  15
HETATM   15  C   UNL     1     -11.682   8.814  71.745  1.00  0.00    -0.346 A  
HETATM   16  N   UNL     1     -10.432   9.207  71.823  1.00  0.00    -0.350 NA 
HETATM   17  C   UNL     1     -12.878   6.619  72.180  1.00  0.00    -0.032 C  
HETATM   18  N   UNL     1      -9.714   8.098  72.202  1.00  0.00    -0.218 NA 
HETATM   19  N   UNL     1     -10.508   7.047  72.363  1.00  0.00    -0.203 NA 
HETATM   20  N   UNL     1     -11.745   7.495  72.087  1.00  0.00    -0.292 NA 
ENDBRANCH  14  15
ENDBRANCH  13  14
ENDBRANCH   4  13
BRANCH   5  21
HETATM   21  O   UNL     1     -11.615  14.653  65.487  1.00  0.00    -0.345 OA 
HETATM   22  C   UNL     1     -10.954  15.749  64.870  1.00  0.00    -0.427 C  
ENDBRANCH   5  21
BRANCH   5  23
HETATM   23  N   UNL     1      -9.572  13.834  66.650  1.00  0.00    -0.280 N  
HETATM   24  C   UNL     1      -7.266  13.750  67.502  1.00  0.00    -0.173 C  
HETATM   25  C   UNL     1      -8.741  14.051  67.729  1.00  0.00    -0.185 C  
HETATM   26  O   UNL     1      -9.158  14.418  68.829  1.00  0.00    -0.188 OA 
HETATM   27  H   UNL     1      -9.182  13.456  65.787  1.00  0.00     0.000 HD 
HETATM   28  C   UNL     1      -6.329  14.507  68.434  1.00  0.00    -0.101 C  
HETATM   29  C   UNL     1      -6.959  12.253  67.504  1.00  0.00    -0.142 A  
HETATM   30  C   UNL     1      -5.863  11.770  66.764  1.00  0.00    -0.110 A  
HETATM   31  O   UNL     1      -5.164  14.745  68.131  1.00  0.00    -0.107 OA 
HETATM   32  O   UNL     1      -6.823  14.880  69.635  1.00  0.00    -0.158 OA 
HETATM   33  C   UNL     1      -5.590  10.400  66.697  1.00  0.00    -0.054 A  
HETATM   34  C   UNL     1      -6.407   9.506  67.375  1.00  0.00    -0.065 A  
HETATM   35  C   UNL     1      -7.457   9.963  68.161  1.00  0.00    -0.080 A  
HETATM   36  O   UNL     1      -6.215   8.160  67.295  1.00  0.00    -0.053 OA 
HETATM   37  H   UNL     1      -6.774   7.548  67.759  1.00  0.00     0.000 HD 
HETATM   38  C   UNL     1      -7.725  11.331  68.237  1.00  0.00    -0.122 A  
ENDBRANCH   5  23
TORSDOF 5
ENDMDL
MODEL       69
REMARK 921   NORMALIZED FREE ENERGY PREDICTED BY IDOCK:   -5.22 KCAL/MOL
REMARK 922        TOTAL FREE ENERGY PREDICTED BY IDOCK:   -8.10 KCAL/MOL
REMARK 923 INTER-LIGAND FREE ENERGY PREDICTED BY IDOCK:   -7.52 KCAL/MOL
REMARK 924 INTRA-LIGAND FREE ENERGY PREDICTED BY IDOCK:   -0.57 KCAL/MOL
REMARK 927      BINDING AFFINITY PREDICTED BY RF-SCORE:    0.00 PKD
ROOT
HETATM    1  C   UNL     1      -9.169  11.164  69.058  1.00  0.00    -0.031 C  
HETATM    2  O   UNL     1      -7.890  11.425  68.460  1.00  0.00    -0.126 OA 
HETATM    3  C   UNL     1      -7.587  12.821  68.431  1.00  0.00    -0.133 C  
HETATM    4  C   UNL     1      -8.740  13.624  67.843  1.00  0.00    -0.184 C  
HETATM    5  C   UNL     1      -9.931   9.818  68.695  1.00  0.00    -0.167 C  
HETATM    6  C   UNL     1      -9.991  13.089  67.758  1.00  0.00    -0.227 C  
HETATM    7  N   UNL     1     -10.242  11.899  68.403  1.00  0.00    -0.201 N  
HETATM    8  C   UNL     1     -11.072  13.774  66.952  1.00  0.00    -0.302 C  
HETATM    9  O   UNL     1     -10.858  14.694  66.174  1.00  0.00    -0.307 OA 
HETATM   10  O   UNL     1     -12.331  13.342  67.157  1.00  0.00    -0.295 OA 
HETATM   11  O   UNL     1     -12.013  10.778  67.417  1.00  0.00    -0.205 OA 
HETATM   12  C   UNL     1     -10.987  10.825  68.059  1.00  0.00    -0.283 C  
ENDROOT
BRANCH   4  13
HETATM   13  C   UNL     1      -8.275  14.959  67.287  1.00  0.00    -0.209 C  
BRANCH  13  14
HETATM   14  S   UNL     1      -8.617  16.394  68.342  1.00  0.00    -0.218 SA 
BRANCH  14  15
HETATM   15  C   UNL     1      -8.536  17.730  67.265  1.00  0.00    -0.233 A  
HETATM   16  N   UNL     1      -7.912  17.801  66.112  1.00  0.00    -0.469 NA 
HETATM   17  C   UNL     1      -9.931  19.355  68.625  1.00  0.00    -0.444 C  
HETATM   18  N   UNL     1      -8.107  19.084  65.660  1.00  0.00    -0.349 NA 
HETATM   19  N   UNL     1      -8.843  19.784  66.512  1.00  0.00    -0.350 NA 
HETATM   20  N   UNL     1      -9.122  18.936  67.516  1.00  0.00    -0.279 NA 
ENDBRANCH  14  15
ENDBRANCH  13  14
ENDBRANCH   4  13
BRANCH   5  21
HETATM   21  O   UNL     1     -10.456   9.073  69.826  1.00  0.00    -0.207 OA 
HETATM   22  C   UNL     1     -11.046   9.826  70.876  1.00  0.00    -0.357 C  
ENDBRANCH   5  21
BRANCH   5  23
HETATM   23  N   UNL     1      -9.203   8.991  67.677  1.00  0.00    -0.135 N  
HETATM   24  C   UNL     1      -7.538   7.348  66.914  1.00  0.00    -0.102 C  
HETATM   25  C   UNL     1      -8.239   8.078  68.052  1.00  0.00    -0.129 C  
HETATM   26  O   UNL     1      -7.984   7.822  69.229  1.00  0.00    -0.120 OA 
HETATM   27  H   UNL     1      -9.426   9.104  66.689  1.00  0.00     0.000 HD 
HETATM   28  C   UNL     1      -6.155   6.823  67.275  1.00  0.00    -0.029 C  
HETATM   29  C   UNL     1      -8.401   6.254  66.290  1.00  0.00    -0.122 A  
HETATM   30  C   UNL     1      -8.204   5.900  64.941  1.00  0.00    -0.135 A  
HETATM   31  O   UNL     1      -5.292   6.626  66.425  1.00  0.00    -0.016 OA 
HETATM   32  O   UNL     1      -5.922   6.544  68.577  1.00  0.00    -0.019 OA 
HETATM   33  C   UNL     1      -9.017   4.945  64.323  1.00  0.00    -0.065 A  
HETATM   34  C   UNL     1     -10.027   4.331  65.052  1.00  0.00    -0.188 A  
HETATM   35  C   UNL     1     -10.201   4.619  66.399  1.00  0.00    -0.293 A  
HETATM   36  O   UNL     1     -10.879   3.436  64.479  1.00  0.00    -0.475 OA 
HETATM   37  H   UNL     1     -11.570   3.016  64.978  1.00  0.00     0.000 HD 
HETATM   38  C   UNL     1      -9.384   5.566  67.021  1.00  0.00    -0.118 A  
ENDBRANCH   5  23
TORSDOF 5
ENDMDL
MODEL       70
REMARK 921   NORMALIZED FREE ENERGY PREDICTED BY IDOCK:   -5.22 KCAL/MOL
REMARK 922        TOTAL FREE ENERGY PREDICTED BY IDOCK:   -8.09 KCAL/MOL
REMARK 923 INTER-LIGAND FREE ENERGY PREDICTED BY IDOCK:   -7.21 KCAL/MOL
REMARK 924 INTRA-LIGAND FREE ENERGY PREDICTED BY IDOCK:   -0.87 KCAL/MOL
REMARK 927      BINDING AFFINITY PREDICTED BY RF-SCORE:    0.00 PKD
ROOT
HETATM    1  C   UNL     1      -9.972  12.603  68.751  1.00  0.00    -0.010 C  
HETATM    2  O   UNL     1      -8.613  12.978  68.483  1.00  0.00    -0.144 OA 
HETATM    3  C   UNL     1      -8.502  14.349  68.094  1.00  0.00    -0.160 C  
HETATM    4  C   UNL     1      -9.488  14.687  66.983  1.00  0.00    -0.249 C  
HETATM    5  C   UNL     1     -10.387  11.073  68.641  1.00  0.00    -0.193 C  
HETATM    6  C   UNL     1     -10.558  13.882  66.729  1.00  0.00    -0.277 C  
HETATM    7  N   UNL     1     -10.852  12.878  67.624  1.00  0.00    -0.228 N  
HETATM    8  C   UNL     1     -11.386  14.069  65.478  1.00  0.00    -0.313 C  
HETATM    9  O   UNL     1     -11.047  14.776  64.538  1.00  0.00    -0.336 OA 
HETATM   10  O   UNL     1     -12.574  13.435  65.450  1.00  0.00    -0.473 OA 
HETATM   11  O   UNL     1     -12.029  11.168  66.596  1.00  0.00    -0.038 OA 
HETATM   12  C   UNL     1     -11.292  11.613  67.449  1.00  0.00    -0.300 C  
ENDROOT
BRANCH   4  13
HETATM   13  C   UNL     1      -9.041  15.899  66.182  1.00  0.00    -0.350 C  
BRANCH  13  14
HETATM   14  S   UNL     1      -9.751  17.480  66.717  1.00  0.00    -0.308 SA 
BRANCH  14  15
HETATM   15  C   UNL     1      -8.516  18.183  67.683  1.00  0.00    -0.244 A  
HETATM   16  N   UNL     1      -7.650  17.571  68.458  1.00  0.00    -0.257 NA 
HETATM   17  C   UNL     1      -8.969  20.612  67.109  1.00  0.00    -0.230 C  
HETATM   18  N   UNL     1      -6.909  18.566  69.048  1.00  0.00    -0.276 NA 
HETATM   19  N   UNL     1      -7.304  19.764  68.638  1.00  0.00    -0.323 NA 
HETATM   20  N   UNL     1      -8.306  19.528  67.775  1.00  0.00    -0.302 NA 
ENDBRANCH  14  15
ENDBRANCH  13  14
ENDBRANCH   4  13
BRANCH   5  21
HETATM   21  O   UNL     1     -11.158  10.553  69.758  1.00  0.00    -0.254 OA 
HETATM   22  C   UNL     1     -12.314  11.285  70.139  1.00  0.00    -0.276 C  
ENDBRANCH   5  21
BRANCH   5  23
HETATM   23  N   UNL     1      -9.260  10.193  68.189  1.00  0.00    -0.134 N  
HETATM   24  C   UNL     1      -8.236   8.083  67.444  1.00  0.00    -0.123 C  
HETATM   25  C   UNL     1      -9.476   8.880  67.826  1.00  0.00    -0.141 C  
HETATM   26  O   UNL     1     -10.601   8.382  67.762  1.00  0.00    -0.229 OA 
HETATM   27  H   UNL     1      -8.315  10.572  68.149  1.00  0.00     0.000 HD 
HETATM   28  C   UNL     1      -8.390   6.578  67.613  1.00  0.00    -0.121 C  
HETATM   29  C   UNL     1      -7.712   8.433  66.052  1.00  0.00    -0.090 A  
HETATM   30  C   UNL     1      -6.341   8.280  65.769  1.00  0.00    -0.052 A  
HETATM   31  O   UNL     1      -7.426   5.842  67.791  1.00  0.00    -0.076 OA 
HETATM   32  O   UNL     1      -9.641   6.073  67.524  1.00  0.00    -0.112 OA 
HETATM   33  C   UNL     1      -5.818   8.647  64.525  1.00  0.00    -0.064 A  
HETATM   34  C   UNL     1      -6.666   9.163  63.553  1.00  0.00    -0.090 A  
HETATM   35  C   UNL     1      -8.031   9.266  63.787  1.00  0.00    -0.142 A  
HETATM   36  O   UNL     1      -6.195   9.586  62.347  1.00  0.00    -0.096 OA 
HETATM   37  H   UNL     1      -6.775   9.938  61.682  1.00  0.00     0.000 HD 
HETATM   38  C   UNL     1      -8.555   8.892  65.026  1.00  0.00    -0.202 A  
ENDBRANCH   5  23
TORSDOF 5
ENDMDL
MODEL       71
REMARK 921   NORMALIZED FREE ENERGY PREDICTED BY IDOCK:   -5.20 KCAL/MOL
REMARK 922        TOTAL FREE ENERGY PREDICTED BY IDOCK:   -8.06 KCAL/MOL
REMARK 923 INTER-LIGAND FREE ENERGY PREDICTED BY IDOCK:   -7.14 KCAL/MOL
REMARK 924 INTRA-LIGAND FREE ENERGY PREDICTED BY IDOCK:   -0.93 KCAL/MOL
REMARK 927      BINDING AFFINITY PREDICTED BY RF-SCORE:    0.00 PKD
ROOT
HETATM    1  C   UNL     1     -10.078   6.734  66.828  1.00  0.00    -0.183 C  
HETATM    2  O   UNL     1     -10.817   7.767  67.499  1.00  0.00    -0.216 OA 
HETATM    3  C   UNL     1     -10.680   9.032  66.850  1.00  0.00    -0.080 C  
HETATM    4  C   UNL     1      -9.216   9.363  66.590  1.00  0.00    -0.193 C  
HETATM    5  C   UNL     1      -9.633   5.447  67.646  1.00  0.00    -0.127 C  
HETATM    6  C   UNL     1      -8.264   8.388  66.620  1.00  0.00    -0.105 C  
HETATM    7  N   UNL     1      -8.670   7.074  66.679  1.00  0.00    -0.123 N  
HETATM    8  C   UNL     1      -6.794   8.743  66.617  1.00  0.00    -0.072 C  
HETATM    9  O   UNL     1      -6.369   9.876  66.802  1.00  0.00    -0.063 OA 
HETATM   10  O   UNL     1      -5.939   7.735  66.358  1.00  0.00    -0.039 OA 
HETATM   11  O   UNL     1      -7.025   5.737  67.613  1.00  0.00    -0.062 OA 
HETATM   12  C   UNL     1      -8.174   6.004  67.339  1.00  0.00    -0.106 C  
ENDROOT
BRANCH   4  13
HETATM   13  C   UNL     1      -8.993  10.858  66.438  1.00  0.00    -0.175 C  
BRANCH  13  14
HETATM   14  S   UNL     1     -10.185  11.908  67.315  1.00  0.00    -0.201 SA 
BRANCH  14  15
HETATM   15  C   UNL     1     -11.132  12.598  66.058  1.00  0.00    -0.287 A  
HETATM   16  N   UNL     1     -12.200  12.096  65.484  1.00  0.00    -0.517 NA 
HETATM   17  C   UNL     1      -9.801  14.737  65.759  1.00  0.00    -0.342 C  
HETATM   18  N   UNL     1     -12.562  13.000  64.514  1.00  0.00    -0.659 NA 
HETATM   19  N   UNL     1     -11.739  14.041  64.499  1.00  0.00    -0.399 NA 
HETATM   20  N   UNL     1     -10.846  13.797  65.472  1.00  0.00    -0.292 NA 
ENDBRANCH  14  15
ENDBRANCH  13  14
ENDBRANCH   4  13
BRANCH   5  21
HETATM   21  O   UNL     1      -9.908   4.173  67.003  1.00  0.00    -0.212 OA 
HETATM   22  C   UNL     1      -9.213   3.896  65.796  1.00  0.00    -0.154 C  
ENDBRANCH   5  21
BRANCH   5  23
HETATM   23  N   UNL     1     -10.010   5.516  69.096  1.00  0.00    -0.173 N  
HETATM   24  C   UNL     1     -10.097   4.714  71.420  1.00  0.00    -0.248 C  
HETATM   25  C   UNL     1      -9.593   4.553  69.992  1.00  0.00    -0.197 C  
HETATM   26  O   UNL     1      -8.823   3.643  69.683  1.00  0.00    -0.074 OA 
HETATM   27  H   UNL     1     -10.585   6.290  69.427  1.00  0.00     0.000 HD 
HETATM   28  C   UNL     1     -10.130   3.415  72.215  1.00  0.00    -0.149 C  
HETATM   29  C   UNL     1      -9.365   5.814  72.187  1.00  0.00    -0.157 A  
HETATM   30  C   UNL     1     -10.027   6.490  73.230  1.00  0.00    -0.200 A  
HETATM   31  O   UNL     1     -10.885   3.255  73.167  1.00  0.00    -0.174 OA 
HETATM   32  O   UNL     1      -9.259   2.447  71.849  1.00  0.00    -0.080 OA 
HETATM   33  C   UNL     1      -9.407   7.541  73.912  1.00  0.00    -0.301 A  
HETATM   34  C   UNL     1      -8.118   7.918  73.560  1.00  0.00    -0.188 A  
HETATM   35  C   UNL     1      -7.422   7.227  72.577  1.00  0.00    -0.086 A  
HETATM   36  O   UNL     1      -7.493   8.972  74.157  1.00  0.00    -0.397 OA 
HETATM   37  H   UNL     1      -6.611   9.229  73.917  1.00  0.00     0.000 HD 
HETATM   38  C   UNL     1      -8.036   6.171  71.901  1.00  0.00    -0.107 A  
ENDBRANCH   5  23
TORSDOF 5
ENDMDL
MODEL       72
REMARK 921   NORMALIZED FREE ENERGY PREDICTED BY IDOCK:   -5.19 KCAL/MOL
REMARK 922        TOTAL FREE ENERGY PREDICTED BY IDOCK:   -8.06 KCAL/MOL
REMARK 923 INTER-LIGAND FREE ENERGY PREDICTED BY IDOCK:   -7.44 KCAL/MOL
REMARK 924 INTRA-LIGAND FREE ENERGY PREDICTED BY IDOCK:   -0.62 KCAL/MOL
REMARK 927      BINDING AFFINITY PREDICTED BY RF-SCORE:    0.00 PKD
ROOT
HETATM    1  C   UNL     1     -11.025   8.995  67.861  1.00  0.00     0.066 C  
HETATM    2  O   UNL     1     -11.284   9.648  69.113  1.00  0.00    -0.149 OA 
HETATM    3  C   UNL     1     -11.513  11.049  68.949  1.00  0.00    -0.296 C  
HETATM    4  C   UNL     1     -10.417  11.693  68.110  1.00  0.00    -0.217 C  
HETATM    5  C   UNL     1     -10.215   7.628  67.855  1.00  0.00    -0.198 C  
HETATM    6  C   UNL     1      -9.601  10.933  67.325  1.00  0.00    -0.164 C  
HETATM    7  N   UNL     1      -9.916   9.605  67.140  1.00  0.00    -0.182 N  
HETATM    8  C   UNL     1      -8.361  11.527  66.696  1.00  0.00    -0.167 C  
HETATM    9  O   UNL     1      -7.900  12.618  67.004  1.00  0.00    -0.136 OA 
HETATM   10  O   UNL     1      -7.783  10.801  65.720  1.00  0.00    -0.152 OA 
HETATM   11  O   UNL     1      -8.032   8.371  66.602  1.00  0.00    -0.095 OA 
HETATM   12  C   UNL     1      -9.148   8.498  67.056  1.00  0.00    -0.143 C  
ENDROOT
BRANCH   4  13
HETATM   13  C   UNL     1     -10.305  13.184  68.374  1.00  0.00    -0.253 C  
BRANCH  13  14
HETATM   14  S   UNL     1     -11.850  14.117  68.189  1.00  0.00    -0.336 SA 
BRANCH  14  15
HETATM   15  C   UNL     1     -12.095  14.825  69.735  1.00  0.00    -0.319 A  
HETATM   16  N   UNL     1     -13.032  14.546  70.611  1.00  0.00    -0.344 NA 
HETATM   17  C   UNL     1     -10.156  16.460  69.678  1.00  0.00    -0.149 C  
HETATM   18  N   UNL     1     -12.830  15.409  71.662  1.00  0.00    -0.385 NA 
HETATM   19  N   UNL     1     -11.784  16.194  71.441  1.00  0.00    -0.459 NA 
HETATM   20  N   UNL     1     -11.315  15.825  70.238  1.00  0.00    -0.329 NA 
ENDBRANCH  14  15
ENDBRANCH  13  14
ENDBRANCH   4  13
BRANCH   5  21
HETATM   21  O   UNL     1     -10.797   6.561  67.059  1.00  0.00    -0.328 OA 
HETATM   22  C   UNL     1     -10.081   5.336  67.001  1.00  0.00    -0.210 C  
ENDBRANCH   5  21
BRANCH   5  23
HETATM   23  N   UNL     1      -9.753   7.217  69.221  1.00  0.00    -0.159 N  
HETATM   24  C   UNL     1     -10.036   6.345  71.505  1.00  0.00    -0.215 C  
HETATM   25  C   UNL     1     -10.624   6.661  70.136  1.00  0.00    -0.221 C  
HETATM   26  O   UNL     1     -11.793   6.387  69.862  1.00  0.00    -0.384 OA 
HETATM   27  H   UNL     1      -8.776   7.350  69.480  1.00  0.00     0.000 HD 
HETATM   28  C   UNL     1     -11.067   6.297  72.625  1.00  0.00    -0.263 C  
HETATM   29  C   UNL     1      -9.164   5.091  71.501  1.00  0.00    -0.181 A  
HETATM   30  C   UNL     1      -8.116   4.973  72.434  1.00  0.00    -0.109 A  
HETATM   31  O   UNL     1     -10.765   6.502  73.796  1.00  0.00    -0.283 OA 
HETATM   32  O   UNL     1     -12.335   5.980  72.282  1.00  0.00    -0.252 OA 
HETATM   33  C   UNL     1      -7.262   3.867  72.419  1.00  0.00    -0.056 A  
HETATM   34  C   UNL     1      -7.454   2.867  71.474  1.00  0.00    -0.040 A  
HETATM   35  C   UNL     1      -8.517   2.932  70.583  1.00  0.00    -0.095 A  
HETATM   36  O   UNL     1      -6.615   1.798  71.384  1.00  0.00    -0.018 OA 
HETATM   37  H   UNL     1      -6.747   1.114  70.737  1.00  0.00     0.000 HD 
HETATM   38  C   UNL     1      -9.377   4.032  70.603  1.00  0.00    -0.217 A  
ENDBRANCH   5  23
TORSDOF 5
ENDMDL
MODEL       73
REMARK 921   NORMALIZED FREE ENERGY PREDICTED BY IDOCK:   -5.19 KCAL/MOL
REMARK 922        TOTAL FREE ENERGY PREDICTED BY IDOCK:   -8.05 KCAL/MOL
REMARK 923 INTER-LIGAND FREE ENERGY PREDICTED BY IDOCK:   -7.30 KCAL/MOL
REMARK 924 INTRA-LIGAND FREE ENERGY PREDICTED BY IDOCK:   -0.75 KCAL/MOL
REMARK 927      BINDING AFFINITY PREDICTED BY RF-SCORE:    0.00 PKD
ROOT
HETATM    1  C   UNL     1      -8.581  13.962  68.037  1.00  0.00    -0.178 C  
HETATM    2  O   UNL     1      -8.378  12.691  68.673  1.00  0.00    -0.093 OA 
HETATM    3  C   UNL     1      -7.794  11.735  67.786  1.00  0.00    -0.135 C  
HETATM    4  C   UNL     1      -8.553  11.672  66.467  1.00  0.00    -0.164 C  
HETATM    5  C   UNL     1      -9.685  14.947  68.615  1.00  0.00    -0.226 C  
HETATM    6  C   UNL     1      -9.391  12.680  66.094  1.00  0.00    -0.112 C  
HETATM    7  N   UNL     1      -9.379  13.848  66.824  1.00  0.00    -0.269 N  
HETATM    8  C   UNL     1     -10.332  12.510  64.923  1.00  0.00    -0.300 C  
HETATM    9  O   UNL     1     -10.561  11.434  64.386  1.00  0.00    -0.301 OA 
HETATM   10  O   UNL     1     -10.904  13.635  64.451  1.00  0.00    -0.396 OA 
HETATM   11  O   UNL     1     -11.394  14.973  66.622  1.00  0.00    -0.344 OA 
HETATM   12  C   UNL     1     -10.369  14.687  67.201  1.00  0.00    -0.265 C  
ENDROOT
BRANCH   4  13
HETATM   13  C   UNL     1      -8.343  10.345  65.757  1.00  0.00    -0.158 C  
BRANCH  13  14
HETATM   14  S   UNL     1      -7.707   9.005  66.801  1.00  0.00    -0.093 SA 
BRANCH  14  15
HETATM   15  C   UNL     1      -9.121   8.188  67.335  1.00  0.00    -0.134 A  
HETATM   16  N   UNL     1      -9.970   7.490  66.618  1.00  0.00    -0.222 NA 
HETATM   17  C   UNL     1      -8.966   8.802  69.792  1.00  0.00    -0.146 C  
HETATM   18  N   UNL     1     -10.950   7.082  67.490  1.00  0.00    -0.254 NA 
HETATM   19  N   UNL     1     -10.705   7.514  68.720  1.00  0.00    -0.147 NA 
HETATM   20  N   UNL     1      -9.554   8.200  68.629  1.00  0.00    -0.148 NA 
ENDBRANCH  14  15
ENDBRANCH  13  14
ENDBRANCH   4  13
BRANCH   5  21
HETATM   21  O   UNL     1      -9.258  16.323  68.801  1.00  0.00    -0.219 OA 
HETATM   22  C   UNL     1     -10.160  17.340  68.389  1.00  0.00    -0.333 C  
ENDBRANCH   5  21
BRANCH   5  23
HETATM   23  N   UNL     1     -10.447  14.361  69.766  1.00  0.00    -0.442 N  
HETATM   24  C   UNL     1     -12.428  14.001  71.180  1.00  0.00    -0.447 C  
HETATM   25  C   UNL     1     -11.793  14.609  69.936  1.00  0.00    -0.319 C  
HETATM   26  O   UNL     1     -12.464  15.238  69.118  1.00  0.00    -0.106 OA 
HETATM   27  H   UNL     1      -9.960  13.768  70.437  1.00  0.00     0.000 HD 
HETATM   28  C   UNL     1     -13.683  14.723  71.651  1.00  0.00    -0.428 C  
HETATM   29  C   UNL     1     -12.671  12.498  71.047  1.00  0.00    -0.316 A  
HETATM   30  C   UNL     1     -12.679  11.693  72.203  1.00  0.00     0.109 A  
HETATM   31  O   UNL     1     -14.059  14.681  72.817  1.00  0.00    -0.498 OA 
HETATM   32  O   UNL     1     -14.396  15.392  70.717  1.00  0.00    -0.276 OA 
HETATM   33  C   UNL     1     -12.839  10.307  72.112  1.00  0.00    -0.351 A  
HETATM   34  C   UNL     1     -13.000   9.718  70.864  1.00  0.00    -0.228 A  
HETATM   35  C   UNL     1     -13.057  10.498  69.716  1.00  0.00     0.529 A  
HETATM   36  O   UNL     1     -13.103   8.368  70.720  1.00  0.00    -0.437 OA 
HETATM   37  H   UNL     1     -13.213   7.965  69.866  1.00  0.00     0.000 HD 
HETATM   38  C   UNL     1     -12.906  11.883  69.806  1.00  0.00     0.546 A  
ENDBRANCH   5  23
TORSDOF 5
ENDMDL
MODEL       74
REMARK 921   NORMALIZED FREE ENERGY PREDICTED BY IDOCK:   -5.14 KCAL/MOL
REMARK 922        TOTAL FREE ENERGY PREDICTED BY IDOCK:   -7.99 KCAL/MOL
REMARK 923 INTER-LIGAND FREE ENERGY PREDICTED BY IDOCK:   -6.97 KCAL/MOL
REMARK 924 INTRA-LIGAND FREE ENERGY PREDICTED BY IDOCK:   -1.02 KCAL/MOL
REMARK 927      BINDING AFFINITY PREDICTED BY RF-SCORE:    0.00 PKD
ROOT
HETATM    1  C   UNL     1      -8.706   9.314  71.180  1.00  0.00    -0.044 C  
HETATM    2  O   UNL     1      -7.932   9.310  69.971  1.00  0.00    -0.090 OA 
HETATM    3  C   UNL     1      -8.050  10.542  69.256  1.00  0.00    -0.148 C  
HETATM    4  C   UNL     1      -9.510  10.938  69.077  1.00  0.00    -0.160 C  
HETATM    5  C   UNL     1      -9.167   7.928  71.806  1.00  0.00    -0.150 C  
HETATM    6  C   UNL     1     -10.484  10.383  69.851  1.00  0.00    -0.218 C  
HETATM    7  N   UNL     1     -10.108   9.621  70.935  1.00  0.00    -0.252 N  
HETATM    8  C   UNL     1     -11.945  10.575  69.512  1.00  0.00    -0.186 C  
HETATM    9  O   UNL     1     -12.340  11.034  68.449  1.00  0.00    -0.528 OA 
HETATM   10  O   UNL     1     -12.828  10.245  70.474  1.00  0.00    -0.315 OA 
HETATM   11  O   UNL     1     -11.768   8.109  71.504  1.00  0.00    -0.268 OA 
HETATM   12  C   UNL     1     -10.618   8.486  71.462  1.00  0.00    -0.263 C  
ENDROOT
BRANCH   4  13
HETATM   13  C   UNL     1      -9.700  11.876  67.897  1.00  0.00    -0.192 C  
BRANCH  13  14
HETATM   14  S   UNL     1      -8.589  11.583  66.493  1.00  0.00    -0.151 SA 
BRANCH  14  15
HETATM   15  C   UNL     1      -9.593  11.802  65.116  1.00  0.00    -0.153 A  
HETATM   16  N   UNL     1     -10.504  12.727  64.920  1.00  0.00    -0.309 NA 
HETATM   17  C   UNL     1      -8.739   9.842  63.750  1.00  0.00    -0.213 C  
HETATM   18  N   UNL     1     -11.061  12.450  63.695  1.00  0.00    -0.441 NA 
HETATM   19  N   UNL     1     -10.497  11.382  63.144  1.00  0.00    -0.310 NA 
HETATM   20  N   UNL     1      -9.570  10.979  64.028  1.00  0.00    -0.251 NA 
ENDBRANCH  14  15
ENDBRANCH  13  14
ENDBRANCH   4  13
BRANCH   5  21
HETATM   21  O   UNL     1      -8.933   7.778  73.232  1.00  0.00    -0.179 OA 
HETATM   22  C   UNL     1      -7.605   7.979  73.692  1.00  0.00    -0.162 C  
ENDBRANCH   5  21
BRANCH   5  23
HETATM   23  N   UNL     1      -8.765   6.748  70.973  1.00  0.00    -0.137 N  
HETATM   24  C   UNL     1      -8.860   4.404  70.229  1.00  0.00    -0.126 C  
HETATM   25  C   UNL     1      -9.409   5.533  71.091  1.00  0.00    -0.150 C  
HETATM   26  O   UNL     1     -10.397   5.369  71.808  1.00  0.00    -0.199 OA 
HETATM   27  H   UNL     1      -8.001   6.844  70.305  1.00  0.00     0.000 HD 
HETATM   28  C   UNL     1      -9.161   3.012  70.767  1.00  0.00    -0.135 C  
HETATM   29  C   UNL     1      -9.263   4.530  68.761  1.00  0.00    -0.184 A  
HETATM   30  C   UNL     1      -8.430   3.985  67.765  1.00  0.00    -0.102 A  
HETATM   31  O   UNL     1      -8.461   2.043  70.491  1.00  0.00    -0.048 OA 
HETATM   32  O   UNL     1     -10.262   2.875  71.539  1.00  0.00    -0.026 OA 
HETATM   33  C   UNL     1      -8.739   4.135  66.409  1.00  0.00    -0.115 A  
HETATM   34  C   UNL     1      -9.888   4.823  66.042  1.00  0.00    -0.216 A  
HETATM   35  C   UNL     1     -10.756   5.316  67.007  1.00  0.00    -0.172 A  
HETATM   36  O   UNL     1     -10.202   5.043  64.734  1.00  0.00    -0.292 OA 
HETATM   37  H   UNL     1     -10.988   5.514  64.483  1.00  0.00     0.000 HD 
HETATM   38  C   UNL     1     -10.454   5.160  68.361  1.00  0.00    -0.084 A  
ENDBRANCH   5  23
TORSDOF 5
ENDMDL
MODEL       75
REMARK 921   NORMALIZED FREE ENERGY PREDICTED BY IDOCK:   -5.10 KCAL/MOL
REMARK 922        TOTAL FREE ENERGY PREDICTED BY IDOCK:   -7.94 KCAL/MOL
REMARK 923 INTER-LIGAND FREE ENERGY PREDICTED BY IDOCK:   -8.56 KCAL/MOL
REMARK 924 INTRA-LIGAND FREE ENERGY PREDICTED BY IDOCK:    0.62 KCAL/MOL
REMARK 927      BINDING AFFINITY PREDICTED BY RF-SCORE:    0.00 PKD
ROOT
HETATM    1  C   UNL     1      -8.595   7.939  70.836  1.00  0.00    -0.128 C  
HETATM    2  O   UNL     1      -8.874   9.004  69.914  1.00  0.00    -0.140 OA 
HETATM    3  C   UNL     1      -9.823   9.934  70.440  1.00  0.00    -0.123 C  
HETATM    4  C   UNL     1     -11.056   9.218  70.977  1.00  0.00    -0.396 C  
HETATM    5  C   UNL     1      -8.047   6.557  70.276  1.00  0.00    -0.121 C  
HETATM    6  C   UNL     1     -11.022   7.884  71.259  1.00  0.00    -0.238 C  
HETATM    7  N   UNL     1      -9.804   7.242  71.252  1.00  0.00    -0.181 N  
HETATM    8  C   UNL     1     -12.296   7.122  71.545  1.00  0.00    -0.370 C  
HETATM    9  O   UNL     1     -13.416   7.570  71.339  1.00  0.00    -0.359 OA 
HETATM   10  O   UNL     1     -12.148   5.899  72.090  1.00  0.00    -0.252 OA 
HETATM   11  O   UNL     1     -10.063   4.976  70.847  1.00  0.00    -0.210 OA 
HETATM   12  C   UNL     1      -9.434   6.012  70.834  1.00  0.00    -0.168 C  
ENDROOT
BRANCH   4  13
HETATM   13  C   UNL     1     -12.269  10.132  71.015  1.00  0.00    -0.374 C  
BRANCH  13  14
HETATM   14  S   UNL     1     -12.102  11.672  70.071  1.00  0.00    -0.297 SA 
BRANCH  14  15
HETATM   15  C   UNL     1     -12.770  12.868  71.108  1.00  0.00    -0.276 A  
HETATM   16  N   UNL     1     -13.542  12.689  72.155  1.00  0.00    -0.497 NA 
HETATM   17  C   UNL     1     -11.805  14.908  69.949  1.00  0.00    -0.311 C  
HETATM   18  N   UNL     1     -13.846  13.948  72.615  1.00  0.00    -0.722 NA 
HETATM   19  N   UNL     1     -13.266  14.881  71.871  1.00  0.00    -0.325 NA 
HETATM   20  N   UNL     1     -12.583  14.208  70.931  1.00  0.00    -0.342 NA 
ENDBRANCH  14  15
ENDBRANCH  13  14
ENDBRANCH   4  13
BRANCH   5  21
HETATM   21  O   UNL     1      -6.894   6.014  70.975  1.00  0.00    -0.061 OA 
HETATM   22  C   UNL     1      -5.737   6.834  71.044  1.00  0.00    -0.028 C  
ENDBRANCH   5  21
BRANCH   5  23
HETATM   23  N   UNL     1      -7.948   6.530  68.780  1.00  0.00    -0.110 N  
HETATM   24  C   UNL     1      -8.742   6.058  66.499  1.00  0.00    -0.128 C  
HETATM   25  C   UNL     1      -8.998   6.090  68.000  1.00  0.00    -0.112 C  
HETATM   26  O   UNL     1     -10.095   5.785  68.469  1.00  0.00    -0.152 OA 
HETATM   27  H   UNL     1      -7.089   6.843  68.330  1.00  0.00     0.000 HD 
HETATM   28  C   UNL     1      -9.623   5.074  65.742  1.00  0.00    -0.148 C  
HETATM   29  C   UNL     1      -8.786   7.446  65.861  1.00  0.00    -0.161 A  
HETATM   30  C   UNL     1      -8.033   7.697  64.698  1.00  0.00    -0.136 A  
HETATM   31  O   UNL     1      -9.282   4.591  64.667  1.00  0.00    -0.154 OA 
HETATM   32  O   UNL     1     -10.824   4.776  66.286  1.00  0.00    -0.219 OA 
HETATM   33  C   UNL     1      -8.004   8.971  64.122  1.00  0.00    -0.144 A  
HETATM   34  C   UNL     1      -8.733  10.000  64.703  1.00  0.00    -0.191 A  
HETATM   35  C   UNL     1      -9.531   9.762  65.815  1.00  0.00    -0.300 A  
HETATM   36  O   UNL     1      -8.692  11.270  64.212  1.00  0.00    -0.377 OA 
HETATM   37  H   UNL     1      -9.192  11.975  64.610  1.00  0.00     0.000 HD 
HETATM   38  C   UNL     1      -9.568   8.488  66.385  1.00  0.00    -0.314 A  
ENDBRANCH   5  23
TORSDOF 5
ENDMDL
MODEL       76
REMARK 921   NORMALIZED FREE ENERGY PREDICTED BY IDOCK:   -5.07 KCAL/MOL
REMARK 922        TOTAL FREE ENERGY PREDICTED BY IDOCK:   -7.90 KCAL/MOL
REMARK 923 INTER-LIGAND FREE ENERGY PREDICTED BY IDOCK:   -7.03 KCAL/MOL
REMARK 924 INTRA-LIGAND FREE ENERGY PREDICTED BY IDOCK:   -0.87 KCAL/MOL
REMARK 927      BINDING AFFINITY PREDICTED BY RF-SCORE:    0.00 PKD
ROOT
HETATM    1  C   UNL     1      -7.994   9.190  70.677  1.00  0.00    -0.154 C  
HETATM    2  O   UNL     1      -8.226   9.642  69.334  1.00  0.00    -0.109 OA 
HETATM    3  C   UNL     1      -9.188  10.698  69.283  1.00  0.00    -0.104 C  
HETATM    4  C   UNL     1     -10.447  10.335  70.058  1.00  0.00    -0.293 C  
HETATM    5  C   UNL     1      -7.436   7.722  70.912  1.00  0.00    -0.073 C  
HETATM    6  C   UNL     1     -10.437   9.326  70.975  1.00  0.00    -0.314 C  
HETATM    7  N   UNL     1      -9.225   8.783  71.340  1.00  0.00    -0.233 N  
HETATM    8  C   UNL     1     -11.728   8.795  71.555  1.00  0.00    -0.309 C  
HETATM    9  O   UNL     1     -12.835   9.065  71.108  1.00  0.00    -0.275 OA 
HETATM   10  O   UNL     1     -11.613   8.016  72.648  1.00  0.00    -0.388 OA 
HETATM   11  O   UNL     1      -9.488   6.618  72.122  1.00  0.00    -0.146 OA 
HETATM   12  C   UNL     1      -8.850   7.514  71.614  1.00  0.00    -0.116 C  
ENDROOT
BRANCH   4  13
HETATM   13  C   UNL     1     -11.652  11.128  69.583  1.00  0.00    -0.326 C  
BRANCH  13  14
HETATM   14  S   UNL     1     -11.716  11.436  67.796  1.00  0.00    -0.125 SA 
BRANCH  14  15
HETATM   15  C   UNL     1     -11.483  13.133  67.658  1.00  0.00    -0.324 A  
HETATM   16  N   UNL     1     -10.840  13.928  68.480  1.00  0.00    -0.251 NA 
HETATM   17  C   UNL     1     -12.746  13.479  65.485  1.00  0.00    -0.440 C  
HETATM   18  N   UNL     1     -10.975  15.193  67.959  1.00  0.00    -0.284 NA 
HETATM   19  N   UNL     1     -11.679  15.173  66.834  1.00  0.00    -0.174 NA 
HETATM   20  N   UNL     1     -11.992  13.882  66.637  1.00  0.00    -0.421 NA 
ENDBRANCH  14  15
ENDBRANCH  13  14
ENDBRANCH   4  13
BRANCH   5  21
HETATM   21  O   UNL     1      -6.318   7.618  71.834  1.00  0.00    -0.039 OA 
HETATM   22  C   UNL     1      -6.615   7.693  73.220  1.00  0.00    -0.069 C  
ENDBRANCH   5  21
BRANCH   5  23
HETATM   23  N   UNL     1      -7.278   6.946  69.639  1.00  0.00    -0.078 N  
HETATM   24  C   UNL     1      -6.928   4.918  68.289  1.00  0.00    -0.057 C  
HETATM   25  C   UNL     1      -7.140   5.573  69.647  1.00  0.00    -0.064 C  
HETATM   26  O   UNL     1      -7.229   4.900  70.675  1.00  0.00    -0.050 OA 
HETATM   27  H   UNL     1      -7.273   7.442  68.748  1.00  0.00     0.000 HD 
HETATM   28  C   UNL     1      -6.223   3.570  68.354  1.00  0.00    -0.032 C  
HETATM   29  C   UNL     1      -8.212   4.833  67.465  1.00  0.00    -0.105 A  
HETATM   30  C   UNL     1      -8.133   4.826  66.059  1.00  0.00    -0.107 A  
HETATM   31  O   UNL     1      -5.586   3.123  67.407  1.00  0.00    -0.019 OA 
HETATM   32  O   UNL     1      -6.357   2.860  69.497  1.00  0.00    -0.028 OA 
HETATM   33  C   UNL     1      -9.291   4.809  65.275  1.00  0.00    -0.148 A  
HETATM   34  C   UNL     1     -10.535   4.790  65.893  1.00  0.00    -0.274 A  
HETATM   35  C   UNL     1     -10.636   4.734  67.277  1.00  0.00     0.095 A  
HETATM   36  O   UNL     1     -11.691   4.828  65.174  1.00  0.00    -1.013 OA 
HETATM   37  H   UNL     1     -12.542   4.815  65.597  1.00  0.00     0.000 HD 
HETATM   38  C   UNL     1      -9.481   4.742  68.061  1.00  0.00    -0.182 A  
ENDBRANCH   5  23
TORSDOF 5
ENDMDL
MODEL       77
REMARK 921   NORMALIZED FREE ENERGY PREDICTED BY IDOCK:   -5.07 KCAL/MOL
REMARK 922        TOTAL FREE ENERGY PREDICTED BY IDOCK:   -7.90 KCAL/MOL
REMARK 923 INTER-LIGAND FREE ENERGY PREDICTED BY IDOCK:   -5.95 KCAL/MOL
REMARK 924 INTRA-LIGAND FREE ENERGY PREDICTED BY IDOCK:   -1.95 KCAL/MOL
REMARK 927      BINDING AFFINITY PREDICTED BY RF-SCORE:    0.00 PKD
ROOT
HETATM    1  C   UNL     1     -10.854   9.323  70.603  1.00  0.00    -0.278 C  
HETATM    2  O   UNL     1     -11.523   8.063  70.437  1.00  0.00    -0.241 OA 
HETATM    3  C   UNL     1     -11.860   7.466  71.691  1.00  0.00    -0.291 C  
HETATM    4  C   UNL     1     -10.657   7.429  72.624  1.00  0.00    -0.322 C  
HETATM    5  C   UNL     1      -9.921   9.861  69.435  1.00  0.00    -0.212 C  
HETATM    6  C   UNL     1      -9.573   8.224  72.398  1.00  0.00    -0.294 C  
HETATM    7  N   UNL     1      -9.668   9.209  71.440  1.00  0.00    -0.294 N  
HETATM    8  C   UNL     1      -8.286   8.012  73.162  1.00  0.00    -0.188 C  
HETATM    9  O   UNL     1      -8.058   7.023  73.847  1.00  0.00    -0.111 OA 
HETATM   10  O   UNL     1      -7.379   9.005  73.089  1.00  0.00    -0.304 OA 
HETATM   11  O   UNL     1      -7.578   9.769  70.615  1.00  0.00    -0.259 OA 
HETATM   12  C   UNL     1      -8.783   9.674  70.532  1.00  0.00    -0.104 C  
ENDROOT
BRANCH   4  13
HETATM   13  C   UNL     1     -10.797   6.351  73.685  1.00  0.00    -0.116 C  
BRANCH  13  14
HETATM   14  S   UNL     1     -11.190   4.696  73.053  1.00  0.00    -0.189 SA 
BRANCH  14  15
HETATM   15  C   UNL     1      -9.699   4.131  72.414  1.00  0.00    -0.153 A  
HETATM   16  N   UNL     1      -8.719   3.538  73.055  1.00  0.00    -0.092 NA 
HETATM   17  C   UNL     1     -10.072   4.824  70.002  1.00  0.00    -0.238 C  
HETATM   18  N   UNL     1      -7.734   3.326  72.120  1.00  0.00    -0.057 NA 
HETATM   19  N   UNL     1      -8.106   3.770  70.926  1.00  0.00    -0.065 NA 
HETATM   20  N   UNL     1      -9.341   4.267  71.104  1.00  0.00    -0.139 NA 
ENDBRANCH  14  15
ENDBRANCH  13  14
ENDBRANCH   4  13
BRANCH   5  21
HETATM   21  O   UNL     1     -10.131  11.248  69.057  1.00  0.00    -0.198 OA 
HETATM   22  C   UNL     1     -11.468  11.727  69.079  1.00  0.00    -0.297 C  
ENDBRANCH   5  21
BRANCH   5  23
HETATM   23  N   UNL     1      -9.811   8.903  68.286  1.00  0.00    -0.162 N  
HETATM   24  C   UNL     1      -8.871   8.040  66.182  1.00  0.00    -0.198 C  
HETATM   25  C   UNL     1      -8.832   9.046  67.325  1.00  0.00    -0.117 C  
HETATM   26  O   UNL     1      -7.945   9.897  67.397  1.00  0.00    -0.105 OA 
HETATM   27  H   UNL     1     -10.472   8.131  68.214  1.00  0.00     0.000 HD 
HETATM   28  C   UNL     1      -8.211   8.531  64.901  1.00  0.00    -0.165 C  
HETATM   29  C   UNL     1      -8.344   6.664  66.585  1.00  0.00    -0.117 A  
HETATM   30  C   UNL     1      -8.821   5.517  65.922  1.00  0.00    -0.150 A  
HETATM   31  O   UNL     1      -8.520   8.089  63.800  1.00  0.00    -0.010 OA 
HETATM   32  O   UNL     1      -7.234   9.457  65.028  1.00  0.00    -0.099 OA 
HETATM   33  C   UNL     1      -8.404   4.239  66.306  1.00  0.00    -0.108 A  
HETATM   34  C   UNL     1      -7.500   4.100  67.351  1.00  0.00    -0.069 A  
HETATM   35  C   UNL     1      -6.969   5.219  67.980  1.00  0.00    -0.062 A  
HETATM   36  O   UNL     1      -7.107   2.875  67.798  1.00  0.00    -0.048 OA 
HETATM   37  H   UNL     1      -6.489   2.780  68.513  1.00  0.00     0.000 HD 
HETATM   38  C   UNL     1      -7.378   6.496  67.592  1.00  0.00    -0.095 A  
ENDBRANCH   5  23
TORSDOF 5
ENDMDL
MODEL       78
REMARK 921   NORMALIZED FREE ENERGY PREDICTED BY IDOCK:   -5.03 KCAL/MOL
REMARK 922        TOTAL FREE ENERGY PREDICTED BY IDOCK:   -7.84 KCAL/MOL
REMARK 923 INTER-LIGAND FREE ENERGY PREDICTED BY IDOCK:   -8.67 KCAL/MOL
REMARK 924 INTRA-LIGAND FREE ENERGY PREDICTED BY IDOCK:    0.82 KCAL/MOL
REMARK 927      BINDING AFFINITY PREDICTED BY RF-SCORE:    0.00 PKD
ROOT
HETATM    1  C   UNL     1      -8.748  11.592  67.860  1.00  0.00    -0.144 C  
HETATM    2  O   UNL     1      -9.924  12.255  68.349  1.00  0.00    -0.215 OA 
HETATM    3  C   UNL     1      -9.970  13.627  67.951  1.00  0.00    -0.244 C  
HETATM    4  C   UNL     1      -8.660  14.337  68.267  1.00  0.00    -0.176 C  
HETATM    5  C   UNL     1      -8.220  10.298  68.616  1.00  0.00    -0.116 C  
HETATM    6  C   UNL     1      -7.522  13.627  68.511  1.00  0.00    -0.119 C  
HETATM    7  N   UNL     1      -7.525  12.273  68.260  1.00  0.00    -0.110 N  
HETATM    8  C   UNL     1      -6.292  14.306  69.071  1.00  0.00    -0.096 C  
HETATM    9  O   UNL     1      -6.293  15.440  69.532  1.00  0.00    -0.128 OA 
HETATM   10  O   UNL     1      -5.144  13.604  69.008  1.00  0.00    -0.070 OA 
HETATM   11  O   UNL     1      -5.931  11.187  69.542  1.00  0.00    -0.056 OA 
HETATM   12  C   UNL     1      -6.966  11.232  68.915  1.00  0.00    -0.099 C  
ENDROOT
BRANCH   4  13
HETATM   13  C   UNL     1      -8.846  15.839  68.390  1.00  0.00    -0.185 C  
BRANCH  13  14
HETATM   14  S   UNL     1     -10.568  16.408  68.337  1.00  0.00    -0.328 SA 
BRANCH  14  15
HETATM   15  C   UNL     1     -10.731  17.094  66.770  1.00  0.00    -0.097 A  
HETATM   16  N   UNL     1     -10.655  18.359  66.430  1.00  0.00    -0.363 NA 
HETATM   17  C   UNL     1     -11.148  14.941  65.494  1.00  0.00    -0.352 C  
HETATM   18  N   UNL     1     -10.898  18.399  65.078  1.00  0.00    -0.451 NA 
HETATM   19  N   UNL     1     -11.110  17.181  64.595  1.00  0.00    -1.007 NA 
HETATM   20  N   UNL     1     -10.997  16.359  65.651  1.00  0.00    -0.150 NA 
ENDBRANCH  14  15
ENDBRANCH  13  14
ENDBRANCH   4  13
BRANCH   5  21
HETATM   21  O   UNL     1      -7.902   9.164  67.765  1.00  0.00    -0.099 OA 
HETATM   22  C   UNL     1      -7.115   8.129  68.338  1.00  0.00    -0.077 C  
ENDBRANCH   5  21
BRANCH   5  23
HETATM   23  N   UNL     1      -9.025   9.965  69.837  1.00  0.00    -0.284 N  
HETATM   24  C   UNL     1     -11.097   9.623  71.119  1.00  0.00    -0.444 C  
HETATM   25  C   UNL     1     -10.403   9.913  69.795  1.00  0.00    -0.246 C  
HETATM   26  O   UNL     1     -11.044  10.043  68.751  1.00  0.00    -0.226 OA 
HETATM   27  H   UNL     1      -8.545   9.773  70.715  1.00  0.00     0.000 HD 
HETATM   28  C   UNL     1     -12.532  10.126  71.190  1.00  0.00    -0.387 C  
HETATM   29  C   UNL     1     -11.005   8.153  71.527  1.00  0.00    -0.294 A  
HETATM   30  C   UNL     1     -11.039   7.809  72.892  1.00  0.00    -0.457 A  
HETATM   31  O   UNL     1     -13.077  10.388  72.257  1.00  0.00    -0.397 OA 
HETATM   32  O   UNL     1     -13.203  10.242  70.022  1.00  0.00     0.034 OA 
HETATM   33  C   UNL     1     -10.897   6.480  73.302  1.00  0.00    -0.276 A  
HETATM   34  C   UNL     1     -10.728   5.485  72.348  1.00  0.00    -0.235 A  
HETATM   35  C   UNL     1     -10.753   5.792  70.994  1.00  0.00    -0.326 A  
HETATM   36  O   UNL     1     -10.531   4.184  72.700  1.00  0.00    -0.177 OA 
HETATM   37  H   UNL     1     -10.416   3.503  72.047  1.00  0.00     0.000 HD 
HETATM   38  C   UNL     1     -10.904   7.118  70.582  1.00  0.00    -0.268 A  
ENDBRANCH   5  23
TORSDOF 5
ENDMDL
MODEL       79
REMARK 921   NORMALIZED FREE ENERGY PREDICTED BY IDOCK:   -5.01 KCAL/MOL
REMARK 922        TOTAL FREE ENERGY PREDICTED BY IDOCK:   -7.82 KCAL/MOL
REMARK 923 INTER-LIGAND FREE ENERGY PREDICTED BY IDOCK:   -7.81 KCAL/MOL
REMARK 924 INTRA-LIGAND FREE ENERGY PREDICTED BY IDOCK:   -0.01 KCAL/MOL
REMARK 927      BINDING AFFINITY PREDICTED BY RF-SCORE:    0.00 PKD
ROOT
HETATM    1  C   UNL     1     -10.481  11.391  68.100  1.00  0.00    -0.187 C  
HETATM    2  O   UNL     1      -9.157  11.022  68.515  1.00  0.00    -0.160 OA 
HETATM    3  C   UNL     1      -9.103   9.678  68.998  1.00  0.00    -0.148 C  
HETATM    4  C   UNL     1     -10.190   9.420  70.034  1.00  0.00    -0.262 C  
HETATM    5  C   UNL     1     -10.881  12.928  68.074  1.00  0.00    -0.241 C  
HETATM    6  C   UNL     1     -11.267  10.250  70.137  1.00  0.00    -0.318 C  
HETATM    7  N   UNL     1     -11.464  11.197  69.157  1.00  0.00    -0.268 N  
HETATM    8  C   UNL     1     -12.209  10.151  71.316  1.00  0.00    -0.398 C  
HETATM    9  O   UNL     1     -11.967   9.503  72.325  1.00  0.00    -0.211 OA 
HETATM   10  O   UNL     1     -13.385  10.796  71.194  1.00  0.00    -0.247 OA 
HETATM   11  O   UNL     1     -12.704  12.979  69.962  1.00  0.00     0.021 OA 
HETATM   12  C   UNL     1     -11.900  12.474  69.210  1.00  0.00    -0.304 C  
ENDROOT
BRANCH   4  13
HETATM   13  C   UNL     1      -9.836   8.259  70.947  1.00  0.00    -0.182 C  
BRANCH  13  14
HETATM   14  S   UNL     1      -8.163   7.593  70.733  1.00  0.00    -0.110 SA 
BRANCH  14  15
HETATM   15  C   UNL     1      -7.164   8.693  71.596  1.00  0.00    -0.091 A  
HETATM   16  N   UNL     1      -6.563   9.766  71.139  1.00  0.00    -0.307 NA 
HETATM   17  C   UNL     1      -7.274   7.554  73.861  1.00  0.00    -0.096 C  
HETATM   18  N   UNL     1      -5.852  10.276  72.199  1.00  0.00    -0.147 NA 
HETATM   19  N   UNL     1      -6.020   9.537  73.288  1.00  0.00    -0.290 NA 
HETATM   20  N   UNL     1      -6.850   8.548  72.916  1.00  0.00    -0.233 NA 
ENDBRANCH  14  15
ENDBRANCH  13  14
ENDBRANCH   4  13
BRANCH   5  21
HETATM   21  O   UNL     1     -11.540  13.382  66.861  1.00  0.00    -0.329 OA 
HETATM   22  C   UNL     1     -11.499  14.775  66.587  1.00  0.00    -0.335 C  
ENDBRANCH   5  21
BRANCH   5  23
HETATM   23  N   UNL     1      -9.788  13.826  68.572  1.00  0.00    -0.276 N  
HETATM   24  C   UNL     1      -7.502  14.734  68.637  1.00  0.00    -0.126 C  
HETATM   25  C   UNL     1      -8.534  13.817  67.996  1.00  0.00    -0.176 C  
HETATM   26  O   UNL     1      -8.265  13.152  66.995  1.00  0.00    -0.149 OA 
HETATM   27  H   UNL     1      -9.974  14.455  69.352  1.00  0.00     0.000 HD 
HETATM   28  C   UNL     1      -6.060  14.307  68.399  1.00  0.00    -0.102 C  
HETATM   29  C   UNL     1      -7.710  16.205  68.278  1.00  0.00    -0.148 A  
HETATM   30  C   UNL     1      -7.285  17.204  69.175  1.00  0.00    -0.197 A  
HETATM   31  O   UNL     1      -5.154  14.622  69.162  1.00  0.00    -0.086 OA 
HETATM   32  O   UNL     1      -5.808  13.588  67.282  1.00  0.00    -0.345 OA 
HETATM   33  C   UNL     1      -7.514  18.556  68.904  1.00  0.00    -0.274 A  
HETATM   34  C   UNL     1      -8.163  18.918  67.731  1.00  0.00    -0.270 A  
HETATM   35  C   UNL     1      -8.537  17.955  66.803  1.00  0.00    -0.271 A  
HETATM   36  O   UNL     1      -8.458  20.218  67.450  1.00  0.00    -0.333 OA 
HETATM   37  H   UNL     1      -8.902  20.466  66.647  1.00  0.00     0.000 HD 
HETATM   38  C   UNL     1      -8.301  16.605  67.068  1.00  0.00    -0.216 A  
ENDBRANCH   5  23
TORSDOF 5
ENDMDL
MODEL       80
REMARK 921   NORMALIZED FREE ENERGY PREDICTED BY IDOCK:   -5.00 KCAL/MOL
REMARK 922        TOTAL FREE ENERGY PREDICTED BY IDOCK:   -7.80 KCAL/MOL
REMARK 923 INTER-LIGAND FREE ENERGY PREDICTED BY IDOCK:   -8.29 KCAL/MOL
REMARK 924 INTRA-LIGAND FREE ENERGY PREDICTED BY IDOCK:    0.49 KCAL/MOL
REMARK 927      BINDING AFFINITY PREDICTED BY RF-SCORE:    0.00 PKD
ROOT
HETATM    1  C   UNL     1      -7.828  10.240  68.232  1.00  0.00    -0.101 C  
HETATM    2  O   UNL     1      -8.821  10.777  69.119  1.00  0.00    -0.156 OA 
HETATM    3  C   UNL     1      -9.415   9.766  69.935  1.00  0.00    -0.231 C  
HETATM    4  C   UNL     1      -9.885   8.586  69.095  1.00  0.00    -0.186 C  
HETATM    5  C   UNL     1      -7.470  11.033  66.902  1.00  0.00    -0.133 C  
HETATM    6  C   UNL     1      -9.416   8.399  67.828  1.00  0.00    -0.149 C  
HETATM    7  N   UNL     1      -8.358   9.168  67.399  1.00  0.00    -0.115 N  
HETATM    8  C   UNL     1     -10.061   7.390  66.906  1.00  0.00    -0.257 C  
HETATM    9  O   UNL     1     -11.135   6.850  67.136  1.00  0.00    -0.370 OA 
HETATM   10  O   UNL     1      -9.367   7.067  65.798  1.00  0.00     0.030 OA 
HETATM   11  O   UNL     1      -8.343   9.347  65.090  1.00  0.00    -0.130 OA 
HETATM   12  C   UNL     1      -8.081   9.738  66.206  1.00  0.00    -0.113 C  
ENDROOT
BRANCH   4  13
HETATM   13  C   UNL     1     -10.975   7.792  69.794  1.00  0.00    -0.158 C  
BRANCH  13  14
HETATM   14  S   UNL     1     -11.487   8.444  71.408  1.00  0.00    -0.292 SA 
BRANCH  14  15
HETATM   15  C   UNL     1     -10.489   7.607  72.529  1.00  0.00    -0.268 A  
HETATM   16  N   UNL     1      -9.412   8.047  73.137  1.00  0.00    -0.280 NA 
HETATM   17  C   UNL     1     -11.757   5.410  72.545  1.00  0.00    -0.107 C  
HETATM   18  N   UNL     1      -8.951   6.994  73.890  1.00  0.00    -0.170 NA 
HETATM   19  N   UNL     1      -9.734   5.932  73.755  1.00  0.00    -0.157 NA 
HETATM   20  N   UNL     1     -10.705   6.314  72.909  1.00  0.00    -0.236 NA 
ENDBRANCH  14  15
ENDBRANCH  13  14
ENDBRANCH   4  13
BRANCH   5  21
HETATM   21  O   UNL     1      -6.051  11.208  66.643  1.00  0.00    -0.104 OA 
HETATM   22  C   UNL     1      -5.425  12.344  67.223  1.00  0.00    -0.087 C  
ENDBRANCH   5  21
BRANCH   5  23
HETATM   23  N   UNL     1      -8.303  12.265  66.714  1.00  0.00    -0.347 N  
HETATM   24  C   UNL     1     -10.305  13.524  66.033  1.00  0.00    -0.303 C  
HETATM   25  C   UNL     1      -9.593  12.192  66.231  1.00  0.00    -0.237 C  
HETATM   26  O   UNL     1     -10.165  11.123  66.016  1.00  0.00    -0.234 OA 
HETATM   27  H   UNL     1      -7.909  13.176  66.948  1.00  0.00     0.000 HD 
HETATM   28  C   UNL     1     -11.428  13.479  65.005  1.00  0.00    -0.318 C  
HETATM   29  C   UNL     1     -10.779  14.144  67.346  1.00  0.00    -0.284 A  
HETATM   30  C   UNL     1     -10.902  15.543  67.446  1.00  0.00    -0.312 A  
HETATM   31  O   UNL     1     -11.796  14.480  64.400  1.00  0.00    -0.425 OA 
HETATM   32  O   UNL     1     -12.036  12.288  64.809  1.00  0.00    -0.379 OA 
HETATM   33  C   UNL     1     -11.277  16.146  68.651  1.00  0.00    -0.369 A  
HETATM   34  C   UNL     1     -11.538  15.353  69.760  1.00  0.00    -0.323 A  
HETATM   35  C   UNL     1     -11.483  13.969  69.669  1.00  0.00    -0.317 A  
HETATM   36  O   UNL     1     -11.851  15.897  70.970  1.00  0.00    -0.374 OA 
HETATM   37  H   UNL     1     -12.030  15.354  71.729  1.00  0.00     0.000 HD 
HETATM   38  C   UNL     1     -11.118  13.364  68.464  1.00  0.00    -0.299 A  
ENDBRANCH   5  23
TORSDOF 5
ENDMDL
MODEL       81
REMARK 921   NORMALIZED FREE ENERGY PREDICTED BY IDOCK:   -4.96 KCAL/MOL
REMARK 922        TOTAL FREE ENERGY PREDICTED BY IDOCK:   -7.75 KCAL/MOL
REMARK 923 INTER-LIGAND FREE ENERGY PREDICTED BY IDOCK:   -8.03 KCAL/MOL
REMARK 924 INTRA-LIGAND FREE ENERGY PREDICTED BY IDOCK:    0.28 KCAL/MOL
REMARK 927      BINDING AFFINITY PREDICTED BY RF-SCORE:    0.00 PKD
ROOT
HETATM    1  C   UNL     1      -9.277   6.927  66.724  1.00  0.00    -0.152 C  
HETATM    2  O   UNL     1     -10.185   7.970  67.112  1.00  0.00    -0.233 OA 
HETATM    3  C   UNL     1     -10.277   8.997  66.123  1.00  0.00    -0.071 C  
HETATM    4  C   UNL     1      -8.895   9.481  65.702  1.00  0.00    -0.194 C  
HETATM    5  C   UNL     1      -8.609   6.026  67.848  1.00  0.00    -0.113 C  
HETATM    6  C   UNL     1      -7.785   8.732  65.956  1.00  0.00    -0.097 C  
HETATM    7  N   UNL     1      -7.951   7.442  66.408  1.00  0.00    -0.105 N  
HETATM    8  C   UNL     1      -6.401   9.314  65.774  1.00  0.00    -0.067 C  
HETATM    9  O   UNL     1      -6.183  10.506  65.605  1.00  0.00    -0.116 OA 
HETATM   10  O   UNL     1      -5.382   8.433  65.766  1.00  0.00    -0.031 OA 
HETATM   11  O   UNL     1      -6.093   6.731  67.594  1.00  0.00    -0.026 OA 
HETATM   12  C   UNL     1      -7.272   6.709  67.317  1.00  0.00    -0.085 C  
ENDROOT
BRANCH   4  13
HETATM   13  C   UNL     1      -8.941  10.883  65.119  1.00  0.00    -0.180 C  
BRANCH  13  14
HETATM   14  S   UNL     1      -9.616  12.154  66.223  1.00  0.00    -0.234 SA 
BRANCH  14  15
HETATM   15  C   UNL     1     -11.109  12.589  65.491  1.00  0.00    -0.301 A  
HETATM   16  N   UNL     1     -11.669  12.063  64.427  1.00  0.00    -0.338 NA 
HETATM   17  C   UNL     1     -11.744  14.457  67.086  1.00  0.00    -0.400 C  
HETATM   18  N   UNL     1     -12.822  12.781  64.218  1.00  0.00    -0.720 NA 
HETATM   19  N   UNL     1     -12.972  13.723  65.141  1.00  0.00    -0.762 NA 
HETATM   20  N   UNL     1     -11.905  13.599  65.947  1.00  0.00    -0.359 NA 
ENDBRANCH  14  15
ENDBRANCH  13  14
ENDBRANCH   4  13
BRANCH   5  21
HETATM   21  O   UNL     1      -8.655   4.594  67.610  1.00  0.00    -0.103 OA 
HETATM   22  C   UNL     1      -8.837   3.757  68.743  1.00  0.00    -0.110 C  
ENDBRANCH   5  21
BRANCH   5  23
HETATM   23  N   UNL     1      -8.987   6.448  69.237  1.00  0.00    -0.133 N  
HETATM   24  C   UNL     1      -8.779   7.765  71.305  1.00  0.00    -0.140 C  
HETATM   25  C   UNL     1      -8.334   7.481  69.876  1.00  0.00    -0.133 C  
HETATM   26  O   UNL     1      -7.477   8.171  69.323  1.00  0.00    -0.085 OA 
HETATM   27  H   UNL     1      -9.743   5.961  69.719  1.00  0.00     0.000 HD 
HETATM   28  C   UNL     1      -7.723   8.456  72.156  1.00  0.00    -0.115 C  
HETATM   29  C   UNL     1     -10.115   8.502  71.374  1.00  0.00    -0.302 A  
HETATM   30  C   UNL     1     -10.942   8.334  72.502  1.00  0.00    -0.424 A  
HETATM   31  O   UNL     1      -7.711   8.363  73.379  1.00  0.00    -0.279 OA 
HETATM   32  O   UNL     1      -6.809   9.213  71.510  1.00  0.00    -0.210 OA 
HETATM   33  C   UNL     1     -12.197   8.947  72.570  1.00  0.00    -0.299 A  
HETATM   34  C   UNL     1     -12.630   9.738  71.514  1.00  0.00    -0.398 A  
HETATM   35  C   UNL     1     -11.808   9.968  70.419  1.00  0.00    -0.343 A  
HETATM   36  O   UNL     1     -13.866  10.310  71.511  1.00  0.00    -0.062 OA 
HETATM   37  H   UNL     1     -14.163  10.851  70.788  1.00  0.00     0.000 HD 
HETATM   38  C   UNL     1     -10.551   9.364  70.353  1.00  0.00    -0.316 A  
ENDBRANCH   5  23
TORSDOF 5
ENDMDL
MODEL       82
REMARK 921   NORMALIZED FREE ENERGY PREDICTED BY IDOCK:   -4.91 KCAL/MOL
REMARK 922        TOTAL FREE ENERGY PREDICTED BY IDOCK:   -7.70 KCAL/MOL
REMARK 923 INTER-LIGAND FREE ENERGY PREDICTED BY IDOCK:   -7.71 KCAL/MOL
REMARK 924 INTRA-LIGAND FREE ENERGY PREDICTED BY IDOCK:    0.01 KCAL/MOL
REMARK 927      BINDING AFFINITY PREDICTED BY RF-SCORE:    0.00 PKD
ROOT
HETATM    1  C   UNL     1     -10.639   9.805  68.577  1.00  0.00    -0.221 C  
HETATM    2  O   UNL     1      -9.245   9.527  68.780  1.00  0.00    -0.136 OA 
HETATM    3  C   UNL     1      -9.031   8.216  69.308  1.00  0.00    -0.148 C  
HETATM    4  C   UNL     1      -9.915   7.961  70.523  1.00  0.00    -0.191 C  
HETATM    5  C   UNL     1     -11.129  11.316  68.550  1.00  0.00    -0.235 C  
HETATM    6  C   UNL     1     -11.007   8.738  70.768  1.00  0.00    -0.247 C  
HETATM    7  N   UNL     1     -11.420   9.619  69.793  1.00  0.00    -0.121 N  
HETATM    8  C   UNL     1     -11.733   8.656  72.092  1.00  0.00    -0.371 C  
HETATM    9  O   UNL     1     -11.289   8.078  73.075  1.00  0.00    -0.386 OA 
HETATM   10  O   UNL     1     -12.950   9.233  72.140  1.00  0.00    -0.380 OA 
HETATM   11  O   UNL     1     -12.614  11.377  70.713  1.00  0.00    -0.343 OA 
HETATM   12  C   UNL     1     -11.916  10.873  69.861  1.00  0.00    -0.353 C  
ENDROOT
BRANCH   4  13
HETATM   13  C   UNL     1      -9.346   6.871  71.416  1.00  0.00    -0.156 C  
BRANCH  13  14
HETATM   14  S   UNL     1     -10.240   5.293  71.370  1.00  0.00    -0.212 SA 
BRANCH  14  15
HETATM   15  C   UNL     1      -8.995   4.110  71.427  1.00  0.00    -0.118 A  
HETATM   16  N   UNL     1      -8.200   3.728  70.455  1.00  0.00    -0.057 NA 
HETATM   17  C   UNL     1      -9.268   3.439  73.858  1.00  0.00    -0.089 C  
HETATM   18  N   UNL     1      -7.415   2.731  70.984  1.00  0.00    -0.033 NA 
HETATM   19  N   UNL     1      -7.716   2.512  72.258  1.00  0.00    -0.052 NA 
HETATM   20  N   UNL     1      -8.701   3.380  72.542  1.00  0.00    -0.084 NA 
ENDBRANCH  14  15
ENDBRANCH  13  14
ENDBRANCH   4  13
BRANCH   5  21
HETATM   21  O   UNL     1     -12.006  11.668  67.446  1.00  0.00    -0.621 OA 
HETATM   22  C   UNL     1     -12.059  13.038  67.076  1.00  0.00    -0.267 C  
ENDBRANCH   5  21
BRANCH   5  23
HETATM   23  N   UNL     1     -10.024  12.294  68.815  1.00  0.00    -0.408 N  
HETATM   24  C   UNL     1      -7.848  13.367  68.406  1.00  0.00    -0.138 C  
HETATM   25  C   UNL     1      -8.922  12.373  67.988  1.00  0.00    -0.194 C  
HETATM   26  O   UNL     1      -8.822  11.722  66.947  1.00  0.00    -0.178 OA 
HETATM   27  H   UNL     1     -10.087  12.913  69.622  1.00  0.00     0.000 HD 
HETATM   28  C   UNL     1      -6.461  13.045  67.867  1.00  0.00    -0.130 C  
HETATM   29  C   UNL     1      -8.233  14.816  68.112  1.00  0.00    -0.142 A  
HETATM   30  C   UNL     1      -7.703  15.849  68.908  1.00  0.00    -0.194 A  
HETATM   31  O   UNL     1      -5.440  13.430  68.425  1.00  0.00    -0.075 OA 
HETATM   32  O   UNL     1      -6.397  12.339  66.715  1.00  0.00    -0.143 OA 
HETATM   33  C   UNL     1      -8.082  17.180  68.704  1.00  0.00    -0.264 A  
HETATM   34  C   UNL     1      -8.987  17.486  67.697  1.00  0.00    -0.231 A  
HETATM   35  C   UNL     1      -9.477  16.492  66.860  1.00  0.00    -0.250 A  
HETATM   36  O   UNL     1      -9.429  18.759  67.495  1.00  0.00    -0.293 OA 
HETATM   37  H   UNL     1     -10.048  18.968  66.806  1.00  0.00     0.000 HD 
HETATM   38  C   UNL     1      -9.093  15.164  67.057  1.00  0.00    -0.249 A  
ENDBRANCH   5  23
TORSDOF 5
ENDMDL
MODEL       83
REMARK 921   NORMALIZED FREE ENERGY PREDICTED BY IDOCK:   -4.90 KCAL/MOL
REMARK 922        TOTAL FREE ENERGY PREDICTED BY IDOCK:   -7.68 KCAL/MOL
REMARK 923 INTER-LIGAND FREE ENERGY PREDICTED BY IDOCK:   -6.41 KCAL/MOL
REMARK 924 INTRA-LIGAND FREE ENERGY PREDICTED BY IDOCK:   -1.26 KCAL/MOL
REMARK 927      BINDING AFFINITY PREDICTED BY RF-SCORE:    0.00 PKD
ROOT
HETATM    1  C   UNL     1     -10.723   9.213  69.529  1.00  0.00    -0.215 C  
HETATM    2  O   UNL     1     -11.000   8.069  68.707  1.00  0.00    -0.009 OA 
HETATM    3  C   UNL     1     -10.567   6.853  69.318  1.00  0.00    -0.226 C  
HETATM    4  C   UNL     1      -9.125   6.958  69.797  1.00  0.00    -0.144 C  
HETATM    5  C   UNL     1     -10.593  10.642  68.847  1.00  0.00    -0.212 C  
HETATM    6  C   UNL     1      -8.531   8.174  69.960  1.00  0.00    -0.128 C  
HETATM    7  N   UNL     1      -9.315   9.304  69.889  1.00  0.00    -0.183 N  
HETATM    8  C   UNL     1      -7.039   8.282  70.184  1.00  0.00    -0.040 C  
HETATM    9  O   UNL     1      -6.260   7.352  70.025  1.00  0.00    -0.027 OA 
HETATM   10  O   UNL     1      -6.587   9.474  70.618  1.00  0.00    -0.081 OA 
HETATM   11  O   UNL     1      -8.056  11.152  69.287  1.00  0.00    -0.076 OA 
HETATM   12  C   UNL     1      -9.091  10.527  69.362  1.00  0.00    -0.104 C  
ENDROOT
BRANCH   4  13
HETATM   13  C   UNL     1      -8.470   5.594  69.922  1.00  0.00    -0.121 C  
BRANCH  13  14
HETATM   14  S   UNL     1      -9.218   4.489  71.152  1.00  0.00    -0.149 SA 
BRANCH  14  15
HETATM   15  C   UNL     1      -9.286   5.443  72.579  1.00  0.00    -0.142 A  
HETATM   16  N   UNL     1      -8.303   6.079  73.173  1.00  0.00    -0.116 NA 
HETATM   17  C   UNL     1     -11.762   5.168  73.061  1.00  0.00    -0.150 C  
HETATM   18  N   UNL     1      -8.852   6.652  74.295  1.00  0.00    -0.149 NA 
HETATM   19  N   UNL     1     -10.148   6.383  74.383  1.00  0.00    -0.340 NA 
HETATM   20  N   UNL     1     -10.426   5.633  73.304  1.00  0.00    -0.214 NA 
ENDBRANCH  14  15
ENDBRANCH  13  14
ENDBRANCH   4  13
BRANCH   5  21
HETATM   21  O   UNL     1     -11.339  11.711  69.488  1.00  0.00    -0.258 OA 
HETATM   22  C   UNL     1     -12.227  11.341  70.532  1.00  0.00    -0.383 C  
ENDBRANCH   5  21
BRANCH   5  23
HETATM   23  N   UNL     1     -10.721  10.590  67.353  1.00  0.00    -0.263 N  
HETATM   24  C   UNL     1     -10.721  11.530  65.079  1.00  0.00    -0.350 C  
HETATM   25  C   UNL     1     -10.498  11.707  66.575  1.00  0.00    -0.239 C  
HETATM   26  O   UNL     1     -10.096  12.775  67.040  1.00  0.00    -0.234 OA 
HETATM   27  H   UNL     1     -10.978   9.712  66.904  1.00  0.00     0.000 HD 
HETATM   28  C   UNL     1     -11.038  12.824  64.342  1.00  0.00    -0.349 C  
HETATM   29  C   UNL     1      -9.586  10.767  64.397  1.00  0.00    -0.330 A  
HETATM   30  C   UNL     1      -9.855  10.018  63.235  1.00  0.00     0.232 A  
HETATM   31  O   UNL     1     -11.664  12.835  63.288  1.00  0.00    -0.515 OA 
HETATM   32  O   UNL     1     -10.567  13.971  64.881  1.00  0.00    -0.379 OA 
HETATM   33  C   UNL     1      -8.853   9.262  62.621  1.00  0.00    -0.210 A  
HETATM   34  C   UNL     1      -7.573   9.256  63.160  1.00  0.00    -0.108 A  
HETATM   35  C   UNL     1      -7.269  10.034  64.268  1.00  0.00    -0.133 A  
HETATM   36  O   UNL     1      -6.578   8.491  62.629  1.00  0.00    -0.091 OA 
HETATM   37  H   UNL     1      -5.702   8.487  62.998  1.00  0.00     0.000 HD 
HETATM   38  C   UNL     1      -8.266  10.797  64.878  1.00  0.00     0.022 A  
ENDBRANCH   5  23
TORSDOF 5
ENDMDL
MODEL       84
REMARK 921   NORMALIZED FREE ENERGY PREDICTED BY IDOCK:   -4.87 KCAL/MOL
REMARK 922        TOTAL FREE ENERGY PREDICTED BY IDOCK:   -7.64 KCAL/MOL
REMARK 923 INTER-LIGAND FREE ENERGY PREDICTED BY IDOCK:   -8.15 KCAL/MOL
REMARK 924 INTRA-LIGAND FREE ENERGY PREDICTED BY IDOCK:    0.51 KCAL/MOL
REMARK 927      BINDING AFFINITY PREDICTED BY RF-SCORE:    0.00 PKD
ROOT
HETATM    1  C   UNL     1     -10.029   9.149  68.449  1.00  0.00    -0.181 C  
HETATM    2  O   UNL     1     -10.117   9.465  67.051  1.00  0.00    -0.206 OA 
HETATM    3  C   UNL     1      -9.610   8.410  66.231  1.00  0.00    -0.216 C  
HETATM    4  C   UNL     1      -8.231   7.963  66.698  1.00  0.00    -0.119 C  
HETATM    5  C   UNL     1      -9.994  10.334  69.507  1.00  0.00    -0.228 C  
HETATM    6  C   UNL     1      -7.782   8.271  67.947  1.00  0.00    -0.103 C  
HETATM    7  N   UNL     1      -8.672   8.806  68.852  1.00  0.00    -0.133 N  
HETATM    8  C   UNL     1      -6.334   8.056  68.324  1.00  0.00    -0.050 C  
HETATM    9  O   UNL     1      -5.451   7.810  67.513  1.00  0.00    -0.033 OA 
HETATM   10  O   UNL     1      -6.046   8.111  69.639  1.00  0.00    -0.029 OA 
HETATM   11  O   UNL     1      -7.569  10.044  70.469  1.00  0.00    -0.276 OA 
HETATM   12  C   UNL     1      -8.535   9.765  69.794  1.00  0.00    -0.193 C  
ENDROOT
BRANCH   4  13
HETATM   13  C   UNL     1      -7.448   7.289  65.583  1.00  0.00    -0.085 C  
BRANCH  13  14
HETATM   14  S   UNL     1      -7.260   5.492  65.752  1.00  0.00    -0.069 SA 
BRANCH  14  15
HETATM   15  C   UNL     1      -8.534   4.850  64.796  1.00  0.00    -0.145 A  
HETATM   16  N   UNL     1      -8.548   4.650  63.498  1.00  0.00    -0.128 NA 
HETATM   17  C   UNL     1     -10.215   4.487  66.661  1.00  0.00    -0.162 C  
HETATM   18  N   UNL     1      -9.802   4.167  63.208  1.00  0.00    -0.131 NA 
HETATM   19  N   UNL     1     -10.540   4.063  64.306  1.00  0.00    -0.227 NA 
HETATM   20  N   UNL     1      -9.745   4.482  65.305  1.00  0.00    -0.178 NA 
ENDBRANCH  14  15
ENDBRANCH  13  14
ENDBRANCH   4  13
BRANCH   5  21
HETATM   21  O   UNL     1     -10.898  10.190  70.636  1.00  0.00    -0.308 OA 
HETATM   22  C   UNL     1     -12.128  10.897  70.570  1.00  0.00    -0.371 C  
ENDBRANCH   5  21
BRANCH   5  23
HETATM   23  N   UNL     1      -9.994  11.690  68.867  1.00  0.00    -0.387 N  
HETATM   24  C   UNL     1      -9.003  13.581  67.644  1.00  0.00    -0.200 C  
HETATM   25  C   UNL     1      -8.888  12.165  68.194  1.00  0.00    -0.187 C  
HETATM   26  O   UNL     1      -7.881  11.483  67.999  1.00  0.00    -0.113 OA 
HETATM   27  H   UNL     1     -10.828  12.272  68.930  1.00  0.00     0.000 HD 
HETATM   28  C   UNL     1      -7.664  14.277  67.442  1.00  0.00    -0.173 C  
HETATM   29  C   UNL     1      -9.864  13.659  66.384  1.00  0.00    -0.302 A  
HETATM   30  C   UNL     1     -10.551  14.852  66.088  1.00  0.00    -0.322 A  
HETATM   31  O   UNL     1      -7.560  15.500  67.446  1.00  0.00    -0.163 OA 
HETATM   32  O   UNL     1      -6.588  13.491  67.219  1.00  0.00    -0.247 OA 
HETATM   33  C   UNL     1     -11.394  14.938  64.975  1.00  0.00    -0.398 A  
HETATM   34  C   UNL     1     -11.549  13.833  64.148  1.00  0.00    -0.331 A  
HETATM   35  C   UNL     1     -10.835  12.666  64.386  1.00  0.00    -0.386 A  
HETATM   36  O   UNL     1     -12.401  13.851  63.086  1.00  0.00    -1.122 OA 
HETATM   37  H   UNL     1     -12.508  13.095  62.520  1.00  0.00     0.000 HD 
HETATM   38  C   UNL     1      -9.986  12.581  65.491  1.00  0.00    -0.248 A  
ENDBRANCH   5  23
TORSDOF 5
ENDMDL
MODEL       85
REMARK 921   NORMALIZED FREE ENERGY PREDICTED BY IDOCK:   -4.86 KCAL/MOL
REMARK 922        TOTAL FREE ENERGY PREDICTED BY IDOCK:   -7.63 KCAL/MOL
REMARK 923 INTER-LIGAND FREE ENERGY PREDICTED BY IDOCK:   -7.94 KCAL/MOL
REMARK 924 INTRA-LIGAND FREE ENERGY PREDICTED BY IDOCK:    0.31 KCAL/MOL
REMARK 927      BINDING AFFINITY PREDICTED BY RF-SCORE:    0.00 PKD
ROOT
HETATM    1  C   UNL     1     -10.442   7.857  68.820  1.00  0.00    -0.176 C  
HETATM    2  O   UNL     1     -10.482   8.096  67.404  1.00  0.00    -0.260 OA 
HETATM    3  C   UNL     1      -9.575   7.252  66.692  1.00  0.00    -0.178 C  
HETATM    4  C   UNL     1      -8.182   7.300  67.306  1.00  0.00    -0.115 C  
HETATM    5  C   UNL     1     -10.909   9.007  69.811  1.00  0.00    -0.205 C  
HETATM    6  C   UNL     1      -7.992   7.766  68.573  1.00  0.00    -0.122 C  
HETATM    7  N   UNL     1      -9.098   7.993  69.362  1.00  0.00    -0.148 N  
HETATM    8  C   UNL     1      -6.601   8.053  69.091  1.00  0.00    -0.040 C  
HETATM    9  O   UNL     1      -5.607   8.098  68.379  1.00  0.00    -0.032 OA 
HETATM   10  O   UNL     1      -6.486   8.228  70.422  1.00  0.00    -0.035 OA 
HETATM   11  O   UNL     1      -8.637   9.561  71.004  1.00  0.00    -0.273 OA 
HETATM   12  C   UNL     1      -9.382   8.962  70.260  1.00  0.00    -0.185 C  
ENDROOT
BRANCH   4  13
HETATM   13  C   UNL     1      -7.110   6.901  66.307  1.00  0.00    -0.074 C  
BRANCH  13  14
HETATM   14  S   UNL     1      -6.517   5.193  66.452  1.00  0.00    -0.045 SA 
BRANCH  14  15
HETATM   15  C   UNL     1      -7.730   4.264  65.666  1.00  0.00    -0.090 A  
HETATM   16  N   UNL     1      -7.923   4.114  64.377  1.00  0.00    -0.085 NA 
HETATM   17  C   UNL     1      -8.899   3.394  67.743  1.00  0.00    -0.128 C  
HETATM   18  N   UNL     1      -9.039   3.321  64.255  1.00  0.00    -0.117 NA 
HETATM   19  N   UNL     1      -9.517   2.983  65.445  1.00  0.00    -0.112 NA 
HETATM   20  N   UNL     1      -8.693   3.565  66.333  1.00  0.00    -0.117 NA 
ENDBRANCH  14  15
ENDBRANCH  13  14
ENDBRANCH   4  13
BRANCH   5  21
HETATM   21  O   UNL     1     -11.828   8.595  70.858  1.00  0.00    -0.284 OA 
HETATM   22  C   UNL     1     -12.292   9.604  71.743  1.00  0.00    -0.392 C  
ENDBRANCH   5  21
BRANCH   5  23
HETATM   23  N   UNL     1     -11.288  10.273  69.100  1.00  0.00    -0.374 N  
HETATM   24  C   UNL     1     -10.874  12.486  68.109  1.00  0.00    -0.248 C  
HETATM   25  C   UNL     1     -10.343  11.224  68.775  1.00  0.00    -0.205 C  
HETATM   26  O   UNL     1      -9.137  11.056  68.961  1.00  0.00    -0.152 OA 
HETATM   27  H   UNL     1     -12.264  10.433  68.853  1.00  0.00     0.000 HD 
HETATM   28  C   UNL     1      -9.977  13.704  68.286  1.00  0.00    -0.236 C  
HETATM   29  C   UNL     1     -11.237  12.274  66.641  1.00  0.00    -0.367 A  
HETATM   30  C   UNL     1     -12.236  13.073  66.052  1.00  0.00    -0.463 A  
HETATM   31  O   UNL     1     -10.414  14.848  68.229  1.00  0.00    -0.232 OA 
HETATM   32  O   UNL     1      -8.658  13.475  68.475  1.00  0.00    -0.160 OA 
HETATM   33  C   UNL     1     -12.634  12.866  64.728  1.00  0.00    -0.493 A  
HETATM   34  C   UNL     1     -12.029  11.862  63.982  1.00  0.00    -0.356 A  
HETATM   35  C   UNL     1     -11.000  11.102  64.521  1.00  0.00    -0.255 A  
HETATM   36  O   UNL     1     -12.421  11.585  62.706  1.00  0.00    -0.871 OA 
HETATM   37  H   UNL     1     -12.008  10.899  62.196  1.00  0.00     0.000 HD 
HETATM   38  C   UNL     1     -10.595  11.314  65.840  1.00  0.00    -0.309 A  
ENDBRANCH   5  23
TORSDOF 5
ENDMDL
MODEL       86
REMARK 921   NORMALIZED FREE ENERGY PREDICTED BY IDOCK:   -4.86 KCAL/MOL
REMARK 922        TOTAL FREE ENERGY PREDICTED BY IDOCK:   -7.63 KCAL/MOL
REMARK 923 INTER-LIGAND FREE ENERGY PREDICTED BY IDOCK:   -5.84 KCAL/MOL
REMARK 924 INTRA-LIGAND FREE ENERGY PREDICTED BY IDOCK:   -1.79 KCAL/MOL
REMARK 927      BINDING AFFINITY PREDICTED BY RF-SCORE:    0.00 PKD
ROOT
HETATM    1  C   UNL     1      -9.387   4.580  68.749  1.00  0.00    -0.146 C  
HETATM    2  O   UNL     1      -7.994   4.639  69.095  1.00  0.00    -0.070 OA 
HETATM    3  C   UNL     1      -7.722   3.990  70.338  1.00  0.00    -0.045 C  
HETATM    4  C   UNL     1      -8.670   4.471  71.429  1.00  0.00    -0.140 C  
HETATM    5  C   UNL     1      -9.984   5.671  67.761  1.00  0.00    -0.146 C  
HETATM    6  C   UNL     1      -9.832   5.110  71.114  1.00  0.00    -0.186 C  
HETATM    7  N   UNL     1     -10.237   5.126  69.798  1.00  0.00    -0.275 N  
HETATM    8  C   UNL     1     -10.643   5.810  72.181  1.00  0.00    -0.219 C  
HETATM    9  O   UNL     1     -10.230   6.034  73.311  1.00  0.00    -0.183 OA 
HETATM   10  O   UNL     1     -11.900   6.157  71.841  1.00  0.00    -0.314 OA 
HETATM   11  O   UNL     1     -11.622   6.934  69.378  1.00  0.00    -0.122 OA 
HETATM   12  C   UNL     1     -10.829   6.080  69.047  1.00  0.00    -0.342 C  
ENDROOT
BRANCH   4  13
HETATM   13  C   UNL     1      -8.088   4.259  72.817  1.00  0.00    -0.093 C  
BRANCH  13  14
HETATM   14  S   UNL     1      -6.521   5.116  73.134  1.00  0.00    -0.063 SA 
BRANCH  14  15
HETATM   15  C   UNL     1      -6.981   6.757  73.347  1.00  0.00    -0.075 A  
HETATM   16  N   UNL     1      -7.336   7.358  74.459  1.00  0.00    -0.118 NA 
HETATM   17  C   UNL     1      -6.750   7.497  70.931  1.00  0.00    -0.043 C  
HETATM   18  N   UNL     1      -7.653   8.647  74.102  1.00  0.00    -0.417 NA 
HETATM   19  N   UNL     1      -7.486   8.837  72.800  1.00  0.00    -0.359 NA 
HETATM   20  N   UNL     1      -7.057   7.657  72.324  1.00  0.00    -0.067 NA 
ENDBRANCH  14  15
ENDBRANCH  13  14
ENDBRANCH   4  13
BRANCH   5  21
HETATM   21  O   UNL     1     -10.802   5.152  66.678  1.00  0.00    -0.230 OA 
HETATM   22  C   UNL     1     -10.135   4.426  65.657  1.00  0.00    -0.241 C  
ENDBRANCH   5  21
BRANCH   5  23
HETATM   23  N   UNL     1      -8.977   6.704  67.352  1.00  0.00    -0.115 N  
HETATM   24  C   UNL     1      -8.198   8.720  66.175  1.00  0.00    -0.117 C  
HETATM   25  C   UNL     1      -9.332   7.781  66.566  1.00  0.00    -0.189 C  
HETATM   26  O   UNL     1     -10.496   8.009  66.234  1.00  0.00     0.022 OA 
HETATM   27  H   UNL     1      -8.010   6.608  67.660  1.00  0.00     0.000 HD 
HETATM   28  C   UNL     1      -8.463   9.514  64.903  1.00  0.00    -0.158 C  
HETATM   29  C   UNL     1      -7.765   9.635  67.320  1.00  0.00    -0.091 A  
HETATM   30  C   UNL     1      -6.440  10.110  67.363  1.00  0.00    -0.067 A  
HETATM   31  O   UNL     1      -7.551   9.951  64.209  1.00  0.00    -0.130 OA 
HETATM   32  O   UNL     1      -9.754   9.752  64.583  1.00  0.00    -0.268 OA 
HETATM   33  C   UNL     1      -5.995  10.900  68.427  1.00  0.00    -0.042 A  
HETATM   34  C   UNL     1      -6.875  11.226  69.451  1.00  0.00    -0.121 A  
HETATM   35  C   UNL     1      -8.202  10.820  69.400  1.00  0.00    -0.035 A  
HETATM   36  O   UNL     1      -6.473  11.946  70.536  1.00  0.00    -0.519 OA 
HETATM   37  H   UNL     1      -7.075  12.169  71.236  1.00  0.00     0.000 HD 
HETATM   38  C   UNL     1      -8.650  10.039  68.333  1.00  0.00    -0.113 A  
ENDBRANCH   5  23
TORSDOF 5
ENDMDL
MODEL       87
REMARK 921   NORMALIZED FREE ENERGY PREDICTED BY IDOCK:   -4.83 KCAL/MOL
REMARK 922        TOTAL FREE ENERGY PREDICTED BY IDOCK:   -7.59 KCAL/MOL
REMARK 923 INTER-LIGAND FREE ENERGY PREDICTED BY IDOCK:   -7.78 KCAL/MOL
REMARK 924 INTRA-LIGAND FREE ENERGY PREDICTED BY IDOCK:    0.19 KCAL/MOL
REMARK 927      BINDING AFFINITY PREDICTED BY RF-SCORE:    0.00 PKD
ROOT
HETATM    1  C   UNL     1     -10.825  13.076  68.483  1.00  0.00    -0.258 C  
HETATM    2  O   UNL     1      -9.410  13.260  68.643  1.00  0.00    -0.128 OA 
HETATM    3  C   UNL     1      -9.037  14.638  68.572  1.00  0.00    -0.188 C  
HETATM    4  C   UNL     1      -9.631  15.307  67.339  1.00  0.00    -0.207 C  
HETATM    5  C   UNL     1     -11.369  11.673  67.974  1.00  0.00    -0.296 C  
HETATM    6  C   UNL     1     -10.676  14.740  66.672  1.00  0.00    -0.309 C  
HETATM    7  N   UNL     1     -11.321  13.669  67.249  1.00  0.00    -0.309 N  
HETATM    8  C   UNL     1     -11.100  15.258  65.316  1.00  0.00    -0.376 C  
HETATM    9  O   UNL     1     -10.435  16.040  64.650  1.00  0.00    -0.502 OA 
HETATM   10  O   UNL     1     -12.300  14.841  64.868  1.00  0.00    -0.357 OA 
HETATM   11  O   UNL     1     -12.361  12.363  65.643  1.00  0.00    -0.639 OA 
HETATM   12  C   UNL     1     -11.841  12.538  66.723  1.00  0.00    -0.346 C  
ENDROOT
BRANCH   4  13
HETATM   13  C   UNL     1      -8.843  16.540  66.930  1.00  0.00    -0.208 C  
BRANCH  13  14
HETATM   14  S   UNL     1      -7.591  17.085  68.125  1.00  0.00    -0.202 SA 
BRANCH  14  15
HETATM   15  C   UNL     1      -6.498  15.763  68.212  1.00  0.00    -0.118 A  
HETATM   16  N   UNL     1      -6.075  14.998  67.232  1.00  0.00    -0.273 NA 
HETATM   17  C   UNL     1      -6.069  15.835  70.712  1.00  0.00     0.313 C  
HETATM   18  N   UNL     1      -5.256  14.061  67.816  1.00  0.00    -0.297 NA 
HETATM   19  N   UNL     1      -5.170  14.251  69.126  1.00  0.00    -0.078 NA 
HETATM   20  N   UNL     1      -5.940  15.323  69.377  1.00  0.00    -0.105 NA 
ENDBRANCH  14  15
ENDBRANCH  13  14
ENDBRANCH   4  13
BRANCH   5  21
HETATM   21  O   UNL     1     -12.473  11.117  68.737  1.00  0.00    -0.468 OA 
HETATM   22  C   UNL     1     -12.615  11.557  70.080  1.00  0.00    -0.023 C  
ENDBRANCH   5  21
BRANCH   5  23
HETATM   23  N   UNL     1     -10.272  10.703  67.652  1.00  0.00    -0.186 N  
HETATM   24  C   UNL     1      -8.423   9.168  68.183  1.00  0.00    -0.125 C  
HETATM   25  C   UNL     1      -9.547  10.083  68.649  1.00  0.00    -0.155 C  
HETATM   26  O   UNL     1      -9.811  10.214  69.845  1.00  0.00    -0.233 OA 
HETATM   27  H   UNL     1     -10.057  10.496  66.677  1.00  0.00     0.000 HD 
HETATM   28  C   UNL     1      -7.317   8.971  69.211  1.00  0.00    -0.070 C  
HETATM   29  C   UNL     1      -8.932   7.828  67.652  1.00  0.00    -0.128 A  
HETATM   30  C   UNL     1      -8.180   7.136  66.684  1.00  0.00    -0.112 A  
HETATM   31  O   UNL     1      -6.175   8.665  68.886  1.00  0.00    -0.043 OA 
HETATM   32  O   UNL     1      -7.654   9.112  70.512  1.00  0.00    -0.093 OA 
HETATM   33  C   UNL     1      -8.645   5.938  66.134  1.00  0.00    -0.137 A  
HETATM   34  C   UNL     1      -9.863   5.420  66.556  1.00  0.00    -0.176 A  
HETATM   35  C   UNL     1     -10.593   6.052  67.554  1.00  0.00    -0.345 A  
HETATM   36  O   UNL     1     -10.384   4.285  66.011  1.00  0.00    -0.402 OA 
HETATM   37  H   UNL     1     -11.217   3.931  66.299  1.00  0.00     0.000 HD 
HETATM   38  C   UNL     1     -10.125   7.244  68.110  1.00  0.00    -0.201 A  
ENDBRANCH   5  23
TORSDOF 5
ENDMDL
MODEL       88
REMARK 921   NORMALIZED FREE ENERGY PREDICTED BY IDOCK:   -4.83 KCAL/MOL
REMARK 922        TOTAL FREE ENERGY PREDICTED BY IDOCK:   -7.59 KCAL/MOL
REMARK 923 INTER-LIGAND FREE ENERGY PREDICTED BY IDOCK:   -7.15 KCAL/MOL
REMARK 924 INTRA-LIGAND FREE ENERGY PREDICTED BY IDOCK:   -0.43 KCAL/MOL
REMARK 927      BINDING AFFINITY PREDICTED BY RF-SCORE:    0.00 PKD
ROOT
HETATM    1  C   UNL     1      -9.230  11.423  66.645  1.00  0.00    -0.181 C  
HETATM    2  O   UNL     1      -7.997  11.803  67.274  1.00  0.00    -0.145 OA 
HETATM    3  C   UNL     1      -7.097  10.700  67.400  1.00  0.00    -0.090 C  
HETATM    4  C   UNL     1      -7.787   9.496  68.029  1.00  0.00    -0.087 C  
HETATM    5  C   UNL     1     -10.532  12.296  66.908  1.00  0.00    -0.217 C  
HETATM    6  C   UNL     1      -9.147   9.410  68.063  1.00  0.00    -0.127 C  
HETATM    7  N   UNL     1      -9.882  10.320  67.337  1.00  0.00    -0.174 N  
HETATM    8  C   UNL     1      -9.834   8.356  68.903  1.00  0.00    -0.180 C  
HETATM    9  O   UNL     1      -9.259   7.677  69.743  1.00  0.00    -0.147 OA 
HETATM   10  O   UNL     1     -11.143   8.158  68.655  1.00  0.00     0.127 OA 
HETATM   11  O   UNL     1     -12.006  10.570  68.226  1.00  0.00    -0.377 OA 
HETATM   12  C   UNL     1     -11.045  10.956  67.599  1.00  0.00    -0.313 C  
ENDROOT
BRANCH   4  13
HETATM   13  C   UNL     1      -6.792   8.550  68.679  1.00  0.00    -0.063 C  
BRANCH  13  14
HETATM   14  S   UNL     1      -5.845   7.517  67.526  1.00  0.00    -0.037 SA 
BRANCH  14  15
HETATM   15  C   UNL     1      -7.047   6.605  66.703  1.00  0.00    -0.068 A  
HETATM   16  N   UNL     1      -8.085   5.989  67.217  1.00  0.00    -0.106 NA 
HETATM   17  C   UNL     1      -6.128   6.867  64.352  1.00  0.00    -0.036 C  
HETATM   18  N   UNL     1      -8.711   5.369  66.162  1.00  0.00    -0.125 NA 
HETATM   19  N   UNL     1      -8.076   5.607  65.022  1.00  0.00    -0.116 NA 
HETATM   20  N   UNL     1      -7.036   6.390  65.356  1.00  0.00    -0.063 NA 
ENDBRANCH  14  15
ENDBRANCH  13  14
ENDBRANCH   4  13
BRANCH   5  21
HETATM   21  O   UNL     1     -11.291  12.658  65.724  1.00  0.00    -0.305 OA 
HETATM   22  C   UNL     1     -11.122  11.840  64.575  1.00  0.00    -0.315 C  
ENDBRANCH   5  21
BRANCH   5  23
HETATM   23  N   UNL     1     -10.297  13.418  67.875  1.00  0.00    -0.233 N  
HETATM   24  C   UNL     1     -10.282  15.767  68.607  1.00  0.00    -0.221 C  
HETATM   25  C   UNL     1     -10.628  14.719  67.557  1.00  0.00    -0.259 C  
HETATM   26  O   UNL     1     -11.212  15.024  66.517  1.00  0.00    -0.340 OA 
HETATM   27  H   UNL     1      -9.885  13.216  68.785  1.00  0.00     0.000 HD 
HETATM   28  C   UNL     1     -10.109  17.172  68.045  1.00  0.00    -0.311 C  
HETATM   29  C   UNL     1     -11.245  15.760  69.793  1.00  0.00    -0.330 A  
HETATM   30  C   UNL     1     -10.792  16.189  71.055  1.00  0.00     0.154 A  
HETATM   31  O   UNL     1      -9.422  18.017  68.608  1.00  0.00    -0.310 OA 
HETATM   32  O   UNL     1     -10.777  17.467  66.907  1.00  0.00    -0.255 OA 
HETATM   33  C   UNL     1     -11.630  16.139  72.174  1.00  0.00    -0.459 A  
HETATM   34  C   UNL     1     -12.928  15.666  72.035  1.00  0.00    -0.452 A  
HETATM   35  C   UNL     1     -13.417  15.295  70.789  1.00  0.00    -0.359 A  
HETATM   36  O   UNL     1     -13.763  15.546  73.104  1.00  0.00    -0.561 OA 
HETATM   37  H   UNL     1     -14.652  15.223  73.009  1.00  0.00     0.000 HD 
HETATM   38  C   UNL     1     -12.584  15.353  69.669  1.00  0.00    -0.071 A  
ENDBRANCH   5  23
TORSDOF 5
ENDMDL
MODEL       89
REMARK 921   NORMALIZED FREE ENERGY PREDICTED BY IDOCK:   -4.83 KCAL/MOL
REMARK 922        TOTAL FREE ENERGY PREDICTED BY IDOCK:   -7.58 KCAL/MOL
REMARK 923 INTER-LIGAND FREE ENERGY PREDICTED BY IDOCK:   -6.96 KCAL/MOL
REMARK 924 INTRA-LIGAND FREE ENERGY PREDICTED BY IDOCK:   -0.62 KCAL/MOL
REMARK 927      BINDING AFFINITY PREDICTED BY RF-SCORE:    0.00 PKD
ROOT
HETATM    1  C   UNL     1     -10.156   8.371  66.908  1.00  0.00    -0.294 C  
HETATM    2  O   UNL     1     -10.900   9.261  67.755  1.00  0.00    -0.237 OA 
HETATM    3  C   UNL     1     -10.930  10.593  67.238  1.00  0.00    -0.284 C  
HETATM    4  C   UNL     1      -9.531  11.077  66.880  1.00  0.00    -0.197 C  
HETATM    5  C   UNL     1      -9.529   7.052  67.534  1.00  0.00    -0.126 C  
HETATM    6  C   UNL     1      -8.507  10.193  66.714  1.00  0.00    -0.126 C  
HETATM    7  N   UNL     1      -8.801   8.848  66.666  1.00  0.00    -0.126 N  
HETATM    8  C   UNL     1      -7.078  10.675  66.612  1.00  0.00    -0.124 C  
HETATM    9  O   UNL     1      -6.726  11.817  66.879  1.00  0.00    -0.140 OA 
HETATM   10  O   UNL     1      -6.177   9.779  66.165  1.00  0.00    -0.062 OA 
HETATM   11  O   UNL     1      -6.969   7.576  67.290  1.00  0.00    -0.078 OA 
HETATM   12  C   UNL     1      -8.158   7.765  67.155  1.00  0.00    -0.118 C  
ENDROOT
BRANCH   4  13
HETATM   13  C   UNL     1      -9.443  12.593  66.872  1.00  0.00    -0.229 C  
BRANCH  13  14
HETATM   14  S   UNL     1     -10.897  13.447  66.201  1.00  0.00    -0.282 SA 
BRANCH  14  15
HETATM   15  C   UNL     1     -10.975  14.906  67.105  1.00  0.00    -0.323 A  
HETATM   16  N   UNL     1     -10.626  16.112  66.723  1.00  0.00    -0.302 NA 
HETATM   17  C   UNL     1     -11.914  13.932  69.252  1.00  0.00    -0.357 C  
HETATM   18  N   UNL     1     -10.834  16.924  67.812  1.00  0.00    -0.323 NA 
HETATM   19  N   UNL     1     -11.309  16.233  68.840  1.00  0.00    -0.339 NA 
HETATM   20  N   UNL     1     -11.408  14.968  68.398  1.00  0.00    -0.295 NA 
ENDBRANCH  14  15
ENDBRANCH  13  14
ENDBRANCH   4  13
BRANCH   5  21
HETATM   21  O   UNL     1      -9.768   5.831  66.784  1.00  0.00    -0.138 OA 
HETATM   22  C   UNL     1      -8.857   5.529  65.737  1.00  0.00    -0.153 C  
ENDBRANCH   5  21
BRANCH   5  23
HETATM   23  N   UNL     1      -9.759   6.941  69.012  1.00  0.00    -0.150 N  
HETATM   24  C   UNL     1      -9.764   5.796  71.190  1.00  0.00    -0.210 C  
HETATM   25  C   UNL     1      -9.421   5.798  69.706  1.00  0.00    -0.148 C  
HETATM   26  O   UNL     1      -8.834   4.849  69.184  1.00  0.00    -0.090 OA 
HETATM   27  H   UNL     1     -10.174   7.725  69.514  1.00  0.00     0.000 HD 
HETATM   28  C   UNL     1      -9.929   4.405  71.786  1.00  0.00    -0.186 C  
HETATM   29  C   UNL     1      -8.803   6.644  72.022  1.00  0.00    -0.135 A  
HETATM   30  C   UNL     1      -9.255   7.231  73.219  1.00  0.00    -0.216 A  
HETATM   31  O   UNL     1     -10.612   4.202  72.784  1.00  0.00    -0.177 OA 
HETATM   32  O   UNL     1      -9.257   3.395  71.189  1.00  0.00    -0.100 OA 
HETATM   33  C   UNL     1      -8.420   8.061  73.972  1.00  0.00    -0.312 A  
HETATM   34  C   UNL     1      -7.124   8.304  73.537  1.00  0.00    -0.118 A  
HETATM   35  C   UNL     1      -6.635   7.688  72.392  1.00  0.00    -0.057 A  
HETATM   36  O   UNL     1      -6.291   9.149  74.207  1.00  0.00    -0.324 OA 
HETATM   37  H   UNL     1      -5.404   9.315  73.909  1.00  0.00     0.000 HD 
HETATM   38  C   UNL     1      -7.465   6.851  71.643  1.00  0.00    -0.085 A  
ENDBRANCH   5  23
TORSDOF 5
ENDMDL
MODEL       90
REMARK 921   NORMALIZED FREE ENERGY PREDICTED BY IDOCK:   -4.82 KCAL/MOL
REMARK 922        TOTAL FREE ENERGY PREDICTED BY IDOCK:   -7.57 KCAL/MOL
REMARK 923 INTER-LIGAND FREE ENERGY PREDICTED BY IDOCK:   -7.95 KCAL/MOL
REMARK 924 INTRA-LIGAND FREE ENERGY PREDICTED BY IDOCK:    0.37 KCAL/MOL
REMARK 927      BINDING AFFINITY PREDICTED BY RF-SCORE:    0.00 PKD
ROOT
HETATM    1  C   UNL     1      -7.517   9.665  67.745  1.00  0.00    -0.087 C  
HETATM    2  O   UNL     1      -8.714   9.934  68.491  1.00  0.00    -0.117 OA 
HETATM    3  C   UNL     1      -9.221   8.762  69.133  1.00  0.00    -0.149 C  
HETATM    4  C   UNL     1      -9.329   7.600  68.152  1.00  0.00    -0.146 C  
HETATM    5  C   UNL     1      -7.121  10.629  66.546  1.00  0.00    -0.133 C  
HETATM    6  C   UNL     1      -8.650   7.618  66.971  1.00  0.00    -0.122 C  
HETATM    7  N   UNL     1      -7.704   8.599  66.770  1.00  0.00    -0.093 N  
HETATM    8  C   UNL     1      -8.948   6.602  65.892  1.00  0.00    -0.074 C  
HETATM    9  O   UNL     1      -9.922   5.861  65.908  1.00  0.00     0.021 OA 
HETATM   10  O   UNL     1      -8.048   6.511  64.894  1.00  0.00    -0.124 OA 
HETATM   11  O   UNL     1      -7.380   8.992  64.511  1.00  0.00    -0.095 OA 
HETATM   12  C   UNL     1      -7.365   9.318  65.678  1.00  0.00    -0.093 C  
ENDROOT
BRANCH   4  13
HETATM   13  C   UNL     1     -10.341   6.565  68.612  1.00  0.00    -0.191 C  
BRANCH  13  14
HETATM   14  S   UNL     1     -10.170   6.034  70.338  1.00  0.00    -0.218 SA 
BRANCH  14  15
HETATM   15  C   UNL     1     -11.433   6.865  71.155  1.00  0.00    -0.304 A  
HETATM   16  N   UNL     1     -12.728   6.740  70.979  1.00  0.00    -0.252 NA 
HETATM   17  C   UNL     1      -9.983   8.294  72.668  1.00  0.00    -0.287 C  
HETATM   18  N   UNL     1     -13.311   7.647  71.831  1.00  0.00    -0.284 NA 
HETATM   19  N   UNL     1     -12.393   8.309  72.523  1.00  0.00    -0.331 NA 
HETATM   20  N   UNL     1     -11.215   7.816  72.109  1.00  0.00    -0.276 NA 
ENDBRANCH  14  15
ENDBRANCH  13  14
ENDBRANCH   4  13
BRANCH   5  21
HETATM   21  O   UNL     1      -5.739  11.076  66.535  1.00  0.00    -0.088 OA 
HETATM   22  C   UNL     1      -5.416  12.196  67.346  1.00  0.00    -0.124 C  
ENDBRANCH   5  21
BRANCH   5  23
HETATM   23  N   UNL     1      -8.135  11.707  66.304  1.00  0.00    -0.375 N  
HETATM   24  C   UNL     1     -10.221  12.647  65.397  1.00  0.00    -0.301 C  
HETATM   25  C   UNL     1      -9.308  11.449  65.625  1.00  0.00    -0.222 C  
HETATM   26  O   UNL     1      -9.634  10.318  65.263  1.00  0.00    -0.220 OA 
HETATM   27  H   UNL     1      -7.954  12.650  66.648  1.00  0.00     0.000 HD 
HETATM   28  C   UNL     1     -11.160  12.493  64.209  1.00  0.00    -0.356 C  
HETATM   29  C   UNL     1     -10.982  13.060  66.655  1.00  0.00    -0.301 A  
HETATM   30  C   UNL     1     -11.377  14.402  66.817  1.00  0.00    -0.360 A  
HETATM   31  O   UNL     1     -11.619  13.461  63.613  1.00  0.00    -0.370 OA 
HETATM   32  O   UNL     1     -11.501  11.234  63.853  1.00  0.00    -0.260 OA 
HETATM   33  C   UNL     1     -12.023  14.826  67.982  1.00  0.00    -0.261 A  
HETATM   34  C   UNL     1     -12.285  13.908  68.991  1.00  0.00    -0.239 A  
HETATM   35  C   UNL     1     -11.960  12.567  68.829  1.00  0.00    -0.283 A  
HETATM   36  O   UNL     1     -12.861  14.283  70.167  1.00  0.00    -0.453 OA 
HETATM   37  H   UNL     1     -13.040  13.655  70.857  1.00  0.00     0.000 HD 
HETATM   38  C   UNL     1     -11.323  12.141  67.662  1.00  0.00    -0.379 A  
ENDBRANCH   5  23
TORSDOF 5
ENDMDL
MODEL       91
REMARK 921   NORMALIZED FREE ENERGY PREDICTED BY IDOCK:   -4.78 KCAL/MOL
REMARK 922        TOTAL FREE ENERGY PREDICTED BY IDOCK:   -7.52 KCAL/MOL
REMARK 923 INTER-LIGAND FREE ENERGY PREDICTED BY IDOCK:   -7.63 KCAL/MOL
REMARK 924 INTRA-LIGAND FREE ENERGY PREDICTED BY IDOCK:    0.10 KCAL/MOL
REMARK 927      BINDING AFFINITY PREDICTED BY RF-SCORE:    0.00 PKD
ROOT
HETATM    1  C   UNL     1     -10.640   7.885  68.730  1.00  0.00    -0.127 C  
HETATM    2  O   UNL     1     -10.687   8.204  67.331  1.00  0.00    -0.269 OA 
HETATM    3  C   UNL     1      -9.848   7.345  66.557  1.00  0.00    -0.139 C  
HETATM    4  C   UNL     1      -8.445   7.269  67.145  1.00  0.00    -0.118 C  
HETATM    5  C   UNL     1     -11.015   9.006  69.792  1.00  0.00    -0.166 C  
HETATM    6  C   UNL     1      -8.205   7.651  68.432  1.00  0.00    -0.125 C  
HETATM    7  N   UNL     1      -9.281   7.904  69.253  1.00  0.00    -0.148 N  
HETATM    8  C   UNL     1      -6.790   7.819  68.937  1.00  0.00    -0.058 C  
HETATM    9  O   UNL     1      -5.807   7.840  68.209  1.00  0.00    -0.033 OA 
HETATM   10  O   UNL     1      -6.643   7.912  70.273  1.00  0.00    -0.037 OA 
HETATM   11  O   UNL     1      -8.694   9.346  70.969  1.00  0.00    -0.261 OA 
HETATM   12  C   UNL     1      -9.488   8.838  70.208  1.00  0.00    -0.174 C  
ENDROOT
BRANCH   4  13
HETATM   13  C   UNL     1      -7.417   6.859  66.105  1.00  0.00    -0.080 C  
BRANCH  13  14
HETATM   14  S   UNL     1      -8.030   6.798  64.398  1.00  0.00    -0.058 SA 
BRANCH  14  15
HETATM   15  C   UNL     1      -7.709   8.371  63.785  1.00  0.00    -0.144 A  
HETATM   16  N   UNL     1      -8.569   9.325  63.520  1.00  0.00    -0.203 NA 
HETATM   17  C   UNL     1      -5.188   8.157  63.593  1.00  0.00    -0.049 C  
HETATM   18  N   UNL     1      -7.829  10.365  63.010  1.00  0.00    -0.147 NA 
HETATM   19  N   UNL     1      -6.539  10.059  62.972  1.00  0.00    -0.125 NA 
HETATM   20  N   UNL     1      -6.458   8.813  63.466  1.00  0.00    -0.088 NA 
ENDBRANCH  14  15
ENDBRANCH  13  14
ENDBRANCH   4  13
BRANCH   5  21
HETATM   21  O   UNL     1     -11.942   8.595  70.832  1.00  0.00    -0.276 OA 
HETATM   22  C   UNL     1     -12.722   9.615  71.440  1.00  0.00    -0.374 C  
ENDBRANCH   5  21
BRANCH   5  23
HETATM   23  N   UNL     1     -11.323  10.330  69.159  1.00  0.00    -0.374 N  
HETATM   24  C   UNL     1     -10.775  12.545  68.238  1.00  0.00    -0.246 C  
HETATM   25  C   UNL     1     -10.319  11.213  68.818  1.00  0.00    -0.205 C  
HETATM   26  O   UNL     1      -9.123  10.936  68.923  1.00  0.00    -0.171 OA 
HETATM   27  H   UNL     1     -12.293  10.584  68.977  1.00  0.00     0.000 HD 
HETATM   28  C   UNL     1      -9.767  13.673  68.411  1.00  0.00    -0.217 C  
HETATM   29  C   UNL     1     -11.237  12.433  66.786  1.00  0.00    -0.363 A  
HETATM   30  C   UNL     1     -12.194  13.340  66.292  1.00  0.00    -0.440 A  
HETATM   31  O   UNL     1     -10.107  14.852  68.428  1.00  0.00    -0.215 OA 
HETATM   32  O   UNL     1      -8.465  13.326  68.511  1.00  0.00    -0.148 OA 
HETATM   33  C   UNL     1     -12.682  13.228  64.987  1.00  0.00    -0.438 A  
HETATM   34  C   UNL     1     -12.210  12.214  64.164  1.00  0.00    -0.413 A  
HETATM   35  C   UNL     1     -11.221  11.346  64.609  1.00  0.00    -0.220 A  
HETATM   36  O   UNL     1     -12.695  12.031  62.905  1.00  0.00    -0.664 OA 
HETATM   37  H   UNL     1     -12.372  11.336  62.342  1.00  0.00     0.000 HD 
HETATM   38  C   UNL     1     -10.726  11.461  65.909  1.00  0.00    -0.311 A  
ENDBRANCH   5  23
TORSDOF 5
ENDMDL
MODEL       92
REMARK 921   NORMALIZED FREE ENERGY PREDICTED BY IDOCK:   -4.77 KCAL/MOL
REMARK 922        TOTAL FREE ENERGY PREDICTED BY IDOCK:   -7.51 KCAL/MOL
REMARK 923 INTER-LIGAND FREE ENERGY PREDICTED BY IDOCK:   -6.47 KCAL/MOL
REMARK 924 INTRA-LIGAND FREE ENERGY PREDICTED BY IDOCK:   -1.04 KCAL/MOL
REMARK 927      BINDING AFFINITY PREDICTED BY RF-SCORE:    0.00 PKD
ROOT
HETATM    1  C   UNL     1      -9.881   6.408  66.813  1.00  0.00    -0.162 C  
HETATM    2  O   UNL     1     -10.810   7.188  67.581  1.00  0.00    -0.237 OA 
HETATM    3  C   UNL     1     -10.782   8.569  67.213  1.00  0.00    -0.149 C  
HETATM    4  C   UNL     1      -9.357   9.107  67.201  1.00  0.00    -0.178 C  
HETATM    5  C   UNL     1      -9.348   5.035  67.409  1.00  0.00    -0.127 C  
HETATM    6  C   UNL     1      -8.290   8.259  67.153  1.00  0.00    -0.123 C  
HETATM    7  N   UNL     1      -8.522   6.925  66.904  1.00  0.00    -0.114 N  
HETATM    8  C   UNL     1      -6.887   8.767  67.397  1.00  0.00    -0.071 C  
HETATM    9  O   UNL     1      -6.636   9.876  67.850  1.00  0.00    -0.063 OA 
HETATM   10  O   UNL     1      -5.885   7.937  67.049  1.00  0.00    -0.042 OA 
HETATM   11  O   UNL     1      -6.810   5.612  67.748  1.00  0.00    -0.057 OA 
HETATM   12  C   UNL     1      -7.953   5.802  67.395  1.00  0.00    -0.102 C  
ENDROOT
BRANCH   4  13
HETATM   13  C   UNL     1      -9.321  10.615  67.374  1.00  0.00    -0.143 C  
BRANCH  13  14
HETATM   14  S   UNL     1     -10.900  11.461  67.088  1.00  0.00    -0.281 SA 
BRANCH  14  15
HETATM   15  C   UNL     1     -11.458  11.843  68.667  1.00  0.00    -0.294 A  
HETATM   16  N   UNL     1     -11.857  11.015  69.604  1.00  0.00    -0.313 NA 
HETATM   17  C   UNL     1     -11.252  14.366  68.506  1.00  0.00    -0.265 C  
HETATM   18  N   UNL     1     -12.247  11.804  70.660  1.00  0.00    -0.380 NA 
HETATM   19  N   UNL     1     -12.082  13.090  70.381  1.00  0.00    -0.355 NA 
HETATM   20  N   UNL     1     -11.579  13.119  69.135  1.00  0.00    -0.297 NA 
ENDBRANCH  14  15
ENDBRANCH  13  14
ENDBRANCH   4  13
BRANCH   5  21
HETATM   21  O   UNL     1      -9.389   3.902  66.501  1.00  0.00    -0.161 OA 
HETATM   22  C   UNL     1      -9.775   4.164  65.159  1.00  0.00    -0.197 C  
ENDBRANCH   5  21
BRANCH   5  23
HETATM   23  N   UNL     1      -9.866   4.756  68.789  1.00  0.00    -0.165 N  
HETATM   24  C   UNL     1      -9.923   3.602  70.961  1.00  0.00    -0.086 C  
HETATM   25  C   UNL     1      -9.259   3.828  69.610  1.00  0.00    -0.152 C  
HETATM   26  O   UNL     1      -8.217   3.248  69.303  1.00  0.00    -0.058 OA 
HETATM   27  H   UNL     1     -10.684   5.263  69.128  1.00  0.00     0.000 HD 
HETATM   28  C   UNL     1      -9.626   2.241  71.577  1.00  0.00    -0.144 C  
HETATM   29  C   UNL     1      -9.650   4.731  71.953  1.00  0.00    -0.206 A  
HETATM   30  C   UNL     1     -10.588   5.005  72.967  1.00  0.00    -0.278 A  
HETATM   31  O   UNL     1     -10.382   1.714  72.386  1.00  0.00    -0.143 OA 
HETATM   32  O   UNL     1      -8.466   1.645  71.222  1.00  0.00    -0.046 OA 
HETATM   33  C   UNL     1     -10.397   6.069  73.854  1.00  0.00    -0.293 A  
HETATM   34  C   UNL     1      -9.262   6.860  73.737  1.00  0.00    -0.180 A  
HETATM   35  C   UNL     1      -8.293   6.572  72.785  1.00  0.00    -0.116 A  
HETATM   36  O   UNL     1      -9.059   7.941  74.542  1.00  0.00    -0.371 OA 
HETATM   37  H   UNL     1      -8.282   8.483  74.462  1.00  0.00     0.000 HD 
HETATM   38  C   UNL     1      -8.478   5.505  71.905  1.00  0.00    -0.123 A  
ENDBRANCH   5  23
TORSDOF 5
ENDMDL
MODEL       93
REMARK 921   NORMALIZED FREE ENERGY PREDICTED BY IDOCK:   -4.76 KCAL/MOL
REMARK 922        TOTAL FREE ENERGY PREDICTED BY IDOCK:   -7.50 KCAL/MOL
REMARK 923 INTER-LIGAND FREE ENERGY PREDICTED BY IDOCK:   -8.34 KCAL/MOL
REMARK 924 INTRA-LIGAND FREE ENERGY PREDICTED BY IDOCK:    0.84 KCAL/MOL
REMARK 927      BINDING AFFINITY PREDICTED BY RF-SCORE:    0.00 PKD
ROOT
HETATM    1  C   UNL     1     -11.859  12.008  66.927  1.00  0.00    -0.173 C  
HETATM    2  O   UNL     1     -11.176  10.945  67.608  1.00  0.00    -0.296 OA 
HETATM    3  C   UNL     1     -11.801  10.616  68.850  1.00  0.00    -0.145 C  
HETATM    4  C   UNL     1     -12.040  11.862  69.694  1.00  0.00    -0.304 C  
HETATM    5  C   UNL     1     -11.061  12.886  65.870  1.00  0.00    -0.283 C  
HETATM    6  C   UNL     1     -12.019  13.102  69.129  1.00  0.00    -0.281 C  
HETATM    7  N   UNL     1     -11.988  13.199  67.755  1.00  0.00    -0.339 N  
HETATM    8  C   UNL     1     -12.000  14.344  69.991  1.00  0.00    -0.334 C  
HETATM    9  O   UNL     1     -11.790  14.330  71.197  1.00  0.00    -0.311 OA 
HETATM   10  O   UNL     1     -12.269  15.507  69.366  1.00  0.00    -0.312 OA 
HETATM   11  O   UNL     1     -11.062  15.213  67.085  1.00  0.00    -0.329 OA 
HETATM   12  C   UNL     1     -11.343  14.046  66.924  1.00  0.00    -0.329 C  
ENDROOT
BRANCH   4  13
HETATM   13  C   UNL     1     -12.162  11.530  71.171  1.00  0.00    -0.182 C  
BRANCH  13  14
HETATM   14  S   UNL     1     -13.401  10.267  71.577  1.00  0.00    -0.273 SA 
BRANCH  14  15
HETATM   15  C   UNL     1     -12.470   8.852  71.868  1.00  0.00    -0.378 A  
HETATM   16  N   UNL     1     -11.193   8.772  72.161  1.00  0.00    -0.362 NA 
HETATM   17  C   UNL     1     -14.320   7.148  71.533  1.00  0.00    -0.338 C  
HETATM   18  N   UNL     1     -10.914   7.429  72.253  1.00  0.00    -0.240 NA 
HETATM   19  N   UNL     1     -12.000   6.700  72.030  1.00  0.00    -0.323 NA 
HETATM   20  N   UNL     1     -12.980   7.589  71.797  1.00  0.00    -0.340 NA 
ENDBRANCH  14  15
ENDBRANCH  13  14
ENDBRANCH   4  13
BRANCH   5  21
HETATM   21  O   UNL     1     -11.730  13.092  64.597  1.00  0.00    -0.332 OA 
HETATM   22  C   UNL     1     -11.238  12.360  63.484  1.00  0.00    -0.469 C  
ENDBRANCH   5  21
BRANCH   5  23
HETATM   23  N   UNL     1      -9.614  12.506  65.769  1.00  0.00    -0.410 N  
HETATM   24  C   UNL     1      -7.313  12.238  66.598  1.00  0.00     0.273 C  
HETATM   25  C   UNL     1      -8.770  12.599  66.856  1.00  0.00    -0.175 C  
HETATM   26  O   UNL     1      -9.164  12.905  67.982  1.00  0.00    -0.199 OA 
HETATM   27  H   UNL     1      -9.246  12.173  64.878  1.00  0.00     0.000 HD 
HETATM   28  C   UNL     1      -6.335  12.875  67.577  1.00  0.00    -0.158 C  
HETATM   29  C   UNL     1      -7.085  10.732  66.488  1.00  0.00    -0.138 A  
HETATM   30  C   UNL     1      -6.018  10.248  65.708  1.00  0.00    -0.105 A  
HETATM   31  O   UNL     1      -5.160  13.073  67.286  1.00  0.00    -0.325 OA 
HETATM   32  O   UNL     1      -6.807  13.183  68.806  1.00  0.00    -0.093 OA 
HETATM   33  C   UNL     1      -5.818   8.874  65.538  1.00  0.00    -0.051 A  
HETATM   34  C   UNL     1      -6.680   7.976  66.154  1.00  0.00    -0.054 A  
HETATM   35  C   UNL     1      -7.702   8.429  66.978  1.00  0.00    -0.093 A  
HETATM   36  O   UNL     1      -6.559   6.631  65.973  1.00  0.00    -0.042 OA 
HETATM   37  H   UNL     1      -7.148   6.017  66.395  1.00  0.00     0.000 HD 
HETATM   38  C   UNL     1      -7.898   9.800  67.156  1.00  0.00    -0.099 A  
ENDBRANCH   5  23
TORSDOF 5
ENDMDL
MODEL       94
REMARK 921   NORMALIZED FREE ENERGY PREDICTED BY IDOCK:   -4.73 KCAL/MOL
REMARK 922        TOTAL FREE ENERGY PREDICTED BY IDOCK:   -7.46 KCAL/MOL
REMARK 923 INTER-LIGAND FREE ENERGY PREDICTED BY IDOCK:   -7.97 KCAL/MOL
REMARK 924 INTRA-LIGAND FREE ENERGY PREDICTED BY IDOCK:    0.51 KCAL/MOL
REMARK 927      BINDING AFFINITY PREDICTED BY RF-SCORE:    0.00 PKD
ROOT
HETATM    1  C   UNL     1      -8.512   9.888  67.899  1.00  0.00    -0.121 C  
HETATM    2  O   UNL     1      -9.643  10.660  67.467  1.00  0.00    -0.159 OA 
HETATM    3  C   UNL     1     -10.170  10.190  66.225  1.00  0.00    -0.219 C  
HETATM    4  C   UNL     1      -9.070  10.037  65.182  1.00  0.00    -0.247 C  
HETATM    5  C   UNL     1      -7.464  10.544  68.896  1.00  0.00    -0.104 C  
HETATM    6  C   UNL     1      -7.760   9.976  65.554  1.00  0.00    -0.135 C  
HETATM    7  N   UNL     1      -7.461   9.843  66.891  1.00  0.00    -0.091 N  
HETATM    8  C   UNL     1      -6.658  10.080  64.523  1.00  0.00    -0.129 C  
HETATM    9  O   UNL     1      -6.843  10.431  63.365  1.00  0.00    -0.119 OA 
HETATM   10  O   UNL     1      -5.425   9.724  64.932  1.00  0.00    -0.053 OA 
HETATM   11  O   UNL     1      -5.343  10.657  67.354  1.00  0.00    -0.040 OA 
HETATM   12  C   UNL     1      -6.481  10.374  67.655  1.00  0.00    -0.058 C  
ENDROOT
BRANCH   4  13
HETATM   13  C   UNL     1      -9.619  10.094  63.768  1.00  0.00    -0.223 C  
BRANCH  13  14
HETATM   14  S   UNL     1      -9.903  11.764  63.118  1.00  0.00    -0.187 SA 
BRANCH  14  15
HETATM   15  C   UNL     1     -11.366  12.259  63.871  1.00  0.00    -0.429 A  
HETATM   16  N   UNL     1     -12.526  11.645  63.863  1.00  0.00    -0.223 NA 
HETATM   17  C   UNL     1     -10.516  14.422  64.889  1.00  0.00    -0.423 C  
HETATM   18  N   UNL     1     -13.385  12.459  64.562  1.00  0.00    -0.623 NA 
HETATM   19  N   UNL     1     -12.763  13.546  64.999  1.00  0.00    -0.681 NA 
HETATM   20  N   UNL     1     -11.495  13.421  64.576  1.00  0.00    -0.356 NA 
ENDBRANCH  14  15
ENDBRANCH  13  14
ENDBRANCH   4  13
BRANCH   5  21
HETATM   21  O   UNL     1      -7.093   9.727  70.039  1.00  0.00    -0.083 OA 
HETATM   22  C   UNL     1      -8.151   9.161  70.798  1.00  0.00    -0.174 C  
ENDBRANCH   5  21
BRANCH   5  23
HETATM   23  N   UNL     1      -7.781  11.974  69.219  1.00  0.00    -0.328 N  
HETATM   24  C   UNL     1      -8.092  14.361  68.710  1.00  0.00    -0.127 C  
HETATM   25  C   UNL     1      -7.817  12.941  68.235  1.00  0.00    -0.142 C  
HETATM   26  O   UNL     1      -7.685  12.680  67.039  1.00  0.00    -0.123 OA 
HETATM   27  H   UNL     1      -7.974  12.238  70.185  1.00  0.00     0.000 HD 
HETATM   28  C   UNL     1      -7.571  15.440  67.770  1.00  0.00    -0.150 C  
HETATM   29  C   UNL     1      -9.561  14.595  69.062  1.00  0.00    -0.145 A  
HETATM   30  C   UNL     1      -9.896  15.568  70.022  1.00  0.00    -0.121 A  
HETATM   31  O   UNL     1      -7.297  16.569  68.165  1.00  0.00    -0.152 OA 
HETATM   32  O   UNL     1      -7.454  15.115  66.464  1.00  0.00     0.172 OA 
HETATM   33  C   UNL     1     -11.225  15.766  70.410  1.00  0.00    -0.383 A  
HETATM   34  C   UNL     1     -12.227  14.996  69.834  1.00  0.00    -0.309 A  
HETATM   35  C   UNL     1     -11.928  14.073  68.841  1.00  0.00    -0.387 A  
HETATM   36  O   UNL     1     -13.529  15.113  70.219  1.00  0.00    -0.636 OA 
HETATM   37  H   UNL     1     -14.214  14.587  69.825  1.00  0.00     0.000 HD 
HETATM   38  C   UNL     1     -10.602  13.881  68.445  1.00  0.00    -0.262 A  
ENDBRANCH   5  23
TORSDOF 5
ENDMDL
MODEL       95
REMARK 921   NORMALIZED FREE ENERGY PREDICTED BY IDOCK:   -4.73 KCAL/MOL
REMARK 922        TOTAL FREE ENERGY PREDICTED BY IDOCK:   -7.45 KCAL/MOL
REMARK 923 INTER-LIGAND FREE ENERGY PREDICTED BY IDOCK:   -6.36 KCAL/MOL
REMARK 924 INTRA-LIGAND FREE ENERGY PREDICTED BY IDOCK:   -1.09 KCAL/MOL
REMARK 927      BINDING AFFINITY PREDICTED BY RF-SCORE:    0.00 PKD
ROOT
HETATM    1  C   UNL     1      -7.991   6.265  67.682  1.00  0.00    -0.113 C  
HETATM    2  O   UNL     1      -9.166   6.915  67.172  1.00  0.00    -0.132 OA 
HETATM    3  C   UNL     1      -8.847   7.918  66.206  1.00  0.00    -0.159 C  
HETATM    4  C   UNL     1      -7.773   8.864  66.729  1.00  0.00    -0.097 C  
HETATM    5  C   UNL     1      -8.054   5.563  69.106  1.00  0.00    -0.095 C  
HETATM    6  C   UNL     1      -6.989   8.514  67.787  1.00  0.00    -0.075 C  
HETATM    7  N   UNL     1      -7.037   7.214  68.239  1.00  0.00    -0.079 N  
HETATM    8  C   UNL     1      -6.106   9.536  68.467  1.00  0.00    -0.044 C  
HETATM    9  O   UNL     1      -6.189  10.741  68.272  1.00  0.00    -0.052 OA 
HETATM   10  O   UNL     1      -5.164   9.050  69.298  1.00  0.00    -0.035 OA 
HETATM   11  O   UNL     1      -6.400   7.084  70.462  1.00  0.00    -0.037 OA 
HETATM   12  C   UNL     1      -6.993   6.689  69.483  1.00  0.00    -0.067 C  
ENDROOT
BRANCH   4  13
HETATM   13  C   UNL     1      -7.810  10.207  66.021  1.00  0.00    -0.122 C  
BRANCH  13  14
HETATM   14  S   UNL     1      -9.446  10.722  65.428  1.00  0.00    -0.230 SA 
BRANCH  14  15
HETATM   15  C   UNL     1      -9.914  11.960  66.524  1.00  0.00    -0.202 A  
HETATM   16  N   UNL     1      -9.279  12.370  67.597  1.00  0.00    -0.178 NA 
HETATM   17  C   UNL     1     -12.088  12.617  65.394  1.00  0.00    -0.462 C  
HETATM   18  N   UNL     1     -10.076  13.341  68.154  1.00  0.00    -0.235 NA 
HETATM   19  N   UNL     1     -11.173  13.531  67.433  1.00  0.00    -0.285 NA 
HETATM   20  N   UNL     1     -11.071  12.673  66.404  1.00  0.00    -0.276 NA 
ENDBRANCH  14  15
ENDBRANCH  13  14
ENDBRANCH   4  13
BRANCH   5  21
HETATM   21  O   UNL     1      -7.508   4.218  69.163  1.00  0.00    -0.054 OA 
HETATM   22  C   UNL     1      -6.170   4.045  68.720  1.00  0.00    -0.032 C  
ENDBRANCH   5  21
BRANCH   5  23
HETATM   23  N   UNL     1      -9.380   5.736  69.785  1.00  0.00    -0.145 N  
HETATM   24  C   UNL     1     -10.925   5.723  71.700  1.00  0.00    -0.308 C  
HETATM   25  C   UNL     1      -9.513   5.577  71.149  1.00  0.00    -0.159 C  
HETATM   26  O   UNL     1      -8.553   5.380  71.895  1.00  0.00    -0.128 OA 
HETATM   27  H   UNL     1     -10.199   5.975  69.228  1.00  0.00     0.000 HD 
HETATM   28  C   UNL     1     -11.151   5.003  73.022  1.00  0.00    -0.308 C  
HETATM   29  C   UNL     1     -11.386   7.177  71.774  1.00  0.00    -0.285 A  
HETATM   30  C   UNL     1     -12.759   7.475  71.680  1.00  0.00    -0.385 A  
HETATM   31  O   UNL     1     -12.265   4.633  73.379  1.00  0.00     0.046 OA 
HETATM   32  O   UNL     1     -10.072   4.818  73.815  1.00  0.00    -0.152 OA 
HETATM   33  C   UNL     1     -13.209   8.799  71.685  1.00  0.00    -0.399 A  
HETATM   34  C   UNL     1     -12.289   9.833  71.792  1.00  0.00    -0.386 A  
HETATM   35  C   UNL     1     -10.936   9.563  71.947  1.00  0.00     0.029 A  
HETATM   36  O   UNL     1     -12.674  11.139  71.745  1.00  0.00    -0.377 OA 
HETATM   37  H   UNL     1     -12.044  11.847  71.819  1.00  0.00     0.000 HD 
HETATM   38  C   UNL     1     -10.486   8.241  71.952  1.00  0.00    -0.342 A  
ENDBRANCH   5  23
TORSDOF 5
ENDMDL
MODEL       96
REMARK 921   NORMALIZED FREE ENERGY PREDICTED BY IDOCK:   -4.71 KCAL/MOL
REMARK 922        TOTAL FREE ENERGY PREDICTED BY IDOCK:   -7.43 KCAL/MOL
REMARK 923 INTER-LIGAND FREE ENERGY PREDICTED BY IDOCK:   -6.22 KCAL/MOL
REMARK 924 INTRA-LIGAND FREE ENERGY PREDICTED BY IDOCK:   -1.21 KCAL/MOL
REMARK 927      BINDING AFFINITY PREDICTED BY RF-SCORE:    0.00 PKD
ROOT
HETATM    1  C   UNL     1      -7.660   9.615  70.049  1.00  0.00    -0.147 C  
HETATM    2  O   UNL     1      -7.375   9.861  68.663  1.00  0.00    -0.072 OA 
HETATM    3  C   UNL     1      -7.917  11.106  68.217  1.00  0.00    -0.127 C  
HETATM    4  C   UNL     1      -9.386  11.235  68.598  1.00  0.00    -0.167 C  
HETATM    5  C   UNL     1      -7.663   8.119  70.584  1.00  0.00    -0.085 C  
HETATM    6  C   UNL     1      -9.930  10.443  69.564  1.00  0.00    -0.202 C  
HETATM    7  N   UNL     1      -9.087   9.675  70.336  1.00  0.00    -0.238 N  
HETATM    8  C   UNL     1     -11.427  10.387  69.766  1.00  0.00    -0.280 C  
HETATM    9  O   UNL     1     -12.237  10.854  68.976  1.00  0.00    -0.462 OA 
HETATM   10  O   UNL     1     -11.853   9.816  70.910  1.00  0.00    -0.292 OA 
HETATM   11  O   UNL     1     -10.198   7.836  71.201  1.00  0.00    -0.195 OA 
HETATM   12  C   UNL     1      -9.205   8.424  70.831  1.00  0.00    -0.160 C  
ENDROOT
BRANCH   4  13
HETATM   13  C   UNL     1     -10.118  12.219  67.700  1.00  0.00    -0.200 C  
BRANCH  13  14
HETATM   14  S   UNL     1     -10.935  11.484  66.257  1.00  0.00    -0.243 SA 
BRANCH  14  15
HETATM   15  C   UNL     1      -9.777  10.373  65.645  1.00  0.00    -0.236 A  
HETATM   16  N   UNL     1      -8.787  10.613  64.817  1.00  0.00    -0.190 NA 
HETATM   17  C   UNL     1     -10.635   8.296  66.822  1.00  0.00    -0.156 C  
HETATM   18  N   UNL     1      -8.180   9.399  64.597  1.00  0.00    -0.138 NA 
HETATM   19  N   UNL     1      -8.780   8.435  65.284  1.00  0.00    -0.150 NA 
HETATM   20  N   UNL     1      -9.776   9.043  65.949  1.00  0.00    -0.266 NA 
ENDBRANCH  14  15
ENDBRANCH  13  14
ENDBRANCH   4  13
BRANCH   5  21
HETATM   21  O   UNL     1      -6.918   7.893  71.811  1.00  0.00    -0.060 OA 
HETATM   22  C   UNL     1      -5.571   8.343  71.840  1.00  0.00    -0.040 C  
ENDBRANCH   5  21
BRANCH   5  23
HETATM   23  N   UNL     1      -7.416   7.111  69.501  1.00  0.00    -0.093 N  
HETATM   24  C   UNL     1      -7.086   4.849  68.590  1.00  0.00    -0.057 C  
HETATM   25  C   UNL     1      -7.409   5.758  69.769  1.00  0.00    -0.071 C  
HETATM   26  O   UNL     1      -7.692   5.296  70.874  1.00  0.00    -0.087 OA 
HETATM   27  H   UNL     1      -7.250   7.432  68.548  1.00  0.00     0.000 HD 
HETATM   28  C   UNL     1      -6.525   3.492  68.990  1.00  0.00    -0.033 C  
HETATM   29  C   UNL     1      -8.256   4.701  67.618  1.00  0.00    -0.100 A  
HETATM   30  C   UNL     1      -7.999   4.428  66.261  1.00  0.00    -0.099 A  
HETATM   31  O   UNL     1      -5.816   2.834  68.236  1.00  0.00    -0.022 OA 
HETATM   32  O   UNL     1      -6.871   3.017  70.207  1.00  0.00    -0.033 OA 
HETATM   33  C   UNL     1      -9.043   4.346  65.334  1.00  0.00    -0.143 A  
HETATM   34  C   UNL     1     -10.352   4.528  65.761  1.00  0.00    -0.258 A  
HETATM   35  C   UNL     1     -10.635   4.737  67.104  1.00  0.00     0.060 A  
HETATM   36  O   UNL     1     -11.397   4.512  64.888  1.00  0.00    -0.980 OA 
HETATM   37  H   UNL     1     -12.292   4.636  65.180  1.00  0.00     0.000 HD 
HETATM   38  C   UNL     1      -9.594   4.811  68.032  1.00  0.00    -0.199 A  
ENDBRANCH   5  23
TORSDOF 5
ENDMDL
MODEL       97
REMARK 921   NORMALIZED FREE ENERGY PREDICTED BY IDOCK:   -4.69 KCAL/MOL
REMARK 922        TOTAL FREE ENERGY PREDICTED BY IDOCK:   -7.41 KCAL/MOL
REMARK 923 INTER-LIGAND FREE ENERGY PREDICTED BY IDOCK:   -6.06 KCAL/MOL
REMARK 924 INTRA-LIGAND FREE ENERGY PREDICTED BY IDOCK:   -1.34 KCAL/MOL
REMARK 927      BINDING AFFINITY PREDICTED BY RF-SCORE:    0.00 PKD
ROOT
HETATM    1  C   UNL     1     -11.771  12.361  69.892  1.00  0.00    -0.266 C  
HETATM    2  O   UNL     1     -12.719  11.494  69.251  1.00  0.00    -0.048 OA 
HETATM    3  C   UNL     1     -12.755  10.199  69.853  1.00  0.00     0.254 C  
HETATM    4  C   UNL     1     -11.354   9.618  69.992  1.00  0.00    -0.239 C  
HETATM    5  C   UNL     1     -11.172  13.587  69.079  1.00  0.00    -0.269 C  
HETATM    6  C   UNL     1     -10.254  10.419  69.917  1.00  0.00    -0.141 C  
HETATM    7  N   UNL     1     -10.434  11.784  69.926  1.00  0.00     0.651 N  
HETATM    8  C   UNL     1      -8.870   9.823  69.799  1.00  0.00    -0.224 C  
HETATM    9  O   UNL     1      -8.657   8.644  69.553  1.00  0.00    -0.126 OA 
HETATM   10  O   UNL     1      -7.839  10.662  70.021  1.00  0.00     0.013 OA 
HETATM   11  O   UNL     1      -8.655  12.862  68.907  1.00  0.00     0.105 OA 
HETATM   12  C   UNL     1      -9.811  12.781  69.260  1.00  0.00     0.680 C  
ENDROOT
BRANCH   4  13
HETATM   13  C   UNL     1     -11.378   8.102  70.086  1.00  0.00    -0.071 C  
BRANCH  13  14
HETATM   14  S   UNL     1     -11.624   7.436  71.756  1.00  0.00    -0.283 SA 
BRANCH  14  15
HETATM   15  C   UNL     1     -10.042   7.401  72.425  1.00  0.00    -0.187 A  
HETATM   16  N   UNL     1      -9.443   8.332  73.131  1.00  0.00    -0.237 NA 
HETATM   17  C   UNL     1      -9.370   5.098  71.599  1.00  0.00    -0.147 C  
HETATM   18  N   UNL     1      -8.182   7.850  73.391  1.00  0.00    -0.173 NA 
HETATM   19  N   UNL     1      -8.014   6.644  72.865  1.00  0.00    -0.103 NA 
HETATM   20  N   UNL     1      -9.181   6.355  72.266  1.00  0.00    -0.140 NA 
ENDBRANCH  14  15
ENDBRANCH  13  14
ENDBRANCH   4  13
BRANCH   5  21
HETATM   21  O   UNL     1     -11.180  14.862  69.776  1.00  0.00    -0.259 OA 
HETATM   22  C   UNL     1     -12.435  15.328  70.253  1.00  0.00    -0.363 C  
ENDBRANCH   5  21
BRANCH   5  23
HETATM   23  N   UNL     1     -11.654  13.640  67.661  1.00  0.00    -0.325 N  
HETATM   24  C   UNL     1     -11.757  14.531  65.369  1.00  0.00    -0.354 C  
HETATM   25  C   UNL     1     -11.135  14.546  66.759  1.00  0.00    -0.325 C  
HETATM   26  O   UNL     1     -10.194  15.292  67.031  1.00  0.00    -0.252 OA 
HETATM   27  H   UNL     1     -12.381  12.993  67.355  1.00  0.00     0.000 HD 
HETATM   28  C   UNL     1     -11.610  15.843  64.611  1.00  0.00    -0.200 C  
HETATM   29  C   UNL     1     -11.290  13.347  64.523  1.00  0.00    -0.391 A  
HETATM   30  C   UNL     1     -12.135  12.839  63.518  1.00  0.00    -0.642 A  
HETATM   31  O   UNL     1     -12.389  16.171  63.722  1.00  0.00    -0.864 OA 
HETATM   32  O   UNL     1     -10.557  16.626  64.933  1.00  0.00    -0.694 OA 
HETATM   33  C   UNL     1     -11.764  11.720  62.766  1.00  0.00     0.566 A  
HETATM   34  C   UNL     1     -10.542  11.107  63.010  1.00  0.00     0.017 A  
HETATM   35  C   UNL     1      -9.666  11.626  63.954  1.00  0.00    -0.253 A  
HETATM   36  O   UNL     1     -10.161   9.982  62.343  1.00  0.00    -0.613 OA 
HETATM   37  H   UNL     1      -9.324   9.563  62.510  1.00  0.00     0.000 HD 
HETATM   38  C   UNL     1     -10.031  12.749  64.700  1.00  0.00    -0.158 A  
ENDBRANCH   5  23
TORSDOF 5
ENDMDL
MODEL       98
REMARK 921   NORMALIZED FREE ENERGY PREDICTED BY IDOCK:   -4.68 KCAL/MOL
REMARK 922        TOTAL FREE ENERGY PREDICTED BY IDOCK:   -7.39 KCAL/MOL
REMARK 923 INTER-LIGAND FREE ENERGY PREDICTED BY IDOCK:   -6.95 KCAL/MOL
REMARK 924 INTRA-LIGAND FREE ENERGY PREDICTED BY IDOCK:   -0.44 KCAL/MOL
REMARK 927      BINDING AFFINITY PREDICTED BY RF-SCORE:    0.00 PKD
ROOT
HETATM    1  C   UNL     1      -9.555  10.223  67.338  1.00  0.00    -0.158 C  
HETATM    2  O   UNL     1     -10.291  11.163  68.136  1.00  0.00    -0.176 OA 
HETATM    3  C   UNL     1     -10.250  12.481  67.585  1.00  0.00    -0.219 C  
HETATM    4  C   UNL     1      -8.821  12.900  67.263  1.00  0.00    -0.206 C  
HETATM    5  C   UNL     1      -9.005   8.897  68.018  1.00  0.00    -0.140 C  
HETATM    6  C   UNL     1      -7.829  11.971  67.155  1.00  0.00    -0.168 C  
HETATM    7  N   UNL     1      -8.175  10.639  67.130  1.00  0.00    -0.120 N  
HETATM    8  C   UNL     1      -6.378  12.394  67.091  1.00  0.00    -0.089 C  
HETATM    9  O   UNL     1      -5.990  13.527  67.341  1.00  0.00    -0.341 OA 
HETATM   10  O   UNL     1      -5.500  11.451  66.698  1.00  0.00    -0.109 OA 
HETATM   11  O   UNL     1      -6.418   9.311  67.849  1.00  0.00    -0.058 OA 
HETATM   12  C   UNL     1      -7.593   9.545  67.668  1.00  0.00    -0.094 C  
ENDROOT
BRANCH   4  13
HETATM   13  C   UNL     1      -8.671  14.411  67.221  1.00  0.00    -0.215 C  
BRANCH  13  14
HETATM   14  S   UNL     1      -8.836  15.246  68.823  1.00  0.00    -0.205 SA 
BRANCH  14  15
HETATM   15  C   UNL     1      -9.164  16.881  68.407  1.00  0.00    -0.253 A  
HETATM   16  N   UNL     1     -10.331  17.475  68.329  1.00  0.00    -0.359 NA 
HETATM   17  C   UNL     1      -6.769  17.626  68.024  1.00  0.00    -0.187 C  
HETATM   18  N   UNL     1     -10.070  18.760  67.916  1.00  0.00    -0.348 NA 
HETATM   19  N   UNL     1      -8.768  18.953  67.753  1.00  0.00    -0.288 NA 
HETATM   20  N   UNL     1      -8.195  17.780  68.069  1.00  0.00    -0.241 NA 
ENDBRANCH  14  15
ENDBRANCH  13  14
ENDBRANCH   4  13
BRANCH   5  21
HETATM   21  O   UNL     1      -9.267   7.667  67.291  1.00  0.00    -0.127 OA 
HETATM   22  C   UNL     1      -8.140   6.913  66.869  1.00  0.00    -0.109 C  
ENDBRANCH   5  21
BRANCH   5  23
HETATM   23  N   UNL     1      -9.288   8.833  69.489  1.00  0.00    -0.156 N  
HETATM   24  C   UNL     1     -10.571   8.195  71.490  1.00  0.00    -0.282 C  
HETATM   25  C   UNL     1     -10.366   8.127  69.982  1.00  0.00    -0.215 C  
HETATM   26  O   UNL     1     -11.096   7.439  69.267  1.00  0.00    -0.127 OA 
HETATM   27  H   UNL     1      -8.673   9.322  70.138  1.00  0.00     0.000 HD 
HETATM   28  C   UNL     1     -12.004   7.931  71.932  1.00  0.00    -0.305 C  
HETATM   29  C   UNL     1      -9.583   7.323  72.263  1.00  0.00    -0.173 A  
HETATM   30  C   UNL     1      -9.224   7.682  73.576  1.00  0.00    -0.331 A  
HETATM   31  O   UNL     1     -12.448   8.365  72.990  1.00  0.00    -0.205 OA 
HETATM   32  O   UNL     1     -12.766   7.162  71.123  1.00  0.00    -0.367 OA 
HETATM   33  C   UNL     1      -8.278   6.939  74.290  1.00  0.00    -0.159 A  
HETATM   34  C   UNL     1      -7.690   5.829  73.697  1.00  0.00    -0.101 A  
HETATM   35  C   UNL     1      -8.073   5.421  72.426  1.00  0.00    -0.107 A  
HETATM   36  O   UNL     1      -6.724   5.108  74.330  1.00  0.00    -0.072 OA 
HETATM   37  H   UNL     1      -6.322   4.348  73.924  1.00  0.00     0.000 HD 
HETATM   38  C   UNL     1      -9.025   6.156  71.715  1.00  0.00    -0.141 A  
ENDBRANCH   5  23
TORSDOF 5
ENDMDL
MODEL       99
REMARK 921   NORMALIZED FREE ENERGY PREDICTED BY IDOCK:   -4.68 KCAL/MOL
REMARK 922        TOTAL FREE ENERGY PREDICTED BY IDOCK:   -7.39 KCAL/MOL
REMARK 923 INTER-LIGAND FREE ENERGY PREDICTED BY IDOCK:   -7.51 KCAL/MOL
REMARK 924 INTRA-LIGAND FREE ENERGY PREDICTED BY IDOCK:    0.12 KCAL/MOL
REMARK 927      BINDING AFFINITY PREDICTED BY RF-SCORE:    0.00 PKD
ROOT
HETATM    1  C   UNL     1      -8.726   8.897  71.307  1.00  0.00    -0.215 C  
HETATM    2  O   UNL     1      -8.718   8.917  69.872  1.00  0.00    -0.126 OA 
HETATM    3  C   UNL     1      -9.441  10.032  69.347  1.00  0.00    -0.223 C  
HETATM    4  C   UNL     1     -10.824  10.138  69.978  1.00  0.00    -0.361 C  
HETATM    5  C   UNL     1      -8.497   7.518  72.062  1.00  0.00    -0.107 C  
HETATM    6  C   UNL     1     -11.111   9.493  71.144  1.00  0.00    -0.379 C  
HETATM    7  N   UNL     1     -10.077   8.920  71.850  1.00  0.00    -0.340 N  
HETATM    8  C   UNL     1     -12.537   9.384  71.636  1.00  0.00    -0.375 C  
HETATM    9  O   UNL     1     -13.514   9.659  70.952  1.00  0.00    -0.272 OA 
HETATM   10  O   UNL     1     -12.696   8.994  72.916  1.00  0.00    -0.276 OA 
HETATM   11  O   UNL     1     -10.844   7.195  73.192  1.00  0.00    -0.300 OA 
HETATM   12  C   UNL     1      -9.991   7.768  72.550  1.00  0.00    -0.225 C  
ENDROOT
BRANCH   4  13
HETATM   13  C   UNL     1     -11.791  10.908  69.094  1.00  0.00    -0.317 C  
BRANCH  13  14
HETATM   14  S   UNL     1     -11.397  12.664  68.869  1.00  0.00    -0.314 SA 
BRANCH  14  15
HETATM   15  C   UNL     1     -11.700  12.947  67.202  1.00  0.00    -0.377 A  
HETATM   16  N   UNL     1     -12.139  12.096  66.305  1.00  0.00    -0.589 NA 
HETATM   17  C   UNL     1     -11.023  15.392  67.139  1.00  0.00    -0.317 C  
HETATM   18  N   UNL     1     -12.170  12.786  65.117  1.00  0.00    -0.454 NA 
HETATM   19  N   UNL     1     -11.766  14.038  65.282  1.00  0.00    -0.333 NA 
HETATM   20  N   UNL     1     -11.479  14.147  66.590  1.00  0.00    -0.350 NA 
ENDBRANCH  14  15
ENDBRANCH  13  14
ENDBRANCH   4  13
BRANCH   5  21
HETATM   21  O   UNL     1      -7.526   7.551  73.143  1.00  0.00    -0.081 OA 
HETATM   22  C   UNL     1      -6.437   8.452  73.005  1.00  0.00    -0.096 C  
ENDBRANCH   5  21
BRANCH   5  23
HETATM   23  N   UNL     1      -8.358   6.355  71.125  1.00  0.00    -0.122 N  
HETATM   24  C   UNL     1      -8.765   4.058  70.343  1.00  0.00    -0.124 C  
HETATM   25  C   UNL     1      -9.044   5.177  71.337  1.00  0.00    -0.144 C  
HETATM   26  O   UNL     1      -9.869   5.039  72.241  1.00  0.00    -0.157 OA 
HETATM   27  H   UNL     1      -7.745   6.437  70.314  1.00  0.00     0.000 HD 
HETATM   28  C   UNL     1      -9.041   2.663  70.887  1.00  0.00    -0.113 C  
HETATM   29  C   UNL     1      -9.456   4.274  68.997  1.00  0.00    -0.242 A  
HETATM   30  C   UNL     1      -8.889   3.727  67.831  1.00  0.00    -0.138 A  
HETATM   31  O   UNL     1      -8.481   1.668  70.438  1.00  0.00    -0.041 OA 
HETATM   32  O   UNL     1      -9.963   2.556  71.870  1.00  0.00    -0.160 OA 
HETATM   33  C   UNL     1      -9.463   3.957  66.577  1.00  0.00    -0.211 A  
HETATM   34  C   UNL     1     -10.614   4.729  66.483  1.00  0.00    -0.104 A  
HETATM   35  C   UNL     1     -11.226   5.227  67.625  1.00  0.00     1.145 A  
HETATM   36  O   UNL     1     -11.178   5.026  65.279  1.00  0.00    -0.738 OA 
HETATM   37  H   UNL     1     -11.966   5.554  65.215  1.00  0.00     0.000 HD 
HETATM   38  C   UNL     1     -10.659   4.992  68.879  1.00  0.00     0.070 A  
ENDBRANCH   5  23
TORSDOF 5
ENDMDL
MODEL      100
REMARK 921   NORMALIZED FREE ENERGY PREDICTED BY IDOCK:   -4.67 KCAL/MOL
REMARK 922        TOTAL FREE ENERGY PREDICTED BY IDOCK:   -7.38 KCAL/MOL
REMARK 923 INTER-LIGAND FREE ENERGY PREDICTED BY IDOCK:   -6.13 KCAL/MOL
REMARK 924 INTRA-LIGAND FREE ENERGY PREDICTED BY IDOCK:   -1.25 KCAL/MOL
REMARK 927      BINDING AFFINITY PREDICTED BY RF-SCORE:    0.00 PKD
ROOT
HETATM    1  C   UNL     1      -7.610   7.788  68.553  1.00  0.00    -0.105 C  
HETATM    2  O   UNL     1      -7.445   8.083  69.948  1.00  0.00    -0.075 OA 
HETATM    3  C   UNL     1      -6.925   6.967  70.674  1.00  0.00    -0.062 C  
HETATM    4  C   UNL     1      -7.718   5.700  70.380  1.00  0.00    -0.094 C  
HETATM    5  C   UNL     1      -8.656   8.630  67.704  1.00  0.00    -0.136 C  
HETATM    6  C   UNL     1      -8.521   5.618  69.282  1.00  0.00    -0.106 C  
HETATM    7  N   UNL     1      -8.442   6.613  68.333  1.00  0.00    -0.124 N  
HETATM    8  C   UNL     1      -9.498   4.474  69.122  1.00  0.00    -0.164 C  
HETATM    9  O   UNL     1      -9.785   3.696  70.022  1.00  0.00    -0.190 OA 
HETATM   10  O   UNL     1     -10.032   4.315  67.896  1.00  0.00    -0.105 OA 
HETATM   11  O   UNL     1     -10.411   6.766  67.124  1.00  0.00    -0.221 OA 
HETATM   12  C   UNL     1      -9.385   7.220  67.580  1.00  0.00    -0.128 C  
ENDROOT
BRANCH   4  13
HETATM   13  C   UNL     1      -7.582   4.677  71.495  1.00  0.00    -0.082 C  
BRANCH  13  14
HETATM   14  S   UNL     1      -8.790   4.837  72.839  1.00  0.00    -0.116 SA 
BRANCH  14  15
HETATM   15  C   UNL     1      -9.158   6.515  72.868  1.00  0.00    -0.128 A  
HETATM   16  N   UNL     1      -8.477   7.481  73.438  1.00  0.00    -0.136 NA 
HETATM   17  C   UNL     1     -11.316   6.418  71.536  1.00  0.00    -0.294 C  
HETATM   18  N   UNL     1      -9.202   8.629  73.221  1.00  0.00    -0.150 NA 
HETATM   19  N   UNL     1     -10.302   8.374  72.525  1.00  0.00    -0.321 NA 
HETATM   20  N   UNL     1     -10.274   7.051  72.293  1.00  0.00    -0.184 NA 
ENDBRANCH  14  15
ENDBRANCH  13  14
ENDBRANCH   4  13
BRANCH   5  21
HETATM   21  O   UNL     1      -8.166   9.136  66.433  1.00  0.00    -0.112 OA 
HETATM   22  C   UNL     1      -6.845   9.657  66.412  1.00  0.00    -0.084 C  
ENDBRANCH   5  21
BRANCH   5  23
HETATM   23  N   UNL     1      -9.413   9.626  68.531  1.00  0.00    -0.141 N  
HETATM   24  C   UNL     1     -11.093  11.379  68.929  1.00  0.00    -0.290 C  
HETATM   25  C   UNL     1     -10.451  10.361  67.996  1.00  0.00    -0.196 C  
HETATM   26  O   UNL     1     -10.875  10.183  66.854  1.00  0.00    -0.201 OA 
HETATM   27  H   UNL     1      -9.156   9.763  69.507  1.00  0.00     0.000 HD 
HETATM   28  C   UNL     1     -11.786  12.528  68.209  1.00  0.00    -0.340 C  
HETATM   29  C   UNL     1     -12.016  10.736  69.963  1.00  0.00    -0.427 A  
HETATM   30  C   UNL     1     -12.214  11.370  71.204  1.00  0.00    -0.330 A  
HETATM   31  O   UNL     1     -11.953  13.621  68.740  1.00  0.00    -0.345 OA 
HETATM   32  O   UNL     1     -12.247  12.285  66.962  1.00  0.00    -0.522 OA 
HETATM   33  C   UNL     1     -13.005  10.780  72.195  1.00  0.00    -0.301 A  
HETATM   34  C   UNL     1     -13.609   9.554  71.946  1.00  0.00    -0.391 A  
HETATM   35  C   UNL     1     -13.479   8.939  70.708  1.00  0.00     0.331 A  
HETATM   36  O   UNL     1     -14.343   8.913  72.899  1.00  0.00    -1.050 OA 
HETATM   37  H   UNL     1     -14.756   8.075  72.729  1.00  0.00     0.000 HD 
HETATM   38  C   UNL     1     -12.697   9.532  69.715  1.00  0.00     1.184 A  
ENDBRANCH   5  23
TORSDOF 5
ENDMDL
MODEL      101
REMARK 921   NORMALIZED FREE ENERGY PREDICTED BY IDOCK:   -4.64 KCAL/MOL
REMARK 922        TOTAL FREE ENERGY PREDICTED BY IDOCK:   -7.34 KCAL/MOL
REMARK 923 INTER-LIGAND FREE ENERGY PREDICTED BY IDOCK:   -7.75 KCAL/MOL
REMARK 924 INTRA-LIGAND FREE ENERGY PREDICTED BY IDOCK:    0.41 KCAL/MOL
REMARK 927      BINDING AFFINITY PREDICTED BY RF-SCORE:    0.00 PKD
ROOT
HETATM    1  C   UNL     1      -8.004   9.500  69.901  1.00  0.00    -0.149 C  
HETATM    2  O   UNL     1      -8.123   9.999  68.560  1.00  0.00    -0.099 OA 
HETATM    3  C   UNL     1      -8.821  11.245  68.512  1.00  0.00    -0.159 C  
HETATM    4  C   UNL     1     -10.133  11.172  69.283  1.00  0.00    -0.068 C  
HETATM    5  C   UNL     1      -7.793   7.942  70.129  1.00  0.00    -0.097 C  
HETATM    6  C   UNL     1     -10.354  10.182  70.194  1.00  0.00    -0.224 C  
HETATM    7  N   UNL     1      -9.298   9.377  70.559  1.00  0.00    -0.255 N  
HETATM    8  C   UNL     1     -11.733   9.954  70.769  1.00  0.00    -0.341 C  
HETATM    9  O   UNL     1     -12.749  10.468  70.320  1.00  0.00    -0.310 OA 
HETATM   10  O   UNL     1     -11.801   9.163  71.857  1.00  0.00    -0.354 OA 
HETATM   11  O   UNL     1     -10.045   7.324  71.328  1.00  0.00    -0.190 OA 
HETATM   12  C   UNL     1      -9.219   8.055  70.826  1.00  0.00    -0.157 C  
ENDROOT
BRANCH   4  13
HETATM   13  C   UNL     1     -11.126  12.219  68.809  1.00  0.00    -0.251 C  
BRANCH  13  14
HETATM   14  S   UNL     1     -10.452  13.460  67.671  1.00  0.00    -0.243 SA 
BRANCH  14  15
HETATM   15  C   UNL     1     -11.576  13.485  66.371  1.00  0.00    -0.350 A  
HETATM   16  N   UNL     1     -12.497  12.595  66.083  1.00  0.00    -0.434 NA 
HETATM   17  C   UNL     1     -10.839  15.673  65.319  1.00  0.00    -0.406 C  
HETATM   18  N   UNL     1     -13.101  13.042  64.933  1.00  0.00    -0.765 NA 
HETATM   19  N   UNL     1     -12.570  14.187  64.527  1.00  0.00    -0.675 NA 
HETATM   20  N   UNL     1     -11.619  14.474  65.432  1.00  0.00    -0.349 NA 
ENDBRANCH  14  15
ENDBRANCH  13  14
ENDBRANCH   4  13
BRANCH   5  21
HETATM   21  O   UNL     1      -6.730   7.584  71.052  1.00  0.00    -0.043 OA 
HETATM   22  C   UNL     1      -5.866   8.628  71.477  1.00  0.00    -0.047 C  
ENDBRANCH   5  21
BRANCH   5  23
HETATM   23  N   UNL     1      -7.810   7.156  68.851  1.00  0.00    -0.113 N  
HETATM   24  C   UNL     1      -8.869   6.045  66.928  1.00  0.00    -0.116 C  
HETATM   25  C   UNL     1      -8.988   6.904  68.180  1.00  0.00    -0.123 C  
HETATM   26  O   UNL     1     -10.070   7.378  68.530  1.00  0.00    -0.164 OA 
HETATM   27  H   UNL     1      -6.933   6.801  68.471  1.00  0.00     0.000 HD 
HETATM   28  C   UNL     1     -10.152   5.317  66.552  1.00  0.00    -0.229 C  
HETATM   29  C   UNL     1      -8.296   6.809  65.736  1.00  0.00    -0.143 A  
HETATM   30  C   UNL     1      -7.586   6.110  64.741  1.00  0.00    -0.092 A  
HETATM   31  O   UNL     1     -10.144   4.283  65.892  1.00  0.00    -0.224 OA 
HETATM   32  O   UNL     1     -11.317   5.878  66.946  1.00  0.00    -0.052 OA 
HETATM   33  C   UNL     1      -6.997   6.787  63.669  1.00  0.00    -0.056 A  
HETATM   34  C   UNL     1      -7.123   8.167  63.580  1.00  0.00    -0.082 A  
HETATM   35  C   UNL     1      -7.869   8.871  64.515  1.00  0.00    -0.126 A  
HETATM   36  O   UNL     1      -6.521   8.877  62.585  1.00  0.00    -0.095 OA 
HETATM   37  H   UNL     1      -6.607   9.821  62.524  1.00  0.00     0.000 HD 
HETATM   38  C   UNL     1      -8.465   8.196  65.582  1.00  0.00    -0.170 A  
ENDBRANCH   5  23
TORSDOF 5
ENDMDL
MODEL      102
REMARK 921   NORMALIZED FREE ENERGY PREDICTED BY IDOCK:   -4.61 KCAL/MOL
REMARK 922        TOTAL FREE ENERGY PREDICTED BY IDOCK:   -7.30 KCAL/MOL
REMARK 923 INTER-LIGAND FREE ENERGY PREDICTED BY IDOCK:   -7.71 KCAL/MOL
REMARK 924 INTRA-LIGAND FREE ENERGY PREDICTED BY IDOCK:    0.41 KCAL/MOL
REMARK 927      BINDING AFFINITY PREDICTED BY RF-SCORE:    0.00 PKD
ROOT
HETATM    1  C   UNL     1     -11.639  12.229  66.027  1.00  0.00    -0.393 C  
HETATM    2  O   UNL     1     -11.531  11.056  66.847  1.00  0.00    -0.384 OA 
HETATM    3  C   UNL     1     -12.160  11.231  68.118  1.00  0.00     0.064 C  
HETATM    4  C   UNL     1     -11.700  12.520  68.788  1.00  0.00    -0.371 C  
HETATM    5  C   UNL     1     -10.577  12.462  64.869  1.00  0.00    -0.294 C  
HETATM    6  C   UNL     1     -11.103  13.508  68.064  1.00  0.00    -0.258 C  
HETATM    7  N   UNL     1     -11.112  13.414  66.690  1.00  0.00    -0.291 N  
HETATM    8  C   UNL     1     -10.421  14.668  68.754  1.00  0.00    -0.246 C  
HETATM    9  O   UNL     1     -10.173  14.694  69.952  1.00  0.00     0.012 OA 
HETATM   10  O   UNL     1     -10.118  15.727  67.979  1.00  0.00    -0.225 OA 
HETATM   11  O   UNL     1      -9.354  14.605  65.764  1.00  0.00    -0.215 OA 
HETATM   12  C   UNL     1     -10.184  13.723  65.757  1.00  0.00    -0.311 C  
ENDROOT
BRANCH   4  13
HETATM   13  C   UNL     1     -11.881  12.469  70.295  1.00  0.00    -0.223 C  
BRANCH  13  14
HETATM   14  S   UNL     1     -13.003  11.175  70.894  1.00  0.00    -0.088 SA 
BRANCH  14  15
HETATM   15  C   UNL     1     -11.949   9.934  71.442  1.00  0.00    -0.404 A  
HETATM   16  N   UNL     1     -10.691   9.742  71.121  1.00  0.00    -0.291 NA 
HETATM   17  C   UNL     1     -13.594   8.726  72.949  1.00  0.00    -0.009 C  
HETATM   18  N   UNL     1     -10.306   8.600  71.781  1.00  0.00    -0.287 NA 
HETATM   19  N   UNL     1     -11.304   8.105  72.501  1.00  0.00    -0.391 NA 
HETATM   20  N   UNL     1     -12.334   8.944  72.299  1.00  0.00    -0.374 NA 
ENDBRANCH  14  15
ENDBRANCH  13  14
ENDBRANCH   4  13
BRANCH   5  21
HETATM   21  O   UNL     1     -11.132  12.822  63.575  1.00  0.00    -0.433 OA 
HETATM   22  C   UNL     1     -12.468  12.418  63.311  1.00  0.00    -0.337 C  
ENDBRANCH   5  21
BRANCH   5  23
HETATM   23  N   UNL     1      -9.516  11.404  64.827  1.00  0.00    -0.341 N  
HETATM   24  C   UNL     1      -7.532  10.198  65.643  1.00  0.00    -0.144 C  
HETATM   25  C   UNL     1      -8.589  11.276  65.841  1.00  0.00    -0.096 C  
HETATM   26  O   UNL     1      -8.630  11.951  66.871  1.00  0.00    -0.176 OA 
HETATM   27  H   UNL     1      -9.478  10.765  64.033  1.00  0.00     0.000 HD 
HETATM   28  C   UNL     1      -6.245  10.443  66.419  1.00  0.00    -0.087 C  
HETATM   29  C   UNL     1      -8.068   8.789  65.890  1.00  0.00    -0.110 A  
HETATM   30  C   UNL     1      -7.479   7.698  65.223  1.00  0.00    -0.083 A  
HETATM   31  O   UNL     1      -5.170   9.972  66.062  1.00  0.00    -0.040 OA 
HETATM   32  O   UNL     1      -6.338  11.179  67.549  1.00  0.00    -0.059 OA 
HETATM   33  C   UNL     1      -7.984   6.403  65.380  1.00  0.00    -0.116 A  
HETATM   34  C   UNL     1      -9.076   6.191  66.212  1.00  0.00    -0.154 A  
HETATM   35  C   UNL     1      -9.634   7.242  66.928  1.00  0.00    -0.225 A  
HETATM   36  O   UNL     1      -9.637   4.958  66.354  1.00  0.00    -0.143 OA 
HETATM   37  H   UNL     1     -10.384   4.813  66.924  1.00  0.00     0.000 HD 
HETATM   38  C   UNL     1      -9.126   8.534  66.779  1.00  0.00    -0.186 A  
ENDBRANCH   5  23
TORSDOF 5
ENDMDL
MODEL      103
REMARK 921   NORMALIZED FREE ENERGY PREDICTED BY IDOCK:   -4.60 KCAL/MOL
REMARK 922        TOTAL FREE ENERGY PREDICTED BY IDOCK:   -7.29 KCAL/MOL
REMARK 923 INTER-LIGAND FREE ENERGY PREDICTED BY IDOCK:   -8.39 KCAL/MOL
REMARK 924 INTRA-LIGAND FREE ENERGY PREDICTED BY IDOCK:    1.11 KCAL/MOL
REMARK 927      BINDING AFFINITY PREDICTED BY RF-SCORE:    0.00 PKD
ROOT
HETATM    1  C   UNL     1      -9.278  11.404  66.694  1.00  0.00    -0.181 C  
HETATM    2  O   UNL     1     -10.040  11.851  67.825  1.00  0.00    -0.185 OA 
HETATM    3  C   UNL     1      -9.959  13.267  68.000  1.00  0.00    -0.233 C  
HETATM    4  C   UNL     1      -8.512  13.742  67.980  1.00  0.00    -0.176 C  
HETATM    5  C   UNL     1      -8.775   9.897  66.648  1.00  0.00    -0.128 C  
HETATM    6  C   UNL     1      -7.526  12.956  67.463  1.00  0.00    -0.155 C  
HETATM    7  N   UNL     1      -7.885  11.822  66.770  1.00  0.00    -0.138 N  
HETATM    8  C   UNL     1      -6.069  13.307  67.669  1.00  0.00    -0.135 C  
HETATM    9  O   UNL     1      -5.681  14.155  68.461  1.00  0.00    -0.083 OA 
HETATM   10  O   UNL     1      -5.184  12.653  66.893  1.00  0.00    -0.339 OA 
HETATM   11  O   UNL     1      -6.179  10.255  66.800  1.00  0.00    -0.065 OA 
HETATM   12  C   UNL     1      -7.341  10.586  66.717  1.00  0.00    -0.114 C  
ENDROOT
BRANCH   4  13
HETATM   13  C   UNL     1      -8.343  15.071  68.697  1.00  0.00    -0.166 C  
BRANCH  13  14
HETATM   14  S   UNL     1      -7.641  16.406  67.689  1.00  0.00    -0.150 SA 
BRANCH  14  15
HETATM   15  C   UNL     1      -8.984  17.006  66.800  1.00  0.00    -0.244 A  
HETATM   16  N   UNL     1      -9.516  16.509  65.708  1.00  0.00    -0.513 NA 
HETATM   17  C   UNL     1      -9.484  19.025  68.253  1.00  0.00    -0.348 C  
HETATM   18  N   UNL     1     -10.530  17.370  65.362  1.00  0.00    -0.651 NA 
HETATM   19  N   UNL     1     -10.625  18.369  66.229  1.00  0.00    -0.371 NA 
HETATM   20  N   UNL     1      -9.663  18.140  67.138  1.00  0.00    -0.291 NA 
ENDBRANCH  14  15
ENDBRANCH  13  14
ENDBRANCH   4  13
BRANCH   5  21
HETATM   21  O   UNL     1      -9.016   9.196  65.399  1.00  0.00    -0.187 OA 
HETATM   22  C   UNL     1      -9.551   9.956  64.326  1.00  0.00    -0.151 C  
ENDBRANCH   5  21
BRANCH   5  23
HETATM   23  N   UNL     1      -9.129   9.125  67.884  1.00  0.00    -0.128 N  
HETATM   24  C   UNL     1      -8.983   8.541  70.270  1.00  0.00    -0.153 C  
HETATM   25  C   UNL     1      -8.583   9.444  69.111  1.00  0.00    -0.140 C  
HETATM   26  O   UNL     1      -7.856  10.423  69.283  1.00  0.00    -0.122 OA 
HETATM   27  H   UNL     1      -9.787   8.349  67.817  1.00  0.00     0.000 HD 
HETATM   28  C   UNL     1      -7.982   8.526  71.417  1.00  0.00    -0.137 C  
HETATM   29  C   UNL     1     -10.399   8.816  70.774  1.00  0.00    -0.264 A  
HETATM   30  C   UNL     1     -11.134   7.777  71.377  1.00  0.00    -0.268 A  
HETATM   31  O   UNL     1      -7.892   7.577  72.189  1.00  0.00    -0.089 OA 
HETATM   32  O   UNL     1      -7.212   9.626  71.577  1.00  0.00    -0.294 OA 
HETATM   33  C   UNL     1     -12.453   7.978  71.795  1.00  0.00    -0.355 A  
HETATM   34  C   UNL     1     -13.043   9.223  71.620  1.00  0.00    -0.382 A  
HETATM   35  C   UNL     1     -12.319  10.280  71.084  1.00  0.00    -0.501 A  
HETATM   36  O   UNL     1     -14.342   9.452  71.960  1.00  0.00    -0.166 OA 
HETATM   37  H   UNL     1     -14.746  10.304  71.840  1.00  0.00     0.000 HD 
HETATM   38  C   UNL     1     -10.999  10.083  70.674  1.00  0.00    -0.392 A  
ENDBRANCH   5  23
TORSDOF 5
ENDMDL
MODEL      104
REMARK 921   NORMALIZED FREE ENERGY PREDICTED BY IDOCK:   -4.60 KCAL/MOL
REMARK 922        TOTAL FREE ENERGY PREDICTED BY IDOCK:   -7.28 KCAL/MOL
REMARK 923 INTER-LIGAND FREE ENERGY PREDICTED BY IDOCK:  -10.06 KCAL/MOL
REMARK 924 INTRA-LIGAND FREE ENERGY PREDICTED BY IDOCK:    2.77 KCAL/MOL
REMARK 927      BINDING AFFINITY PREDICTED BY RF-SCORE:    0.00 PKD
ROOT
HETATM    1  C   UNL     1     -10.217  13.909  66.362  1.00  0.00    -0.292 C  
HETATM    2  O   UNL     1     -10.012  12.642  67.006  1.00  0.00    -0.214 OA 
HETATM    3  C   UNL     1      -9.420  11.683  66.128  1.00  0.00    -0.224 C  
HETATM    4  C   UNL     1     -10.171  11.610  64.805  1.00  0.00    -0.321 C  
HETATM    5  C   UNL     1     -11.328  14.893  66.928  1.00  0.00    -0.337 C  
HETATM    6  C   UNL     1     -11.011  12.613  64.422  1.00  0.00    -0.351 C  
HETATM    7  N   UNL     1     -11.008  13.785  65.145  1.00  0.00    -0.320 N  
HETATM    8  C   UNL     1     -11.945  12.433  63.247  1.00  0.00    -0.416 C  
HETATM    9  O   UNL     1     -12.166  11.353  62.714  1.00  0.00     0.239 OA 
HETATM   10  O   UNL     1     -12.519  13.552  62.765  1.00  0.00    -0.431 OA 
HETATM   11  O   UNL     1     -13.026  14.900  64.926  1.00  0.00    -0.257 OA 
HETATM   12  C   UNL     1     -12.003  14.622  65.512  1.00  0.00    -0.256 C  
ENDROOT
BRANCH   4  13
HETATM   13  C   UNL     1      -9.951  10.281  64.103  1.00  0.00    -0.176 C  
BRANCH  13  14
HETATM   14  S   UNL     1      -8.400   9.437  64.520  1.00  0.00    -0.175 SA 
BRANCH  14  15
HETATM   15  C   UNL     1      -8.894   8.132  65.522  1.00  0.00    -0.089 A  
HETATM   16  N   UNL     1      -9.736   8.160  66.528  1.00  0.00    -0.239 NA 
HETATM   17  C   UNL     1      -7.501   6.313  64.432  1.00  0.00    -0.088 C  
HETATM   18  N   UNL     1      -9.761   6.882  67.032  1.00  0.00    -0.155 NA 
HETATM   19  N   UNL     1      -8.958   6.082  66.343  1.00  0.00    -0.141 NA 
HETATM   20  N   UNL     1      -8.419   6.859  65.390  1.00  0.00    -0.120 NA 
ENDBRANCH  14  15
ENDBRANCH  13  14
ENDBRANCH   4  13
BRANCH   5  21
HETATM   21  O   UNL     1     -10.908  16.271  67.109  1.00  0.00    -0.290 OA 
HETATM   22  C   UNL     1     -10.198  16.875  66.038  1.00  0.00    -0.336 C  
ENDBRANCH   5  21
BRANCH   5  23
HETATM   23  N   UNL     1     -12.094  14.310  68.079  1.00  0.00    -0.565 N  
HETATM   24  C   UNL     1     -12.440  12.809  69.998  1.00  0.00    -0.068 C  
HETATM   25  C   UNL     1     -11.532  13.359  68.906  1.00  0.00    -0.304 C  
HETATM   26  O   UNL     1     -10.357  13.002  68.810  1.00  0.00    -0.218 OA 
HETATM   27  H   UNL     1     -13.048  14.623  68.254  1.00  0.00     0.000 HD 
HETATM   28  C   UNL     1     -12.044  11.425  70.493  1.00  0.00    -0.394 C  
HETATM   29  C   UNL     1     -12.625  13.782  71.161  1.00  0.00    -0.452 A  
HETATM   30  C   UNL     1     -13.809  13.736  71.921  1.00  0.00    -0.496 A  
HETATM   31  O   UNL     1     -12.856  10.660  71.004  1.00  0.00    -0.361 OA 
HETATM   32  O   UNL     1     -10.743  11.079  70.381  1.00  0.00     0.156 OA 
HETATM   33  C   UNL     1     -14.036  14.651  72.954  1.00  0.00    -0.067 A  
HETATM   34  C   UNL     1     -13.075  15.613  73.238  1.00  0.00    -0.564 A  
HETATM   35  C   UNL     1     -11.873  15.639  72.543  1.00  0.00    -0.583 A  
HETATM   36  O   UNL     1     -13.274  16.559  74.197  1.00  0.00    -0.866 OA 
HETATM   37  H   UNL     1     -12.617  17.218  74.392  1.00  0.00     0.000 HD 
HETATM   38  C   UNL     1     -11.642  14.721  71.517  1.00  0.00    -0.288 A  
ENDBRANCH   5  23
TORSDOF 5
ENDMDL
MODEL      105
REMARK 921   NORMALIZED FREE ENERGY PREDICTED BY IDOCK:   -4.56 KCAL/MOL
REMARK 922        TOTAL FREE ENERGY PREDICTED BY IDOCK:   -7.24 KCAL/MOL
REMARK 923 INTER-LIGAND FREE ENERGY PREDICTED BY IDOCK:   -7.19 KCAL/MOL
REMARK 924 INTRA-LIGAND FREE ENERGY PREDICTED BY IDOCK:   -0.04 KCAL/MOL
REMARK 927      BINDING AFFINITY PREDICTED BY RF-SCORE:    0.00 PKD
ROOT
HETATM    1  C   UNL     1     -10.721   7.531  69.246  1.00  0.00    -0.176 C  
HETATM    2  O   UNL     1     -11.077   7.189  67.898  1.00  0.00    -0.118 OA 
HETATM    3  C   UNL     1     -10.371   6.037  67.433  1.00  0.00    -0.216 C  
HETATM    4  C   UNL     1      -8.874   6.170  67.682  1.00  0.00    -0.103 C  
HETATM    5  C   UNL     1     -10.928   9.025  69.745  1.00  0.00    -0.166 C  
HETATM    6  C   UNL     1      -8.393   7.078  68.577  1.00  0.00    -0.121 C  
HETATM    7  N   UNL     1      -9.286   7.722  69.404  1.00  0.00    -0.149 N  
HETATM    8  C   UNL     1      -6.915   7.393  68.642  1.00  0.00    -0.079 C  
HETATM    9  O   UNL     1      -6.108   7.039  67.792  1.00  0.00    -0.030 OA 
HETATM   10  O   UNL     1      -6.497   8.069  69.729  1.00  0.00    -0.036 OA 
HETATM   11  O   UNL     1      -8.435   9.753  70.123  1.00  0.00    -0.189 OA 
HETATM   12  C   UNL     1      -9.341   8.994  69.858  1.00  0.00    -0.173 C  
ENDROOT
BRANCH   4  13
HETATM   13  C   UNL     1      -8.065   5.290  66.744  1.00  0.00    -0.105 C  
BRANCH  13  14
HETATM   14  S   UNL     1      -7.081   4.000  67.556  1.00  0.00    -0.064 SA 
BRANCH  14  15
HETATM   15  C   UNL     1      -8.065   3.493  68.870  1.00  0.00    -0.061 A  
HETATM   16  N   UNL     1      -8.137   4.012  70.073  1.00  0.00    -0.057 NA 
HETATM   17  C   UNL     1      -9.203   1.541  67.714  1.00  0.00    -0.148 C  
HETATM   18  N   UNL     1      -9.027   3.228  70.767  1.00  0.00    -0.087 NA 
HETATM   19  N   UNL     1      -9.501   2.252  70.002  1.00  0.00    -0.100 NA 
HETATM   20  N   UNL     1      -8.907   2.420  68.809  1.00  0.00    -0.087 NA 
ENDBRANCH  14  15
ENDBRANCH  13  14
ENDBRANCH   4  13
BRANCH   5  21
HETATM   21  O   UNL     1     -11.593   9.168  71.028  1.00  0.00    -0.276 OA 
HETATM   22  C   UNL     1     -12.826   9.873  71.041  1.00  0.00    -0.331 C  
ENDBRANCH   5  21
BRANCH   5  23
HETATM   23  N   UNL     1     -11.435   9.936  68.666  1.00  0.00    -0.505 N  
HETATM   24  C   UNL     1     -11.677  12.083  67.489  1.00  0.00    -0.351 C  
HETATM   25  C   UNL     1     -11.041  11.256  68.598  1.00  0.00    -0.232 C  
HETATM   26  O   UNL     1     -10.191  11.738  69.349  1.00  0.00     0.080 OA 
HETATM   27  H   UNL     1     -12.084   9.572  67.969  1.00  0.00     0.000 HD 
HETATM   28  C   UNL     1     -11.699  13.579  67.768  1.00  0.00    -0.359 C  
HETATM   29  C   UNL     1     -11.086  11.784  66.112  1.00  0.00    -0.358 A  
HETATM   30  C   UNL     1     -11.879  11.967  64.963  1.00  0.00    -0.291 A  
HETATM   31  O   UNL     1     -12.525  14.325  67.251  1.00  0.00    -0.235 OA 
HETATM   32  O   UNL     1     -10.742  14.068  68.587  1.00  0.00    -0.246 OA 
HETATM   33  C   UNL     1     -11.388  11.647  63.694  1.00  0.00    -0.485 A  
HETATM   34  C   UNL     1     -10.098  11.148  63.565  1.00  0.00    -0.385 A  
HETATM   35  C   UNL     1      -9.277  11.017  64.677  1.00  0.00    -0.189 A  
HETATM   36  O   UNL     1      -9.596  10.770  62.356  1.00  0.00    -0.513 OA 
HETATM   37  H   UNL     1      -8.714  10.429  62.268  1.00  0.00     0.000 HD 
HETATM   38  C   UNL     1      -9.762  11.345  65.944  1.00  0.00    -0.257 A  
ENDBRANCH   5  23
TORSDOF 5
ENDMDL
MODEL      106
REMARK 921   NORMALIZED FREE ENERGY PREDICTED BY IDOCK:   -4.54 KCAL/MOL
REMARK 922        TOTAL FREE ENERGY PREDICTED BY IDOCK:   -7.21 KCAL/MOL
REMARK 923 INTER-LIGAND FREE ENERGY PREDICTED BY IDOCK:   -6.48 KCAL/MOL
REMARK 924 INTRA-LIGAND FREE ENERGY PREDICTED BY IDOCK:   -0.73 KCAL/MOL
REMARK 927      BINDING AFFINITY PREDICTED BY RF-SCORE:    0.00 PKD
ROOT
HETATM    1  C   UNL     1     -10.435  10.109  68.626  1.00  0.00    -0.202 C  
HETATM    2  O   UNL     1      -9.484  11.033  69.177  1.00  0.00    -0.156 OA 
HETATM    3  C   UNL     1      -9.525  12.301  68.520  1.00  0.00    -0.112 C  
HETATM    4  C   UNL     1      -9.452  12.140  67.007  1.00  0.00    -0.201 C  
HETATM    5  C   UNL     1     -10.184   8.549  68.796  1.00  0.00    -0.200 C  
HETATM    6  C   UNL     1      -9.722  10.940  66.418  1.00  0.00    -0.201 C  
HETATM    7  N   UNL     1     -10.264   9.937  67.190  1.00  0.00    -0.214 N  
HETATM    8  C   UNL     1      -9.406  10.707  64.958  1.00  0.00    -0.217 C  
HETATM    9  O   UNL     1      -8.717  11.461  64.284  1.00  0.00     0.186 OA 
HETATM   10  O   UNL     1      -9.961   9.616  64.396  1.00  0.00     0.092 OA 
HETATM   11  O   UNL     1      -9.790   7.853  66.296  1.00  0.00    -0.182 OA 
HETATM   12  C   UNL     1     -10.059   8.601  67.210  1.00  0.00    -0.244 C  
ENDROOT
BRANCH   4  13
HETATM   13  C   UNL     1      -8.939  13.398  66.329  1.00  0.00     0.132 C  
BRANCH  13  14
HETATM   14  S   UNL     1      -9.627  14.952  66.966  1.00  0.00    -0.247 SA 
BRANCH  14  15
HETATM   15  C   UNL     1     -10.598  15.536  65.674  1.00  0.00    -0.373 A  
HETATM   16  N   UNL     1     -11.352  14.842  64.854  1.00  0.00    -0.400 NA 
HETATM   17  C   UNL     1     -10.058  18.002  65.925  1.00  0.00    -0.162 C  
HETATM   18  N   UNL     1     -11.885  15.755  63.975  1.00  0.00    -0.518 NA 
HETATM   19  N   UNL     1     -11.475  16.985  64.255  1.00  0.00    -0.965 NA 
HETATM   20  N   UNL     1     -10.674  16.853  65.326  1.00  0.00    -0.609 NA 
ENDBRANCH  14  15
ENDBRANCH  13  14
ENDBRANCH   4  13
BRANCH   5  21
HETATM   21  O   UNL     1     -11.327   7.780  69.256  1.00  0.00     0.137 OA 
HETATM   22  C   UNL     1     -11.253   6.368  69.115  1.00  0.00    -0.354 C  
ENDBRANCH   5  21
BRANCH   5  23
HETATM   23  N   UNL     1      -8.892   8.237  69.490  1.00  0.00    -0.148 N  
HETATM   24  C   UNL     1      -7.404   7.995  71.435  1.00  0.00    -0.070 C  
HETATM   25  C   UNL     1      -8.788   8.274  70.865  1.00  0.00    -0.150 C  
HETATM   26  O   UNL     1      -9.756   8.471  71.601  1.00  0.00    -0.201 OA 
HETATM   27  H   UNL     1      -8.072   7.993  68.934  1.00  0.00     0.000 HD 
HETATM   28  C   UNL     1      -7.173   8.587  72.818  1.00  0.00    -0.009 C  
HETATM   29  C   UNL     1      -7.036   6.512  71.398  1.00  0.00    -0.077 A  
HETATM   30  C   UNL     1      -5.682   6.137  71.313  1.00  0.00    -0.026 A  
HETATM   31  O   UNL     1      -6.050   8.855  73.231  1.00  0.00    -0.208 OA 
HETATM   32  O   UNL     1      -8.261   8.775  73.598  1.00  0.00    -0.366 OA 
HETATM   33  C   UNL     1      -5.315   4.791  71.217  1.00  0.00    -0.004 A  
HETATM   34  C   UNL     1      -6.300   3.812  71.215  1.00  0.00    -0.015 A  
HETATM   35  C   UNL     1      -7.637   4.154  71.360  1.00  0.00    -0.064 A  
HETATM   36  O   UNL     1      -5.995   2.492  71.068  1.00  0.00    -0.016 OA 
HETATM   37  H   UNL     1      -6.669   1.822  71.067  1.00  0.00     0.000 HD 
HETATM   38  C   UNL     1      -8.005   5.497  71.464  1.00  0.00    -0.116 A  
ENDBRANCH   5  23
TORSDOF 5
ENDMDL
MODEL      107
REMARK 921   NORMALIZED FREE ENERGY PREDICTED BY IDOCK:   -4.48 KCAL/MOL
REMARK 922        TOTAL FREE ENERGY PREDICTED BY IDOCK:   -7.14 KCAL/MOL
REMARK 923 INTER-LIGAND FREE ENERGY PREDICTED BY IDOCK:   -6.58 KCAL/MOL
REMARK 924 INTRA-LIGAND FREE ENERGY PREDICTED BY IDOCK:   -0.56 KCAL/MOL
REMARK 927      BINDING AFFINITY PREDICTED BY RF-SCORE:    0.00 PKD
ROOT
HETATM    1  C   UNL     1     -10.442   7.643  67.237  1.00  0.00    -0.326 C  
HETATM    2  O   UNL     1     -10.744   8.726  68.129  1.00  0.00    -0.177 OA 
HETATM    3  C   UNL     1     -10.909   9.964  67.434  1.00  0.00    -0.227 C  
HETATM    4  C   UNL     1      -9.743  10.224  66.488  1.00  0.00    -0.243 C  
HETATM    5  C   UNL     1      -9.687   6.364  67.801  1.00  0.00    -0.121 C  
HETATM    6  C   UNL     1      -8.915   9.211  66.105  1.00  0.00    -0.173 C  
HETATM    7  N   UNL     1      -9.272   7.918  66.414  1.00  0.00    -0.184 N  
HETATM    8  C   UNL     1      -7.621   9.504  65.381  1.00  0.00    -0.106 C  
HETATM    9  O   UNL     1      -7.135  10.623  65.284  1.00  0.00    -0.089 OA 
HETATM   10  O   UNL     1      -7.018   8.453  64.792  1.00  0.00    -0.070 OA 
HETATM   11  O   UNL     1      -7.410   6.543  66.508  1.00  0.00    -0.075 OA 
HETATM   12  C   UNL     1      -8.543   6.850  66.806  1.00  0.00    -0.120 C  
ENDROOT
BRANCH   4  13
HETATM   13  C   UNL     1      -9.588  11.703  66.176  1.00  0.00    -0.232 C  
BRANCH  13  14
HETATM   14  S   UNL     1      -9.837  12.818  67.586  1.00  0.00    -0.220 SA 
BRANCH  14  15
HETATM   15  C   UNL     1      -9.809  14.386  66.884  1.00  0.00    -0.261 A  
HETATM   16  N   UNL     1      -8.974  14.853  65.985  1.00  0.00    -0.087 NA 
HETATM   17  C   UNL     1     -11.789  15.360  68.136  1.00  0.00    -0.160 C  
HETATM   18  N   UNL     1      -9.335  16.164  65.785  1.00  0.00    -0.437 NA 
HETATM   19  N   UNL     1     -10.377  16.493  66.539  1.00  0.00    -0.306 NA 
HETATM   20  N   UNL     1     -10.683  15.378  67.223  1.00  0.00    -0.302 NA 
ENDBRANCH  14  15
ENDBRANCH  13  14
ENDBRANCH   4  13
BRANCH   5  21
HETATM   21  O   UNL     1     -10.265   5.084  67.431  1.00  0.00    -0.183 OA 
HETATM   22  C   UNL     1     -10.733   4.949  66.097  1.00  0.00    -0.184 C  
ENDBRANCH   5  21
BRANCH   5  23
HETATM   23  N   UNL     1      -9.318   6.495  69.249  1.00  0.00    -0.142 N  
HETATM   24  C   UNL     1      -9.752   6.502  71.671  1.00  0.00    -0.174 C  
HETATM   25  C   UNL     1     -10.244   6.277  70.248  1.00  0.00    -0.196 C  
HETATM   26  O   UNL     1     -11.387   5.877  70.022  1.00  0.00    -0.352 OA 
HETATM   27  H   UNL     1      -8.364   6.751  69.501  1.00  0.00     0.000 HD 
HETATM   28  C   UNL     1     -10.858   6.824  72.666  1.00  0.00    -0.250 C  
HETATM   29  C   UNL     1      -8.864   5.367  72.178  1.00  0.00    -0.133 A  
HETATM   30  C   UNL     1      -7.884   5.636  73.153  1.00  0.00    -0.100 A  
HETATM   31  O   UNL     1     -10.643   7.452  73.697  1.00  0.00    -0.370 OA 
HETATM   32  O   UNL     1     -12.095   6.355  72.385  1.00  0.00    -0.241 OA 
HETATM   33  C   UNL     1      -7.016   4.633  73.595  1.00  0.00    -0.071 A  
HETATM   34  C   UNL     1      -7.127   3.352  73.070  1.00  0.00    -0.045 A  
HETATM   35  C   UNL     1      -8.125   3.048  72.154  1.00  0.00    -0.055 A  
HETATM   36  O   UNL     1      -6.270   2.356  73.428  1.00  0.00    -0.011 OA 
HETATM   37  H   UNL     1      -6.346   1.480  73.069  1.00  0.00     0.000 HD 
HETATM   38  C   UNL     1      -8.999   4.046  71.718  1.00  0.00    -0.159 A  
ENDBRANCH   5  23
TORSDOF 5
ENDMDL
MODEL      108
REMARK 921   NORMALIZED FREE ENERGY PREDICTED BY IDOCK:   -4.47 KCAL/MOL
REMARK 922        TOTAL FREE ENERGY PREDICTED BY IDOCK:   -7.12 KCAL/MOL
REMARK 923 INTER-LIGAND FREE ENERGY PREDICTED BY IDOCK:   -7.33 KCAL/MOL
REMARK 924 INTRA-LIGAND FREE ENERGY PREDICTED BY IDOCK:    0.21 KCAL/MOL
REMARK 927      BINDING AFFINITY PREDICTED BY RF-SCORE:    0.00 PKD
ROOT
HETATM    1  C   UNL     1     -11.658   7.259  70.827  1.00  0.00    -0.302 C  
HETATM    2  O   UNL     1     -11.201   7.024  69.486  1.00  0.00    -0.220 OA 
HETATM    3  C   UNL     1     -10.992   5.635  69.226  1.00  0.00    -0.154 C  
HETATM    4  C   UNL     1     -10.136   4.994  70.312  1.00  0.00    -0.339 C  
HETATM    5  C   UNL     1     -11.415   8.683  71.488  1.00  0.00    -0.295 C  
HETATM    6  C   UNL     1      -9.972   5.601  71.521  1.00  0.00    -0.180 C  
HETATM    7  N   UNL     1     -10.758   6.691  71.822  1.00  0.00    -0.223 N  
HETATM    8  C   UNL     1      -8.931   5.106  72.500  1.00  0.00    -0.130 C  
HETATM    9  O   UNL     1      -8.053   4.305  72.209  1.00  0.00    -0.088 OA 
HETATM   10  O   UNL     1      -9.033   5.568  73.761  1.00  0.00    -0.124 OA 
HETATM   11  O   UNL     1      -9.736   8.042  73.401  1.00  0.00    -0.280 OA 
HETATM   12  C   UNL     1     -10.493   7.842  72.477  1.00  0.00    -0.300 C  
ENDROOT
BRANCH   4  13
HETATM   13  C   UNL     1      -9.443   3.737  69.816  1.00  0.00    -0.185 C  
BRANCH  13  14
HETATM   14  S   UNL     1      -8.119   4.013  68.606  1.00  0.00    -0.075 SA 
BRANCH  14  15
HETATM   15  C   UNL     1      -8.706   3.272  67.172  1.00  0.00    -0.121 A  
HETATM   16  N   UNL     1      -8.798   1.990  66.905  1.00  0.00    -0.124 NA 
HETATM   17  C   UNL     1      -9.257   5.391  65.890  1.00  0.00    -0.156 C  
HETATM   18  N   UNL     1      -9.282   1.910  65.621  1.00  0.00    -0.060 NA 
HETATM   19  N   UNL     1      -9.491   3.117  65.112  1.00  0.00    -0.148 NA 
HETATM   20  N   UNL     1      -9.140   3.974  66.085  1.00  0.00    -0.133 NA 
ENDBRANCH  14  15
ENDBRANCH  13  14
ENDBRANCH   4  13
BRANCH   5  21
HETATM   21  O   UNL     1     -12.570   9.273  72.142  1.00  0.00    -0.374 OA 
HETATM   22  C   UNL     1     -13.841   8.723  71.826  1.00  0.00    -0.423 C  
ENDBRANCH   5  21
BRANCH   5  23
HETATM   23  N   UNL     1     -10.648   9.616  70.599  1.00  0.00    -0.299 N  
HETATM   24  C   UNL     1      -8.640  10.465  69.457  1.00  0.00    -0.109 C  
HETATM   25  C   UNL     1      -9.311   9.409  70.325  1.00  0.00    -0.252 C  
HETATM   26  O   UNL     1      -8.698   8.412  70.709  1.00  0.00    -0.133 OA 
HETATM   27  H   UNL     1     -11.122  10.420  70.190  1.00  0.00     0.000 HD 
HETATM   28  C   UNL     1      -7.131  10.550  69.641  1.00  0.00    -0.141 C  
HETATM   29  C   UNL     1      -9.013  10.344  67.981  1.00  0.00    -0.129 A  
HETATM   30  C   UNL     1      -8.996  11.492  67.166  1.00  0.00    -0.166 A  
HETATM   31  O   UNL     1      -6.503  11.575  69.398  1.00  0.00    -0.088 OA 
HETATM   32  O   UNL     1      -6.497   9.429  70.053  1.00  0.00    -0.048 OA 
HETATM   33  C   UNL     1      -9.389  11.427  65.825  1.00  0.00    -0.247 A  
HETATM   34  C   UNL     1      -9.793  10.211  65.290  1.00  0.00    -0.319 A  
HETATM   35  C   UNL     1      -9.759   9.054  66.056  1.00  0.00    -0.339 A  
HETATM   36  O   UNL     1     -10.236  10.108  64.005  1.00  0.00    -0.461 OA 
HETATM   37  H   UNL     1     -10.512   9.276  63.639  1.00  0.00     0.000 HD 
HETATM   38  C   UNL     1      -9.359   9.116  67.393  1.00  0.00    -0.161 A  
ENDBRANCH   5  23
TORSDOF 5
ENDMDL
MODEL      109
REMARK 921   NORMALIZED FREE ENERGY PREDICTED BY IDOCK:   -4.41 KCAL/MOL
REMARK 922        TOTAL FREE ENERGY PREDICTED BY IDOCK:   -7.04 KCAL/MOL
REMARK 923 INTER-LIGAND FREE ENERGY PREDICTED BY IDOCK:   -7.90 KCAL/MOL
REMARK 924 INTRA-LIGAND FREE ENERGY PREDICTED BY IDOCK:    0.85 KCAL/MOL
REMARK 927      BINDING AFFINITY PREDICTED BY RF-SCORE:    0.00 PKD
ROOT
HETATM    1  C   UNL     1      -9.510   8.484  66.361  1.00  0.00    -0.232 C  
HETATM    2  O   UNL     1     -10.378   8.977  67.393  1.00  0.00    -0.232 OA 
HETATM    3  C   UNL     1     -10.634  10.376  67.254  1.00  0.00    -0.267 C  
HETATM    4  C   UNL     1      -9.337  11.159  67.086  1.00  0.00    -0.176 C  
HETATM    5  C   UNL     1      -8.668   7.163  66.627  1.00  0.00    -0.128 C  
HETATM    6  C   UNL     1      -8.185  10.530  66.719  1.00  0.00    -0.126 C  
HETATM    7  N   UNL     1      -8.255   9.220  66.300  1.00  0.00    -0.107 N  
HETATM    8  C   UNL     1      -6.855  11.246  66.798  1.00  0.00    -0.140 C  
HETATM    9  O   UNL     1      -6.692  12.313  67.375  1.00  0.00    -0.124 OA 
HETATM   10  O   UNL     1      -5.826  10.662  66.154  1.00  0.00    -0.085 OA 
HETATM   11  O   UNL     1      -6.231   8.138  66.615  1.00  0.00    -0.051 OA 
HETATM   12  C   UNL     1      -7.437   8.164  66.499  1.00  0.00    -0.088 C  
ENDROOT
BRANCH   4  13
HETATM   13  C   UNL     1      -9.499  12.614  67.492  1.00  0.00    -0.186 C  
BRANCH  13  14
HETATM   14  S   UNL     1      -9.448  13.805  66.124  1.00  0.00    -0.089 SA 
BRANCH  14  15
HETATM   15  C   UNL     1     -11.054  13.803  65.513  1.00  0.00    -0.298 A  
HETATM   16  N   UNL     1     -11.911  12.809  65.498  1.00  0.00    -0.398 NA 
HETATM   17  C   UNL     1     -11.122  16.210  64.715  1.00  0.00    -0.333 C  
HETATM   18  N   UNL     1     -13.032  13.291  64.866  1.00  0.00    -0.740 NA 
HETATM   19  N   UNL     1     -12.871  14.558  64.508  1.00  0.00    -0.529 NA 
HETATM   20  N   UNL     1     -11.635  14.886  64.920  1.00  0.00    -0.395 NA 
ENDBRANCH  14  15
ENDBRANCH  13  14
ENDBRANCH   4  13
BRANCH   5  21
HETATM   21  O   UNL     1      -8.713   6.170  65.567  1.00  0.00    -0.152 OA 
HETATM   22  C   UNL     1      -7.824   5.068  65.678  1.00  0.00    -0.091 C  
ENDBRANCH   5  21
BRANCH   5  23
HETATM   23  N   UNL     1      -8.857   6.618  68.011  1.00  0.00    -0.116 N  
HETATM   24  C   UNL     1      -8.274   6.288  70.379  1.00  0.00    -0.121 C  
HETATM   25  C   UNL     1      -8.003   6.959  69.039  1.00  0.00    -0.116 C  
HETATM   26  O   UNL     1      -7.103   7.791  68.911  1.00  0.00    -0.071 OA 
HETATM   27  H   UNL     1      -9.632   5.982  68.197  1.00  0.00     0.000 HD 
HETATM   28  C   UNL     1      -7.056   6.207  71.289  1.00  0.00    -0.077 C  
HETATM   29  C   UNL     1      -9.474   6.887  71.111  1.00  0.00    -0.166 A  
HETATM   30  C   UNL     1     -10.214   6.085  72.000  1.00  0.00    -0.228 A  
HETATM   31  O   UNL     1      -6.952   5.351  72.161  1.00  0.00    -0.074 OA 
HETATM   32  O   UNL     1      -6.098   7.146  71.122  1.00  0.00    -0.036 OA 
HETATM   33  C   UNL     1     -11.353   6.585  72.640  1.00  0.00    -0.259 A  
HETATM   34  C   UNL     1     -11.752   7.893  72.401  1.00  0.00    -0.367 A  
HETATM   35  C   UNL     1     -11.004   8.722  71.576  1.00  0.00    -0.377 A  
HETATM   36  O   UNL     1     -12.885   8.407  72.957  1.00  0.00    -0.706 OA 
HETATM   37  H   UNL     1     -13.158   9.303  72.794  1.00  0.00     0.000 HD 
HETATM   38  C   UNL     1      -9.862   8.227  70.943  1.00  0.00    -0.215 A  
ENDBRANCH   5  23
TORSDOF 5
ENDMDL
MODEL      110
REMARK 921   NORMALIZED FREE ENERGY PREDICTED BY IDOCK:   -4.40 KCAL/MOL
REMARK 922        TOTAL FREE ENERGY PREDICTED BY IDOCK:   -7.04 KCAL/MOL
REMARK 923 INTER-LIGAND FREE ENERGY PREDICTED BY IDOCK:   -7.47 KCAL/MOL
REMARK 924 INTRA-LIGAND FREE ENERGY PREDICTED BY IDOCK:    0.43 KCAL/MOL
REMARK 927      BINDING AFFINITY PREDICTED BY RF-SCORE:    0.00 PKD
ROOT
HETATM    1  C   UNL     1     -10.896   8.514  69.709  1.00  0.00    -0.175 C  
HETATM    2  O   UNL     1     -10.846   8.438  68.276  1.00  0.00    -0.077 OA 
HETATM    3  C   UNL     1     -10.596   7.107  67.818  1.00  0.00    -0.225 C  
HETATM    4  C   UNL     1      -9.397   6.495  68.531  1.00  0.00    -0.123 C  
HETATM    5  C   UNL     1     -10.599   9.903  70.419  1.00  0.00    -0.302 C  
HETATM    6  C   UNL     1      -8.933   7.025  69.698  1.00  0.00    -0.141 C  
HETATM    7  N   UNL     1      -9.690   7.986  70.330  1.00  0.00    -0.178 N  
HETATM    8  C   UNL     1      -7.604   6.588  70.271  1.00  0.00    -0.096 C  
HETATM    9  O   UNL     1      -6.783   5.924  69.652  1.00  0.00    -0.051 OA 
HETATM   10  O   UNL     1      -7.363   6.938  71.550  1.00  0.00    -0.079 OA 
HETATM   11  O   UNL     1      -8.369   9.329  71.679  1.00  0.00    -0.306 OA 
HETATM   12  C   UNL     1      -9.348   9.109  71.000  1.00  0.00    -0.263 C  
ENDROOT
BRANCH   4  13
HETATM   13  C   UNL     1      -8.771   5.372  67.722  1.00  0.00    -0.106 C  
BRANCH  13  14
HETATM   14  S   UNL     1      -8.381   5.788  66.000  1.00  0.00    -0.131 SA 
BRANCH  14  15
HETATM   15  C   UNL     1      -9.402   4.756  65.082  1.00  0.00    -0.127 A  
HETATM   16  N   UNL     1     -10.712   4.672  65.121  1.00  0.00    -0.098 NA 
HETATM   17  C   UNL     1      -7.592   3.563  63.764  1.00  0.00    -0.067 C  
HETATM   18  N   UNL     1     -11.050   3.674  64.240  1.00  0.00    -0.223 NA 
HETATM   19  N   UNL     1      -9.971   3.160  63.663  1.00  0.00    -0.144 NA 
HETATM   20  N   UNL     1      -8.936   3.842  64.182  1.00  0.00    -0.123 NA 
ENDBRANCH  14  15
ENDBRANCH  13  14
ENDBRANCH   4  13
BRANCH   5  21
HETATM   21  O   UNL     1     -11.553  10.299  71.442  1.00  0.00    -0.317 OA 
HETATM   22  C   UNL     1     -12.459  11.341  71.110  1.00  0.00    -0.373 C  
ENDBRANCH   5  21
BRANCH   5  23
HETATM   23  N   UNL     1     -10.226  10.987  69.452  1.00  0.00    -0.418 N  
HETATM   24  C   UNL     1      -8.736  12.169  67.890  1.00  0.00    -0.176 C  
HETATM   25  C   UNL     1      -9.010  10.979  68.799  1.00  0.00    -0.149 C  
HETATM   26  O   UNL     1      -8.207  10.050  68.897  1.00  0.00    -0.106 OA 
HETATM   27  H   UNL     1     -10.883  11.745  69.272  1.00  0.00     0.000 HD 
HETATM   28  C   UNL     1      -7.257  12.443  67.657  1.00  0.00    -0.130 C  
HETATM   29  C   UNL     1      -9.501  12.096  66.570  1.00  0.00    -0.235 A  
HETATM   30  C   UNL     1      -9.845  13.287  65.902  1.00  0.00    -0.241 A  
HETATM   31  O   UNL     1      -6.841  13.556  67.354  1.00  0.00    -0.169 OA 
HETATM   32  O   UNL     1      -6.412  11.393  67.763  1.00  0.00    -0.060 OA 
HETATM   33  C   UNL     1     -10.596  13.257  64.723  1.00  0.00    -0.402 A  
HETATM   34  C   UNL     1     -11.001  12.036  64.200  1.00  0.00    -0.360 A  
HETATM   35  C   UNL     1     -10.622  10.846  64.808  1.00  0.00    -0.316 A  
HETATM   36  O   UNL     1     -11.780  11.958  63.085  1.00  0.00    -0.699 OA 
HETATM   37  H   UNL     1     -12.057  11.122  62.728  1.00  0.00     0.000 HD 
HETATM   38  C   UNL     1      -9.864  10.873  65.980  1.00  0.00    -0.280 A  
ENDBRANCH   5  23
TORSDOF 5
ENDMDL
MODEL      111
REMARK 921   NORMALIZED FREE ENERGY PREDICTED BY IDOCK:   -4.38 KCAL/MOL
REMARK 922        TOTAL FREE ENERGY PREDICTED BY IDOCK:   -7.01 KCAL/MOL
REMARK 923 INTER-LIGAND FREE ENERGY PREDICTED BY IDOCK:   -5.31 KCAL/MOL
REMARK 924 INTRA-LIGAND FREE ENERGY PREDICTED BY IDOCK:   -1.70 KCAL/MOL
REMARK 927      BINDING AFFINITY PREDICTED BY RF-SCORE:    0.00 PKD
ROOT
HETATM    1  C   UNL     1      -9.800   9.918  67.187  1.00  0.00    -0.186 C  
HETATM    2  O   UNL     1     -10.825   9.042  67.683  1.00  0.00    -0.219 OA 
HETATM    3  C   UNL     1     -11.268   9.419  68.988  1.00  0.00     0.115 C  
HETATM    4  C   UNL     1     -10.089   9.619  69.933  1.00  0.00    -0.279 C  
HETATM    5  C   UNL     1      -8.804   9.386  66.070  1.00  0.00    -0.156 C  
HETATM    6  C   UNL     1      -8.828   9.798  69.448  1.00  0.00    -0.182 C  
HETATM    7  N   UNL     1      -8.666  10.007  68.097  1.00  0.00    -0.121 N  
HETATM    8  C   UNL     1      -7.631   9.741  70.370  1.00  0.00    -0.148 C  
HETATM    9  O   UNL     1      -7.680   9.332  71.522  1.00  0.00    -0.340 OA 
HETATM   10  O   UNL     1      -6.471  10.209  69.869  1.00  0.00    -0.061 OA 
HETATM   11  O   UNL     1      -6.545   9.382  67.408  1.00  0.00    -0.063 OA 
HETATM   12  C   UNL     1      -7.725   9.585  67.224  1.00  0.00    -0.091 C  
ENDROOT
BRANCH   4  13
HETATM   13  C   UNL     1     -10.499   9.463  71.387  1.00  0.00    -0.288 C  
BRANCH  13  14
HETATM   14  S   UNL     1     -11.352   7.911  71.785  1.00  0.00    -0.280 SA 
BRANCH  14  15
HETATM   15  C   UNL     1     -10.098   6.736  71.783  1.00  0.00    -0.182 A  
HETATM   16  N   UNL     1      -9.708   5.973  70.789  1.00  0.00    -0.172 NA 
HETATM   17  C   UNL     1      -9.371   7.004  74.199  1.00  0.00    -0.241 C  
HETATM   18  N   UNL     1      -8.711   5.176  71.298  1.00  0.00    -0.126 NA 
HETATM   19  N   UNL     1      -8.486   5.450  72.576  1.00  0.00    -0.118 NA 
HETATM   20  N   UNL     1      -9.347   6.435  72.882  1.00  0.00    -0.137 NA 
ENDBRANCH  14  15
ENDBRANCH  13  14
ENDBRANCH   4  13
BRANCH   5  21
HETATM   21  O   UNL     1      -8.603  10.275  64.938  1.00  0.00    -0.167 OA 
HETATM   22  C   UNL     1      -9.709  10.470  64.068  1.00  0.00    -0.323 C  
ENDBRANCH   5  21
BRANCH   5  23
HETATM   23  N   UNL     1      -9.040   7.950  65.711  1.00  0.00    -0.370 N  
HETATM   24  C   UNL     1      -8.520   5.807  64.620  1.00  0.00    -0.061 C  
HETATM   25  C   UNL     1      -8.126   7.237  64.963  1.00  0.00    -0.120 C  
HETATM   26  O   UNL     1      -7.035   7.699  64.628  1.00  0.00    -0.050 OA 
HETATM   27  H   UNL     1      -9.894   7.490  66.026  1.00  0.00     0.000 HD 
HETATM   28  C   UNL     1      -7.835   5.257  63.377  1.00  0.00    -0.087 C  
HETATM   29  C   UNL     1      -8.370   4.851  65.803  1.00  0.00    -0.115 A  
HETATM   30  C   UNL     1      -9.190   3.709  65.879  1.00  0.00    -0.161 A  
HETATM   31  O   UNL     1      -8.327   4.353  62.709  1.00  0.00    -0.081 OA 
HETATM   32  O   UNL     1      -6.633   5.784  63.051  1.00  0.00    -0.031 OA 
HETATM   33  C   UNL     1      -9.120   2.846  66.977  1.00  0.00    -0.188 A  
HETATM   34  C   UNL     1      -8.224   3.116  68.003  1.00  0.00    -0.078 A  
HETATM   35  C   UNL     1      -7.363   4.202  67.922  1.00  0.00    -0.068 A  
HETATM   36  O   UNL     1      -8.159   2.337  69.118  1.00  0.00    -0.045 OA 
HETATM   37  H   UNL     1      -7.545   2.522  69.820  1.00  0.00     0.000 HD 
HETATM   38  C   UNL     1      -7.425   5.060  66.821  1.00  0.00    -0.087 A  
ENDBRANCH   5  23
TORSDOF 5
ENDMDL
MODEL      112
REMARK 921   NORMALIZED FREE ENERGY PREDICTED BY IDOCK:   -4.36 KCAL/MOL
REMARK 922        TOTAL FREE ENERGY PREDICTED BY IDOCK:   -6.98 KCAL/MOL
REMARK 923 INTER-LIGAND FREE ENERGY PREDICTED BY IDOCK:   -6.26 KCAL/MOL
REMARK 924 INTRA-LIGAND FREE ENERGY PREDICTED BY IDOCK:   -0.72 KCAL/MOL
REMARK 927      BINDING AFFINITY PREDICTED BY RF-SCORE:    0.00 PKD
ROOT
HETATM    1  C   UNL     1      -7.906   8.637  66.665  1.00  0.00    -0.097 C  
HETATM    2  O   UNL     1      -7.145   9.434  67.585  1.00  0.00    -0.080 OA 
HETATM    3  C   UNL     1      -6.580   8.647  68.636  1.00  0.00    -0.055 C  
HETATM    4  C   UNL     1      -7.632   7.757  69.284  1.00  0.00    -0.098 C  
HETATM    5  C   UNL     1      -9.040   9.331  65.796  1.00  0.00    -0.209 C  
HETATM    6  C   UNL     1      -8.810   7.493  68.651  1.00  0.00    -0.127 C  
HETATM    7  N   UNL     1      -8.947   7.868  67.333  1.00  0.00    -0.126 N  
HETATM    8  C   UNL     1      -9.952   6.829  69.387  1.00  0.00    -0.157 C  
HETATM    9  O   UNL     1      -9.984   6.684  70.602  1.00  0.00    -0.183 OA 
HETATM   10  O   UNL     1     -10.953   6.349  68.624  1.00  0.00    -0.294 OA 
HETATM   11  O   UNL     1     -11.176   8.166  66.781  1.00  0.00     0.394 OA 
HETATM   12  C   UNL     1      -9.991   8.375  66.642  1.00  0.00    -0.284 C  
ENDROOT
BRANCH   4  13
HETATM   13  C   UNL     1      -7.241   7.354  70.695  1.00  0.00    -0.068 C  
BRANCH  13  14
HETATM   14  S   UNL     1      -5.475   7.518  71.081  1.00  0.00    -0.031 SA 
BRANCH  14  15
HETATM   15  C   UNL     1      -5.412   8.830  72.188  1.00  0.00    -0.055 A  
HETATM   16  N   UNL     1      -5.500   8.786  73.497  1.00  0.00    -0.093 NA 
HETATM   17  C   UNL     1      -5.130  10.697  70.494  1.00  0.00    -0.063 C  
HETATM   18  N   UNL     1      -5.441  10.093  73.920  1.00  0.00    -0.318 NA 
HETATM   19  N   UNL     1      -5.311  10.922  72.892  1.00  0.00    -0.079 NA 
HETATM   20  N   UNL     1      -5.283  10.133  71.805  1.00  0.00    -0.164 NA 
ENDBRANCH  14  15
ENDBRANCH  13  14
ENDBRANCH   4  13
BRANCH   5  21
HETATM   21  O   UNL     1      -9.023   9.016  64.378  1.00  0.00    -0.137 OA 
HETATM   22  C   UNL     1      -8.512   7.744  64.007  1.00  0.00     0.221 C  
ENDBRANCH   5  21
BRANCH   5  23
HETATM   23  N   UNL     1      -9.214  10.786  66.117  1.00  0.00    -0.174 N  
HETATM   24  C   UNL     1     -10.248  13.009  65.911  1.00  0.00    -0.298 C  
HETATM   25  C   UNL     1     -10.223  11.532  65.543  1.00  0.00    -0.258 C  
HETATM   26  O   UNL     1     -11.086  11.038  64.817  1.00  0.00    -0.158 OA 
HETATM   27  H   UNL     1      -8.574  11.233  66.772  1.00  0.00     0.000 HD 
HETATM   28  C   UNL     1     -10.942  13.892  64.882  1.00  0.00    -0.386 C  
HETATM   29  C   UNL     1     -10.793  13.262  67.316  1.00  0.00    -0.275 A  
HETATM   30  C   UNL     1     -10.367  14.398  68.030  1.00  0.00    -0.227 A  
HETATM   31  O   UNL     1     -10.683  15.085  64.769  1.00  0.00    -0.404 OA 
HETATM   32  O   UNL     1     -11.891  13.312  64.114  1.00  0.00    -0.398 OA 
HETATM   33  C   UNL     1     -10.800  14.627  69.339  1.00  0.00    -0.261 A  
HETATM   34  C   UNL     1     -11.669  13.725  69.940  1.00  0.00    -0.284 A  
HETATM   35  C   UNL     1     -12.151  12.631  69.235  1.00  0.00    -0.218 A  
HETATM   36  O   UNL     1     -12.075  13.876  71.232  1.00  0.00    -0.396 OA 
HETATM   37  H   UNL     1     -12.669  13.259  71.643  1.00  0.00     0.000 HD 
HETATM   38  C   UNL     1     -11.726  12.405  67.924  1.00  0.00    -0.421 A  
ENDBRANCH   5  23
TORSDOF 5
ENDMDL
MODEL      113
REMARK 921   NORMALIZED FREE ENERGY PREDICTED BY IDOCK:   -4.36 KCAL/MOL
REMARK 922        TOTAL FREE ENERGY PREDICTED BY IDOCK:   -6.97 KCAL/MOL
REMARK 923 INTER-LIGAND FREE ENERGY PREDICTED BY IDOCK:   -5.16 KCAL/MOL
REMARK 924 INTRA-LIGAND FREE ENERGY PREDICTED BY IDOCK:   -1.81 KCAL/MOL
REMARK 927      BINDING AFFINITY PREDICTED BY RF-SCORE:    0.00 PKD
ROOT
HETATM    1  C   UNL     1      -9.789   4.715  70.710  1.00  0.00    -0.214 C  
HETATM    2  O   UNL     1     -10.130   4.265  69.389  1.00  0.00    -0.124 OA 
HETATM    3  C   UNL     1      -9.515   3.014  69.074  1.00  0.00    -0.101 C  
HETATM    4  C   UNL     1      -8.021   3.044  69.371  1.00  0.00    -0.058 C  
HETATM    5  C   UNL     1      -9.879   6.265  71.044  1.00  0.00    -0.181 C  
HETATM    6  C   UNL     1      -7.490   3.997  70.189  1.00  0.00    -0.045 C  
HETATM    7  N   UNL     1      -8.349   4.798  70.908  1.00  0.00    -0.096 N  
HETATM    8  C   UNL     1      -5.994   4.188  70.284  1.00  0.00    -0.018 C  
HETATM    9  O   UNL     1      -5.194   3.680  69.509  1.00  0.00    -0.007 OA 
HETATM   10  O   UNL     1      -5.553   4.937  71.313  1.00  0.00    -0.011 OA 
HETATM   11  O   UNL     1      -7.344   6.813  71.452  1.00  0.00    -0.080 OA 
HETATM   12  C   UNL     1      -8.305   6.110  71.228  1.00  0.00    -0.124 C  
ENDROOT
BRANCH   4  13
HETATM   13  C   UNL     1      -7.263   2.005  68.563  1.00  0.00    -0.043 C  
BRANCH  13  14
HETATM   14  S   UNL     1      -7.489   2.111  66.766  1.00  0.00    -0.066 SA 
BRANCH  14  15
HETATM   15  C   UNL     1      -7.334   3.788  66.426  1.00  0.00    -0.072 A  
HETATM   16  N   UNL     1      -6.265   4.540  66.546  1.00  0.00    -0.031 NA 
HETATM   17  C   UNL     1      -9.725   4.215  65.693  1.00  0.00    -0.204 C  
HETATM   18  N   UNL     1      -6.660   5.810  66.200  1.00  0.00    -0.050 NA 
HETATM   19  N   UNL     1      -7.944   5.836  65.864  1.00  0.00    -0.105 NA 
HETATM   20  N   UNL     1      -8.368   4.568  65.996  1.00  0.00    -0.113 NA 
ENDBRANCH  14  15
ENDBRANCH  13  14
ENDBRANCH   4  13
BRANCH   5  21
HETATM   21  O   UNL     1     -10.570   6.599  72.277  1.00  0.00    -0.207 OA 
HETATM   22  C   UNL     1     -11.772   5.895  72.554  1.00  0.00    -0.236 C  
ENDBRANCH   5  21
BRANCH   5  23
HETATM   23  N   UNL     1     -10.265   7.098  69.858  1.00  0.00    -0.202 N  
HETATM   24  C   UNL     1     -10.827   9.187  68.685  1.00  0.00    -0.092 C  
HETATM   25  C   UNL     1     -10.368   8.471  69.948  1.00  0.00    -0.210 C  
HETATM   26  O   UNL     1     -10.064   9.097  70.964  1.00  0.00    -0.252 OA 
HETATM   27  H   UNL     1     -10.457   6.641  68.967  1.00  0.00     0.000 HD 
HETATM   28  C   UNL     1     -11.475  10.541  68.941  1.00  0.00    -0.226 C  
HETATM   29  C   UNL     1      -9.728   9.289  67.629  1.00  0.00    -0.195 A  
HETATM   30  C   UNL     1     -10.081   9.358  66.267  1.00  0.00    -0.328 A  
HETATM   31  O   UNL     1     -12.275  11.038  68.156  1.00  0.00    -0.578 OA 
HETATM   32  O   UNL     1     -11.103  11.199  70.062  1.00  0.00    -0.222 OA 
HETATM   33  C   UNL     1      -9.099   9.392  65.272  1.00  0.00    -0.287 A  
HETATM   34  C   UNL     1      -7.758   9.366  65.633  1.00  0.00    -0.099 A  
HETATM   35  C   UNL     1      -7.386   9.360  66.971  1.00  0.00    -0.087 A  
HETATM   36  O   UNL     1      -6.767   9.342  64.699  1.00  0.00    -0.078 OA 
HETATM   37  H   UNL     1      -5.850   9.324  64.946  1.00  0.00     0.000 HD 
HETATM   38  C   UNL     1      -8.365   9.335  67.966  1.00  0.00    -0.120 A  
ENDBRANCH   5  23
TORSDOF 5
ENDMDL
MODEL      114
REMARK 921   NORMALIZED FREE ENERGY PREDICTED BY IDOCK:   -4.31 KCAL/MOL
REMARK 922        TOTAL FREE ENERGY PREDICTED BY IDOCK:   -6.91 KCAL/MOL
REMARK 923 INTER-LIGAND FREE ENERGY PREDICTED BY IDOCK:   -6.57 KCAL/MOL
REMARK 924 INTRA-LIGAND FREE ENERGY PREDICTED BY IDOCK:   -0.34 KCAL/MOL
REMARK 927      BINDING AFFINITY PREDICTED BY RF-SCORE:    0.00 PKD
ROOT
HETATM    1  C   UNL     1      -6.838  15.692  66.990  1.00  0.00     0.026 C  
HETATM    2  O   UNL     1      -7.584  16.756  66.382  1.00  0.00    -0.270 OA 
HETATM    3  C   UNL     1      -6.805  17.946  66.241  1.00  0.00    -0.264 C  
HETATM    4  C   UNL     1      -6.123  18.316  67.552  1.00  0.00    -0.174 C  
HETATM    5  C   UNL     1      -7.620  14.528  67.736  1.00  0.00    -0.159 C  
HETATM    6  C   UNL     1      -5.983  17.398  68.550  1.00  0.00    -0.162 C  
HETATM    7  N   UNL     1      -6.276  16.080  68.277  1.00  0.00    -0.108 N  
HETATM    8  C   UNL     1      -5.543  17.820  69.933  1.00  0.00    -0.241 C  
HETATM    9  O   UNL     1      -5.495  18.986  70.303  1.00  0.00    -0.217 OA 
HETATM   10  O   UNL     1      -5.156  16.832  70.763  1.00  0.00    -0.213 OA 
HETATM   11  O   UNL     1      -6.845  14.938  70.210  1.00  0.00    -0.147 OA 
HETATM   12  C   UNL     1      -6.873  15.117  69.012  1.00  0.00    -0.122 C  
ENDROOT
BRANCH   4  13
HETATM   13  C   UNL     1      -5.774  19.793  67.610  1.00  0.00    -0.182 C  
BRANCH  13  14
HETATM   14  S   UNL     1      -7.102  20.919  67.101  1.00  0.00    -0.314 SA 
BRANCH  14  15
HETATM   15  C   UNL     1      -8.525  20.197  67.738  1.00  0.00    -0.255 A  
HETATM   16  N   UNL     1      -8.723  19.734  68.950  1.00  0.00    -0.188 NA 
HETATM   17  C   UNL     1      -9.950  20.336  65.643  1.00  0.00    -0.035 C  
HETATM   18  N   UNL     1      -9.997  19.218  68.951  1.00  0.00    -0.437 NA 
HETATM   19  N   UNL     1     -10.573  19.369  67.766  1.00  0.00    -0.437 NA 
HETATM   20  N   UNL     1      -9.657  19.990  67.005  1.00  0.00    -0.384 NA 
ENDBRANCH  14  15
ENDBRANCH  13  14
ENDBRANCH   4  13
BRANCH   5  21
HETATM   21  O   UNL     1      -7.202  13.178  67.398  1.00  0.00    -0.155 OA 
HETATM   22  C   UNL     1      -6.281  12.549  68.277  1.00  0.00    -0.065 C  
ENDBRANCH   5  21
BRANCH   5  23
HETATM   23  N   UNL     1      -9.104  14.741  67.758  1.00  0.00    -0.183 N  
HETATM   24  C   UNL     1     -11.452  14.146  67.323  1.00  0.00    -0.371 C  
HETATM   25  C   UNL     1      -9.975  13.775  67.299  1.00  0.00    -0.239 C  
HETATM   26  O   UNL     1      -9.602  12.659  66.936  1.00  0.00    -0.218 OA 
HETATM   27  H   UNL     1      -9.478  15.619  68.118  1.00  0.00     0.000 HD 
HETATM   28  C   UNL     1     -12.302  13.369  66.328  1.00  0.00    -0.349 C  
HETATM   29  C   UNL     1     -12.054  14.093  68.726  1.00  0.00    -0.326 A  
HETATM   30  C   UNL     1     -13.148  14.921  69.043  1.00  0.00     1.411 A  
HETATM   31  O   UNL     1     -13.360  13.811  65.891  1.00  0.00    -0.339 OA 
HETATM   32  O   UNL     1     -11.861  12.143  65.966  1.00  0.00    -0.522 OA 
HETATM   33  C   UNL     1     -13.685  14.940  70.334  1.00  0.00     0.374 A  
HETATM   34  C   UNL     1     -13.135  14.125  71.315  1.00  0.00    -0.350 A  
HETATM   35  C   UNL     1     -12.096  13.256  71.011  1.00  0.00    -0.154 A  
HETATM   36  O   UNL     1     -13.587  14.150  72.600  1.00  0.00    -0.506 OA 
HETATM   37  H   UNL     1     -13.211  13.592  73.271  1.00  0.00     0.000 HD 
HETATM   38  C   UNL     1     -11.564  13.229  69.720  1.00  0.00    -0.297 A  
ENDBRANCH   5  23
TORSDOF 5
ENDMDL
MODEL      115
REMARK 921   NORMALIZED FREE ENERGY PREDICTED BY IDOCK:   -4.31 KCAL/MOL
REMARK 922        TOTAL FREE ENERGY PREDICTED BY IDOCK:   -6.91 KCAL/MOL
REMARK 923 INTER-LIGAND FREE ENERGY PREDICTED BY IDOCK:   -7.29 KCAL/MOL
REMARK 924 INTRA-LIGAND FREE ENERGY PREDICTED BY IDOCK:    0.38 KCAL/MOL
REMARK 927      BINDING AFFINITY PREDICTED BY RF-SCORE:    0.00 PKD
ROOT
HETATM    1  C   UNL     1      -9.648   7.403  66.693  1.00  0.00    -0.190 C  
HETATM    2  O   UNL     1     -10.731   8.299  66.985  1.00  0.00    -0.307 OA 
HETATM    3  C   UNL     1     -10.632   9.518  66.247  1.00  0.00     0.052 C  
HETATM    4  C   UNL     1      -9.244  10.132  66.381  1.00  0.00    -0.190 C  
HETATM    5  C   UNL     1      -9.252   6.295  67.761  1.00  0.00    -0.115 C  
HETATM    6  C   UNL     1      -8.188   9.384  66.809  1.00  0.00    -0.112 C  
HETATM    7  N   UNL     1      -8.348   8.021  66.915  1.00  0.00    -0.114 N  
HETATM    8  C   UNL     1      -6.878  10.040  67.186  1.00  0.00    -0.082 C  
HETATM    9  O   UNL     1      -6.743  11.246  67.339  1.00  0.00    -0.072 OA 
HETATM   10  O   UNL     1      -5.818   9.219  67.315  1.00  0.00    -0.045 OA 
HETATM   11  O   UNL     1      -6.859   7.126  68.447  1.00  0.00    -0.068 OA 
HETATM   12  C   UNL     1      -7.895   7.126  67.821  1.00  0.00    -0.114 C  
ENDROOT
BRANCH   4  13
HETATM   13  C   UNL     1      -9.259  11.627  66.111  1.00  0.00    -0.219 C  
BRANCH  13  14
HETATM   14  S   UNL     1     -10.584  12.547  66.941  1.00  0.00    -0.239 SA 
BRANCH  14  15
HETATM   15  C   UNL     1      -9.748  13.674  67.933  1.00  0.00    -0.234 A  
HETATM   16  N   UNL     1      -8.464  13.717  68.200  1.00  0.00    -0.167 NA 
HETATM   17  C   UNL     1     -11.748  15.074  68.625  1.00  0.00    -0.337 C  
HETATM   18  N   UNL     1      -8.298  14.767  69.071  1.00  0.00    -0.165 NA 
HETATM   19  N   UNL     1      -9.456  15.363  69.326  1.00  0.00    -0.247 NA 
HETATM   20  N   UNL     1     -10.366  14.687  68.607  1.00  0.00    -0.239 NA 
ENDBRANCH  14  15
ENDBRANCH  13  14
ENDBRANCH   4  13
BRANCH   5  21
HETATM   21  O   UNL     1      -9.081   4.952  67.235  1.00  0.00    -0.113 OA 
HETATM   22  C   UNL     1      -9.934   4.564  66.168  1.00  0.00    -0.248 C  
ENDBRANCH   5  21
BRANCH   5  23
HETATM   23  N   UNL     1     -10.063   6.381  69.020  1.00  0.00    -0.157 N  
HETATM   24  C   UNL     1     -10.401   6.575  71.450  1.00  0.00    -0.234 C  
HETATM   25  C   UNL     1      -9.464   6.566  70.249  1.00  0.00    -0.162 C  
HETATM   26  O   UNL     1      -8.255   6.764  70.378  1.00  0.00    -0.121 OA 
HETATM   27  H   UNL     1     -11.078   6.300  68.967  1.00  0.00     0.000 HD 
HETATM   28  C   UNL     1      -9.726   6.202  72.763  1.00  0.00    -0.158 C  
HETATM   29  C   UNL     1     -11.186   7.879  71.580  1.00  0.00    -0.292 A  
HETATM   30  C   UNL     1     -12.448   7.868  72.204  1.00  0.00    -0.304 A  
HETATM   31  O   UNL     1     -10.354   5.730  73.705  1.00  0.00    -0.206 OA 
HETATM   32  O   UNL     1      -8.401   6.446  72.866  1.00  0.00    -0.117 OA 
HETATM   33  C   UNL     1     -13.218   9.032  72.287  1.00  0.00    -0.519 A  
HETATM   34  C   UNL     1     -12.727  10.216  71.754  1.00  0.00    -0.434 A  
HETATM   35  C   UNL     1     -11.459  10.265  71.189  1.00  0.00    -0.319 A  
HETATM   36  O   UNL     1     -13.463  11.363  71.761  1.00  0.00    -0.316 OA 
HETATM   37  H   UNL     1     -13.126  12.173  71.396  1.00  0.00     0.000 HD 
HETATM   38  C   UNL     1     -10.685   9.106  71.113  1.00  0.00    -0.380 A  
ENDBRANCH   5  23
TORSDOF 5
ENDMDL
MODEL      116
REMARK 921   NORMALIZED FREE ENERGY PREDICTED BY IDOCK:   -4.26 KCAL/MOL
REMARK 922        TOTAL FREE ENERGY PREDICTED BY IDOCK:   -6.86 KCAL/MOL
REMARK 923 INTER-LIGAND FREE ENERGY PREDICTED BY IDOCK:   -6.92 KCAL/MOL
REMARK 924 INTRA-LIGAND FREE ENERGY PREDICTED BY IDOCK:    0.07 KCAL/MOL
REMARK 927      BINDING AFFINITY PREDICTED BY RF-SCORE:    0.00 PKD
ROOT
HETATM    1  C   UNL     1      -9.211  12.405  68.138  1.00  0.00    -0.205 C  
HETATM    2  O   UNL     1      -8.157  11.548  68.603  1.00  0.00    -0.146 OA 
HETATM    3  C   UNL     1      -7.130  11.381  67.624  1.00  0.00    -0.092 C  
HETATM    4  C   UNL     1      -7.715  10.992  66.273  1.00  0.00    -0.132 C  
HETATM    5  C   UNL     1     -10.654  12.278  68.790  1.00  0.00    -0.194 C  
HETATM    6  C   UNL     1      -9.036  11.191  66.000  1.00  0.00    -0.200 C  
HETATM    7  N   UNL     1      -9.784  11.938  66.883  1.00  0.00    -0.198 N  
HETATM    8  C   UNL     1      -9.672  10.581  64.772  1.00  0.00    -0.305 C  
HETATM    9  O   UNL     1      -9.134   9.726  64.082  1.00  0.00    -0.237 OA 
HETATM   10  O   UNL     1     -10.885  11.058  64.430  1.00  0.00    -0.334 OA 
HETATM   11  O   UNL     1     -12.030  11.392  66.738  1.00  0.00    -0.383 OA 
HETATM   12  C   UNL     1     -11.055  11.812  67.322  1.00  0.00    -0.287 C  
ENDROOT
BRANCH   4  13
HETATM   13  C   UNL     1      -6.696  10.281  65.399  1.00  0.00    -0.123 C  
BRANCH  13  14
HETATM   14  S   UNL     1      -5.818   8.910  66.200  1.00  0.00    -0.051 SA 
BRANCH  14  15
HETATM   15  C   UNL     1      -6.443   7.509  65.428  1.00  0.00    -0.041 A  
HETATM   16  N   UNL     1      -5.913   6.827  64.439  1.00  0.00    -0.035 NA 
HETATM   17  C   UNL     1      -8.577   7.291  66.783  1.00  0.00    -0.127 C  
HETATM   18  N   UNL     1      -6.812   5.828  64.149  1.00  0.00    -0.048 NA 
HETATM   19  N   UNL     1      -7.868   5.889  64.949  1.00  0.00    -0.101 NA 
HETATM   20  N   UNL     1      -7.637   6.936  65.759  1.00  0.00    -0.087 NA 
ENDBRANCH  14  15
ENDBRANCH  13  14
ENDBRANCH   4  13
BRANCH   5  21
HETATM   21  O   UNL     1     -11.273  13.531  69.184  1.00  0.00    -0.260 OA 
HETATM   22  C   UNL     1     -10.437  14.678  69.230  1.00  0.00    -0.209 C  
ENDBRANCH   5  21
BRANCH   5  23
HETATM   23  N   UNL     1     -10.739  11.183  69.811  1.00  0.00    -0.462 N  
HETATM   24  C   UNL     1     -10.881   8.848  70.574  1.00  0.00    -0.276 C  
HETATM   25  C   UNL     1     -10.728   9.854  69.441  1.00  0.00    -0.232 C  
HETATM   26  O   UNL     1     -10.556   9.487  68.278  1.00  0.00    -0.214 OA 
HETATM   27  H   UNL     1     -10.808  11.425  70.799  1.00  0.00     0.000 HD 
HETATM   28  C   UNL     1     -11.435   7.500  70.134  1.00  0.00    -0.095 C  
HETATM   29  C   UNL     1      -9.604   8.681  71.396  1.00  0.00    -0.313 A  
HETATM   30  C   UNL     1      -9.696   8.298  72.748  1.00  0.00    -0.336 A  
HETATM   31  O   UNL     1     -12.030   6.757  70.908  1.00  0.00    -0.363 OA 
HETATM   32  O   UNL     1     -11.213   7.131  68.853  1.00  0.00    -0.045 OA 
HETATM   33  C   UNL     1      -8.551   8.194  73.544  1.00  0.00    -0.313 A  
HETATM   34  C   UNL     1      -7.306   8.465  72.991  1.00  0.00    -0.059 A  
HETATM   35  C   UNL     1      -7.185   8.785  71.645  1.00  0.00    -0.095 A  
HETATM   36  O   UNL     1      -6.169   8.431  73.739  1.00  0.00    -0.107 OA 
HETATM   37  H   UNL     1      -5.317   8.617  73.360  1.00  0.00     0.000 HD 
HETATM   38  C   UNL     1      -8.327   8.880  70.846  1.00  0.00    -0.219 A  
ENDBRANCH   5  23
TORSDOF 5
ENDMDL
MODEL      117
REMARK 921   NORMALIZED FREE ENERGY PREDICTED BY IDOCK:   -4.25 KCAL/MOL
REMARK 922        TOTAL FREE ENERGY PREDICTED BY IDOCK:   -6.84 KCAL/MOL
REMARK 923 INTER-LIGAND FREE ENERGY PREDICTED BY IDOCK:   -5.44 KCAL/MOL
REMARK 924 INTRA-LIGAND FREE ENERGY PREDICTED BY IDOCK:   -1.40 KCAL/MOL
REMARK 927      BINDING AFFINITY PREDICTED BY RF-SCORE:    0.00 PKD
ROOT
HETATM    1  C   UNL     1      -9.771   6.676  66.534  1.00  0.00    -0.121 C  
HETATM    2  O   UNL     1     -10.441   7.831  67.063  1.00  0.00    -0.309 OA 
HETATM    3  C   UNL     1     -10.178   9.004  66.290  1.00  0.00    -0.167 C  
HETATM    4  C   UNL     1      -8.684   9.186  66.056  1.00  0.00    -0.176 C  
HETATM    5  C   UNL     1      -9.462   5.453  67.499  1.00  0.00    -0.121 C  
HETATM    6  C   UNL     1      -7.818   8.147  66.226  1.00  0.00    -0.095 C  
HETATM    7  N   UNL     1      -8.335   6.883  66.406  1.00  0.00    -0.119 N  
HETATM    8  C   UNL     1      -6.325   8.380  66.246  1.00  0.00    -0.053 C  
HETATM    9  O   UNL     1      -5.812   9.488  66.327  1.00  0.00    -0.055 OA 
HETATM   10  O   UNL     1      -5.549   7.285  66.128  1.00  0.00    -0.026 OA 
HETATM   11  O   UNL     1      -6.839   5.528  67.541  1.00  0.00    -0.057 OA 
HETATM   12  C   UNL     1      -7.952   5.855  67.194  1.00  0.00    -0.102 C  
ENDROOT
BRANCH   4  13
HETATM   13  C   UNL     1      -8.331  10.633  65.757  1.00  0.00    -0.162 C  
BRANCH  13  14
HETATM   14  S   UNL     1      -8.794  11.821  67.048  1.00  0.00    -0.187 SA 
BRANCH  14  15
HETATM   15  C   UNL     1      -8.420  11.007  68.514  1.00  0.00    -0.153 A  
HETATM   16  N   UNL     1      -9.193  10.213  69.217  1.00  0.00    -0.198 NA 
HETATM   17  C   UNL     1      -6.044  11.855  68.783  1.00  0.00    -0.055 C  
HETATM   18  N   UNL     1      -8.457   9.854  70.320  1.00  0.00    -0.127 NA 
HETATM   19  N   UNL     1      -7.252  10.408  70.292  1.00  0.00    -0.245 NA 
HETATM   20  N   UNL     1      -7.221  11.125  69.156  1.00  0.00    -0.118 NA 
ENDBRANCH  14  15
ENDBRANCH  13  14
ENDBRANCH   4  13
BRANCH   5  21
HETATM   21  O   UNL     1      -9.823   4.143  66.983  1.00  0.00    -0.212 OA 
HETATM   22  C   UNL     1      -9.593   3.909  65.601  1.00  0.00    -0.182 C  
ENDBRANCH   5  21
BRANCH   5  23
HETATM   23  N   UNL     1      -9.877   5.708  68.917  1.00  0.00    -0.137 N  
HETATM   24  C   UNL     1     -10.198   5.130  71.288  1.00  0.00    -0.292 C  
HETATM   25  C   UNL     1      -9.676   4.765  69.904  1.00  0.00    -0.204 C  
HETATM   26  O   UNL     1      -9.070   3.711  69.706  1.00  0.00    -0.095 OA 
HETATM   27  H   UNL     1     -10.316   6.596  69.158  1.00  0.00     0.000 HD 
HETATM   28  C   UNL     1     -10.495   3.929  72.174  1.00  0.00     0.011 C  
HETATM   29  C   UNL     1      -9.311   6.145  72.008  1.00  0.00    -0.154 A  
HETATM   30  C   UNL     1      -9.882   7.011  72.959  1.00  0.00    -0.217 A  
HETATM   31  O   UNL     1     -11.304   3.984  73.094  1.00  0.00    -0.168 OA 
HETATM   32  O   UNL     1      -9.799   2.796  71.930  1.00  0.00    -0.150 OA 
HETATM   33  C   UNL     1      -9.111   7.991  73.593  1.00  0.00    -0.299 A  
HETATM   34  C   UNL     1      -7.761   8.104  73.283  1.00  0.00    -0.159 A  
HETATM   35  C   UNL     1      -7.163   7.222  72.394  1.00  0.00    -0.071 A  
HETATM   36  O   UNL     1      -6.982   9.078  73.832  1.00  0.00    -0.363 OA 
HETATM   37  H   UNL     1      -6.059   9.155  73.621  1.00  0.00     0.000 HD 
HETATM   38  C   UNL     1      -7.930   6.237  71.767  1.00  0.00    -0.102 A  
ENDBRANCH   5  23
TORSDOF 5
ENDMDL
MODEL      118
REMARK 921   NORMALIZED FREE ENERGY PREDICTED BY IDOCK:   -4.23 KCAL/MOL
REMARK 922        TOTAL FREE ENERGY PREDICTED BY IDOCK:   -6.81 KCAL/MOL
REMARK 923 INTER-LIGAND FREE ENERGY PREDICTED BY IDOCK:   -6.41 KCAL/MOL
REMARK 924 INTRA-LIGAND FREE ENERGY PREDICTED BY IDOCK:   -0.41 KCAL/MOL
REMARK 927      BINDING AFFINITY PREDICTED BY RF-SCORE:    0.00 PKD
ROOT
HETATM    1  C   UNL     1     -10.482  12.243  68.891  1.00  0.00    -0.101 C  
HETATM    2  O   UNL     1      -9.184  12.849  68.981  1.00  0.00     0.236 OA 
HETATM    3  C   UNL     1      -9.169  14.167  68.429  1.00  0.00    -0.203 C  
HETATM    4  C   UNL     1      -9.786  14.188  67.036  1.00  0.00    -0.258 C  
HETATM    5  C   UNL     1     -10.598  10.658  68.909  1.00  0.00    -0.212 C  
HETATM    6  C   UNL     1     -10.580  13.166  66.609  1.00  0.00    -0.279 C  
HETATM    7  N   UNL     1     -10.986  12.221  67.525  1.00  0.00    -0.242 N  
HETATM    8  C   UNL     1     -10.983  13.056  65.156  1.00  0.00    -0.295 C  
HETATM    9  O   UNL     1     -10.475  13.715  64.258  1.00  0.00    -0.392 OA 
HETATM   10  O   UNL     1     -11.986  12.200  64.879  1.00  0.00    -0.353 OA 
HETATM   11  O   UNL     1     -11.492  10.216  66.482  1.00  0.00     0.337 OA 
HETATM   12  C   UNL     1     -11.146  10.883  67.432  1.00  0.00    -0.307 C  
ENDROOT
BRANCH   4  13
HETATM   13  C   UNL     1      -9.301  15.374  66.221  1.00  0.00    -0.316 C  
BRANCH  13  14
HETATM   14  S   UNL     1      -9.982  16.981  66.716  1.00  0.00    -0.307 SA 
BRANCH  14  15
HETATM   15  C   UNL     1      -8.630  18.039  66.662  1.00  0.00    -0.263 A  
HETATM   16  N   UNL     1      -8.373  18.977  65.781  1.00  0.00    -0.384 NA 
HETATM   17  C   UNL     1      -7.432  17.173  68.724  1.00  0.00    -0.250 C  
HETATM   18  N   UNL     1      -7.159  19.509  66.143  1.00  0.00    -0.244 NA 
HETATM   19  N   UNL     1      -6.684  18.917  67.231  1.00  0.00    -0.204 NA 
HETATM   20  N   UNL     1      -7.607  18.001  67.565  1.00  0.00    -0.207 NA 
ENDBRANCH  14  15
ENDBRANCH  13  14
ENDBRANCH   4  13
BRANCH   5  21
HETATM   21  O   UNL     1     -11.595  10.115  69.815  1.00  0.00    -0.235 OA 
HETATM   22  C   UNL     1     -12.371  11.047  70.554  1.00  0.00    -0.373 C  
ENDBRANCH   5  21
BRANCH   5  23
HETATM   23  N   UNL     1      -9.263   9.976  68.957  1.00  0.00    -0.167 N  
HETATM   24  C   UNL     1      -7.413   8.764  70.036  1.00  0.00    -0.054 C  
HETATM   25  C   UNL     1      -8.809   9.367  70.109  1.00  0.00    -0.223 C  
HETATM   26  O   UNL     1      -9.498   9.266  71.125  1.00  0.00    -0.267 OA 
HETATM   27  H   UNL     1      -8.679   9.961  68.122  1.00  0.00     0.000 HD 
HETATM   28  C   UNL     1      -6.723   8.635  71.387  1.00  0.00    -0.076 C  
HETATM   29  C   UNL     1      -7.376   7.445  69.266  1.00  0.00    -0.086 A  
HETATM   30  C   UNL     1      -6.193   7.062  68.605  1.00  0.00    -0.027 A  
HETATM   31  O   UNL     1      -5.501   8.606  71.493  1.00  0.00    -0.034 OA 
HETATM   32  O   UNL     1      -7.516   8.514  72.475  1.00  0.00    -0.238 OA 
HETATM   33  C   UNL     1      -6.144   5.891  67.842  1.00  0.00    -0.021 A  
HETATM   34  C   UNL     1      -7.276   5.092  67.743  1.00  0.00    -0.070 A  
HETATM   35  C   UNL     1      -8.434   5.417  68.436  1.00  0.00    -0.096 A  
HETATM   36  O   UNL     1      -7.293   3.971  66.968  1.00  0.00    -0.070 OA 
HETATM   37  H   UNL     1      -8.067   3.424  66.901  1.00  0.00     0.000 HD 
HETATM   38  C   UNL     1      -8.482   6.581  69.205  1.00  0.00    -0.126 A  
ENDBRANCH   5  23
TORSDOF 5
ENDMDL
MODEL      119
REMARK 921   NORMALIZED FREE ENERGY PREDICTED BY IDOCK:   -4.21 KCAL/MOL
REMARK 922        TOTAL FREE ENERGY PREDICTED BY IDOCK:   -6.78 KCAL/MOL
REMARK 923 INTER-LIGAND FREE ENERGY PREDICTED BY IDOCK:   -7.47 KCAL/MOL
REMARK 924 INTRA-LIGAND FREE ENERGY PREDICTED BY IDOCK:    0.69 KCAL/MOL
REMARK 927      BINDING AFFINITY PREDICTED BY RF-SCORE:    0.00 PKD
ROOT
HETATM    1  C   UNL     1      -9.268   8.970  65.483  1.00  0.00    -0.198 C  
HETATM    2  O   UNL     1     -10.357   9.550  66.217  1.00  0.00    -0.244 OA 
HETATM    3  C   UNL     1     -10.399  10.972  66.080  1.00  0.00    -0.254 C  
HETATM    4  C   UNL     1      -9.038  11.593  66.365  1.00  0.00    -0.209 C  
HETATM    5  C   UNL     1      -8.705   7.553  65.928  1.00  0.00    -0.147 C  
HETATM    6  C   UNL     1      -7.906  10.835  66.343  1.00  0.00    -0.148 C  
HETATM    7  N   UNL     1      -7.985   9.549  65.855  1.00  0.00    -0.109 N  
HETATM    8  C   UNL     1      -6.598  11.382  66.870  1.00  0.00    -0.141 C  
HETATM    9  O   UNL     1      -6.508  12.412  67.524  1.00  0.00    -0.115 OA 
HETATM   10  O   UNL     1      -5.490  10.687  66.549  1.00  0.00    -0.053 OA 
HETATM   11  O   UNL     1      -6.297   8.225  66.727  1.00  0.00    -0.053 OA 
HETATM   12  C   UNL     1      -7.393   8.398  66.242  1.00  0.00    -0.086 C  
ENDROOT
BRANCH   4  13
HETATM   13  C   UNL     1      -9.157  13.051  66.776  1.00  0.00    -0.210 C  
BRANCH  13  14
HETATM   14  S   UNL     1     -10.648  13.899  66.186  1.00  0.00    -0.296 SA 
BRANCH  14  15
HETATM   15  C   UNL     1     -10.744  15.303  67.170  1.00  0.00    -0.316 A  
HETATM   16  N   UNL     1     -10.295  16.508  66.904  1.00  0.00    -0.299 NA 
HETATM   17  C   UNL     1     -11.948  14.260  69.145  1.00  0.00    -0.335 C  
HETATM   18  N   UNL     1     -10.571  17.265  68.018  1.00  0.00    -0.384 NA 
HETATM   19  N   UNL     1     -11.185  16.542  68.946  1.00  0.00    -0.297 NA 
HETATM   20  N   UNL     1     -11.303  15.314  68.415  1.00  0.00    -0.313 NA 
ENDBRANCH  14  15
ENDBRANCH  13  14
ENDBRANCH   4  13
BRANCH   5  21
HETATM   21  O   UNL     1      -8.523   6.589  64.856  1.00  0.00    -0.093 OA 
HETATM   22  C   UNL     1      -8.896   5.245  65.127  1.00  0.00    -0.129 C  
ENDBRANCH   5  21
BRANCH   5  23
HETATM   23  N   UNL     1      -9.380   7.014  67.154  1.00  0.00    -0.138 N  
HETATM   24  C   UNL     1      -9.494   6.282  69.500  1.00  0.00    -0.151 C  
HETATM   25  C   UNL     1      -8.707   6.900  68.352  1.00  0.00    -0.124 C  
HETATM   26  O   UNL     1      -7.557   7.312  68.513  1.00  0.00    -0.111 OA 
HETATM   27  H   UNL     1     -10.357   6.727  67.101  1.00  0.00     0.000 HD 
HETATM   28  C   UNL     1      -8.624   5.647  70.576  1.00  0.00    -0.129 C  
HETATM   29  C   UNL     1     -10.511   7.246  70.108  1.00  0.00    -0.229 A  
HETATM   30  C   UNL     1     -11.672   6.734  70.718  1.00  0.00    -0.439 A  
HETATM   31  O   UNL     1      -9.039   4.751  71.303  1.00  0.00    -0.131 OA 
HETATM   32  O   UNL     1      -7.373   6.138  70.727  1.00  0.00    -0.078 OA 
HETATM   33  C   UNL     1     -12.652   7.590  71.231  1.00  0.00    -0.345 A  
HETATM   34  C   UNL     1     -12.472   8.964  71.143  1.00  0.00    -0.214 A  
HETATM   35  C   UNL     1     -11.308   9.492  70.602  1.00  0.00    -0.364 A  
HETATM   36  O   UNL     1     -13.423   9.838  71.578  1.00  0.00    -0.373 OA 
HETATM   37  H   UNL     1     -13.300  10.778  71.519  1.00  0.00     0.000 HD 
HETATM   38  C   UNL     1     -10.325   8.639  70.097  1.00  0.00    -0.219 A  
ENDBRANCH   5  23
TORSDOF 5
ENDMDL
MODEL      120
REMARK 921   NORMALIZED FREE ENERGY PREDICTED BY IDOCK:   -4.21 KCAL/MOL
REMARK 922        TOTAL FREE ENERGY PREDICTED BY IDOCK:   -6.78 KCAL/MOL
REMARK 923 INTER-LIGAND FREE ENERGY PREDICTED BY IDOCK:   -5.01 KCAL/MOL
REMARK 924 INTRA-LIGAND FREE ENERGY PREDICTED BY IDOCK:   -1.77 KCAL/MOL
REMARK 927      BINDING AFFINITY PREDICTED BY RF-SCORE:    0.00 PKD
ROOT
HETATM    1  C   UNL     1      -8.273   7.562  66.798  1.00  0.00    -0.124 C  
HETATM    2  O   UNL     1      -7.042   6.963  67.231  1.00  0.00    -0.078 OA 
HETATM    3  C   UNL     1      -6.407   6.226  66.184  1.00  0.00    -0.039 C  
HETATM    4  C   UNL     1      -7.382   5.264  65.518  1.00  0.00    -0.069 C  
HETATM    5  C   UNL     1      -9.379   7.921  67.879  1.00  0.00    -0.141 C  
HETATM    6  C   UNL     1      -8.728   5.422  65.663  1.00  0.00    -0.152 C  
HETATM    7  N   UNL     1      -9.195   6.581  66.242  1.00  0.00    -0.155 N  
HETATM    8  C   UNL     1      -9.686   4.338  65.224  1.00  0.00    -0.197 C  
HETATM    9  O   UNL     1      -9.336   3.204  64.924  1.00  0.00    -0.143 OA 
HETATM   10  O   UNL     1     -10.983   4.689  65.136  1.00  0.00    -0.182 OA 
HETATM   11  O   UNL     1     -11.284   6.254  67.187  1.00  0.00    -0.334 OA 
HETATM   12  C   UNL     1     -10.216   6.816  67.096  1.00  0.00    -0.225 C  
ENDROOT
BRANCH   4  13
HETATM   13  C   UNL     1      -6.663   4.114  64.833  1.00  0.00    -0.048 C  
BRANCH  13  14
HETATM   14  S   UNL     1      -5.460   3.233  65.867  1.00  0.00    -0.018 SA 
BRANCH  14  15
HETATM   15  C   UNL     1      -6.409   2.581  67.143  1.00  0.00    -0.032 A  
HETATM   16  N   UNL     1      -7.315   1.635  67.073  1.00  0.00    -0.054 NA 
HETATM   17  C   UNL     1      -5.489   4.015  69.023  1.00  0.00    -0.012 C  
HETATM   18  N   UNL     1      -7.820   1.505  68.345  1.00  0.00    -0.049 NA 
HETATM   19  N   UNL     1      -7.229   2.348  69.181  1.00  0.00    -0.044 NA 
HETATM   20  N   UNL     1      -6.336   3.018  68.433  1.00  0.00    -0.029 NA 
ENDBRANCH  14  15
ENDBRANCH  13  14
ENDBRANCH   4  13
BRANCH   5  21
HETATM   21  O   UNL     1      -9.947   9.254  67.773  1.00  0.00    -0.170 OA 
HETATM   22  C   UNL     1      -9.368  10.127  66.814  1.00  0.00    -0.160 C  
ENDBRANCH   5  21
BRANCH   5  23
HETATM   23  N   UNL     1      -8.994   7.509  69.269  1.00  0.00    -0.136 N  
HETATM   24  C   UNL     1      -9.359   7.169  71.679  1.00  0.00    -0.158 C  
HETATM   25  C   UNL     1      -9.899   7.560  70.309  1.00  0.00    -0.183 C  
HETATM   26  O   UNL     1     -11.084   7.852  70.148  1.00  0.00    -0.255 OA 
HETATM   27  H   UNL     1      -8.044   7.184  69.449  1.00  0.00     0.000 HD 
HETATM   28  C   UNL     1     -10.139   7.762  72.844  1.00  0.00    -0.301 C  
HETATM   29  C   UNL     1      -9.184   5.660  71.839  1.00  0.00    -0.157 A  
HETATM   30  C   UNL     1      -8.205   5.167  72.722  1.00  0.00    -0.109 A  
HETATM   31  O   UNL     1      -9.629   7.938  73.945  1.00  0.00    -0.178 OA 
HETATM   32  O   UNL     1     -11.440   8.058  72.627  1.00  0.00    -0.381 OA 
HETATM   33  C   UNL     1      -7.979   3.792  72.849  1.00  0.00    -0.078 A  
HETATM   34  C   UNL     1      -8.736   2.903  72.098  1.00  0.00    -0.074 A  
HETATM   35  C   UNL     1      -9.749   3.363  71.266  1.00  0.00    -0.227 A  
HETATM   36  O   UNL     1      -8.515   1.560  72.145  1.00  0.00    -0.048 OA 
HETATM   37  H   UNL     1      -9.034   0.951  71.631  1.00  0.00     0.000 HD 
HETATM   38  C   UNL     1      -9.982   4.735  71.146  1.00  0.00    -0.273 A  
ENDBRANCH   5  23
TORSDOF 5
ENDMDL
MODEL      121
REMARK 921   NORMALIZED FREE ENERGY PREDICTED BY IDOCK:   -4.19 KCAL/MOL
REMARK 922        TOTAL FREE ENERGY PREDICTED BY IDOCK:   -6.76 KCAL/MOL
REMARK 923 INTER-LIGAND FREE ENERGY PREDICTED BY IDOCK:   -7.47 KCAL/MOL
REMARK 924 INTRA-LIGAND FREE ENERGY PREDICTED BY IDOCK:    0.72 KCAL/MOL
REMARK 927      BINDING AFFINITY PREDICTED BY RF-SCORE:    0.00 PKD
ROOT
HETATM    1  C   UNL     1      -9.794   7.589  66.541  1.00  0.00    -0.156 C  
HETATM    2  O   UNL     1     -10.144   8.807  67.217  1.00  0.00    -0.195 OA 
HETATM    3  C   UNL     1      -9.188   9.843  66.984  1.00  0.00    -0.142 C  
HETATM    4  C   UNL     1      -7.770   9.354  67.249  1.00  0.00    -0.091 C  
HETATM    5  C   UNL     1     -10.362   6.211  67.089  1.00  0.00    -0.230 C  
HETATM    6  C   UNL     1      -7.488   8.021  67.297  1.00  0.00    -0.093 C  
HETATM    7  N   UNL     1      -8.458   7.130  66.895  1.00  0.00    -0.120 N  
HETATM    8  C   UNL     1      -6.152   7.531  67.807  1.00  0.00    -0.044 C  
HETATM    9  O   UNL     1      -5.346   8.243  68.392  1.00  0.00    -0.032 OA 
HETATM   10  O   UNL     1      -5.853   6.243  67.551  1.00  0.00    -0.015 OA 
HETATM   11  O   UNL     1      -8.141   5.058  67.881  1.00  0.00    -0.097 OA 
HETATM   12  C   UNL     1      -8.823   5.918  67.368  1.00  0.00    -0.106 C  
ENDROOT
BRANCH   4  13
HETATM   13  C   UNL     1      -6.825  10.502  67.560  1.00  0.00    -0.075 C  
BRANCH  13  14
HETATM   14  S   UNL     1      -7.085  11.300  69.168  1.00  0.00    -0.112 SA 
BRANCH  14  15
HETATM   15  C   UNL     1      -7.173  12.974  68.792  1.00  0.00    -0.082 A  
HETATM   16  N   UNL     1      -7.813  13.545  67.798  1.00  0.00    -0.150 NA 
HETATM   17  C   UNL     1      -5.725  13.831  70.690  1.00  0.00    -0.182 C  
HETATM   18  N   UNL     1      -7.540  14.888  67.901  1.00  0.00    -0.122 NA 
HETATM   19  N   UNL     1      -6.756  15.138  68.941  1.00  0.00    -0.105 NA 
HETATM   20  N   UNL     1      -6.531  13.941  69.508  1.00  0.00    -0.116 NA 
ENDBRANCH  14  15
ENDBRANCH  13  14
ENDBRANCH   4  13
BRANCH   5  21
HETATM   21  O   UNL     1     -10.942   5.332  66.088  1.00  0.00    -0.213 OA 
HETATM   22  C   UNL     1     -10.071   4.396  65.470  1.00  0.00    -0.236 C  
ENDBRANCH   5  21
BRANCH   5  23
HETATM   23  N   UNL     1     -11.179   6.370  68.337  1.00  0.00    -0.532 N  
HETATM   24  C   UNL     1     -11.575   6.331  70.766  1.00  0.00    -0.347 C  
HETATM   25  C   UNL     1     -10.619   6.199  69.587  1.00  0.00    -0.284 C  
HETATM   26  O   UNL     1      -9.416   6.000  69.758  1.00  0.00    -0.147 OA 
HETATM   27  H   UNL     1     -12.167   6.609  68.261  1.00  0.00     0.000 HD 
HETATM   28  C   UNL     1     -11.116   5.599  72.019  1.00  0.00    -0.230 C  
HETATM   29  C   UNL     1     -11.939   7.783  71.074  1.00  0.00    -0.281 A  
HETATM   30  C   UNL     1     -13.179   8.073  71.674  1.00  0.00    -0.358 A  
HETATM   31  O   UNL     1     -11.907   5.219  72.877  1.00  0.00    -0.271 OA 
HETATM   32  O   UNL     1      -9.786   5.413  72.172  1.00  0.00    -0.158 OA 
HETATM   33  C   UNL     1     -13.569   9.394  71.915  1.00  0.00    -0.482 A  
HETATM   34  C   UNL     1     -12.717  10.433  71.563  1.00  0.00    -0.459 A  
HETATM   35  C   UNL     1     -11.464  10.169  71.026  1.00  0.00    -0.436 A  
HETATM   36  O   UNL     1     -13.076  11.737  71.726  1.00  0.00    -0.463 OA 
HETATM   37  H   UNL     1     -12.493  12.448  71.486  1.00  0.00     0.000 HD 
HETATM   38  C   UNL     1     -11.070   8.850  70.793  1.00  0.00    -0.312 A  
ENDBRANCH   5  23
TORSDOF 5
ENDMDL
MODEL      122
REMARK 921   NORMALIZED FREE ENERGY PREDICTED BY IDOCK:   -4.18 KCAL/MOL
REMARK 922        TOTAL FREE ENERGY PREDICTED BY IDOCK:   -6.74 KCAL/MOL
REMARK 923 INTER-LIGAND FREE ENERGY PREDICTED BY IDOCK:   -5.31 KCAL/MOL
REMARK 924 INTRA-LIGAND FREE ENERGY PREDICTED BY IDOCK:   -1.43 KCAL/MOL
REMARK 927      BINDING AFFINITY PREDICTED BY RF-SCORE:    0.00 PKD
ROOT
HETATM    1  C   UNL     1     -11.752  12.002  69.781  1.00  0.00    -0.319 C  
HETATM    2  O   UNL     1     -12.510  11.051  69.018  1.00  0.00    -0.449 OA 
HETATM    3  C   UNL     1     -12.367   9.723  69.524  1.00  0.00     0.780 C  
HETATM    4  C   UNL     1     -10.899   9.361  69.714  1.00  0.00    -0.250 C  
HETATM    5  C   UNL     1     -11.318  13.370  69.098  1.00  0.00    -0.280 C  
HETATM    6  C   UNL     1      -9.943  10.330  69.768  1.00  0.00    -0.181 C  
HETATM    7  N   UNL     1     -10.343  11.644  69.861  1.00  0.00     0.700 N  
HETATM    8  C   UNL     1      -8.475   9.972  69.700  1.00  0.00    -0.180 C  
HETATM    9  O   UNL     1      -8.060   8.865  69.384  1.00  0.00    -0.100 OA 
HETATM   10  O   UNL     1      -7.609  10.943  70.048  1.00  0.00     0.038 OA 
HETATM   11  O   UNL     1      -8.711  13.069  69.041  1.00  0.00     0.239 OA 
HETATM   12  C   UNL     1      -9.855  12.778  69.311  1.00  0.00     0.680 C  
ENDROOT
BRANCH   4  13
HETATM   13  C   UNL     1     -10.681   7.858  69.698  1.00  0.00    -0.218 C  
BRANCH  13  14
HETATM   14  S   UNL     1     -11.400   6.990  68.275  1.00  0.00     0.417 SA 
BRANCH  14  15
HETATM   15  C   UNL     1     -10.174   7.075  67.075  1.00  0.00    -0.260 A  
HETATM   16  N   UNL     1      -9.643   8.148  66.537  1.00  0.00    -0.224 NA 
HETATM   17  C   UNL     1      -9.826   4.581  66.760  1.00  0.00    -0.221 C  
HETATM   18  N   UNL     1      -8.746   7.693  65.601  1.00  0.00    -0.130 NA 
HETATM   19  N   UNL     1      -8.718   6.367  65.571  1.00  0.00    -0.112 NA 
HETATM   20  N   UNL     1      -9.605   5.975  66.500  1.00  0.00    -0.155 NA 
ENDBRANCH  14  15
ENDBRANCH  13  14
ENDBRANCH   4  13
BRANCH   5  21
HETATM   21  O   UNL     1     -11.572  14.567  69.881  1.00  0.00    -0.262 OA 
HETATM   22  C   UNL     1     -12.690  14.540  70.757  1.00  0.00    -0.360 C  
ENDBRANCH   5  21
BRANCH   5  23
HETATM   23  N   UNL     1     -11.726  13.459  67.658  1.00  0.00    -0.340 N  
HETATM   24  C   UNL     1     -11.691  14.394  65.382  1.00  0.00    -0.362 C  
HETATM   25  C   UNL     1     -11.141  14.369  66.802  1.00  0.00    -0.323 C  
HETATM   26  O   UNL     1     -10.198  15.088  67.136  1.00  0.00    -0.245 OA 
HETATM   27  H   UNL     1     -12.451  12.836  67.304  1.00  0.00     0.000 HD 
HETATM   28  C   UNL     1     -11.476  15.716  64.658  1.00  0.00    -0.303 C  
HETATM   29  C   UNL     1     -11.208  13.215  64.538  1.00  0.00    -0.383 A  
HETATM   30  C   UNL     1     -12.011  12.745  63.481  1.00  0.00    -0.633 A  
HETATM   31  O   UNL     1     -12.201  16.078  63.737  1.00  0.00    -0.895 OA 
HETATM   32  O   UNL     1     -10.423  16.468  65.048  1.00  0.00    -0.652 OA 
HETATM   33  C   UNL     1     -11.628  11.632  62.728  1.00  0.00     0.622 A  
HETATM   34  C   UNL     1     -10.434  10.985  63.022  1.00  0.00    -0.004 A  
HETATM   35  C   UNL     1      -9.596  11.467  64.019  1.00  0.00    -0.224 A  
HETATM   36  O   UNL     1     -10.045   9.864  62.353  1.00  0.00    -0.544 OA 
HETATM   37  H   UNL     1      -9.228   9.422  62.555  1.00  0.00     0.000 HD 
HETATM   38  C   UNL     1      -9.974  12.584  64.767  1.00  0.00    -0.177 A  
ENDBRANCH   5  23
TORSDOF 5
ENDMDL
MODEL      123
REMARK 921   NORMALIZED FREE ENERGY PREDICTED BY IDOCK:   -4.12 KCAL/MOL
REMARK 922        TOTAL FREE ENERGY PREDICTED BY IDOCK:   -6.68 KCAL/MOL
REMARK 923 INTER-LIGAND FREE ENERGY PREDICTED BY IDOCK:   -6.31 KCAL/MOL
REMARK 924 INTRA-LIGAND FREE ENERGY PREDICTED BY IDOCK:   -0.37 KCAL/MOL
REMARK 927      BINDING AFFINITY PREDICTED BY RF-SCORE:    0.00 PKD
ROOT
HETATM    1  C   UNL     1      -8.472   9.248  68.534  1.00  0.00    -0.123 C  
HETATM    2  O   UNL     1      -9.576   9.214  69.451  1.00  0.00    -0.159 OA 
HETATM    3  C   UNL     1      -9.697   7.946  70.099  1.00  0.00    -0.179 C  
HETATM    4  C   UNL     1      -9.674   6.807  69.087  1.00  0.00    -0.147 C  
HETATM    5  C   UNL     1      -8.492  10.296  67.340  1.00  0.00    -0.125 C  
HETATM    6  C   UNL     1      -9.200   7.003  67.825  1.00  0.00    -0.124 C  
HETATM    7  N   UNL     1      -8.548   8.182  67.543  1.00  0.00    -0.129 N  
HETATM    8  C   UNL     1      -9.409   5.960  66.750  1.00  0.00    -0.136 C  
HETATM    9  O   UNL     1     -10.171   5.010  66.865  1.00  0.00    -0.208 OA 
HETATM   10  O   UNL     1      -8.669   6.101  65.633  1.00  0.00    -0.154 OA 
HETATM   11  O   UNL     1      -8.660   8.674  65.283  1.00  0.00    -0.172 OA 
HETATM   12  C   UNL     1      -8.550   8.977  66.450  1.00  0.00    -0.125 C  
ENDROOT
BRANCH   4  13
HETATM   13  C   UNL     1     -10.340   5.554  69.632  1.00  0.00    -0.289 C  
BRANCH  13  14
HETATM   14  S   UNL     1      -9.233   4.411  70.504  1.00  0.00    -0.139 SA 
BRANCH  14  15
HETATM   15  C   UNL     1      -9.024   5.133  72.049  1.00  0.00    -0.133 A  
HETATM   16  N   UNL     1      -7.901   5.478  72.634  1.00  0.00    -0.102 NA 
HETATM   17  C   UNL     1     -11.472   5.249  72.708  1.00  0.00    -0.247 C  
HETATM   18  N   UNL     1      -8.257   5.966  73.869  1.00  0.00    -0.109 NA 
HETATM   19  N   UNL     1      -9.573   5.930  74.035  1.00  0.00    -0.150 NA 
HETATM   20  N   UNL     1     -10.059   5.417  72.893  1.00  0.00    -0.172 NA 
ENDBRANCH  14  15
ENDBRANCH  13  14
ENDBRANCH   4  13
BRANCH   5  21
HETATM   21  O   UNL     1      -7.269  11.058  67.157  1.00  0.00    -0.099 OA 
HETATM   22  C   UNL     1      -6.412  10.659  66.097  1.00  0.00    -0.131 C  
ENDBRANCH   5  21
BRANCH   5  23
HETATM   23  N   UNL     1      -9.753  11.106  67.294  1.00  0.00    -0.165 N  
HETATM   24  C   UNL     1     -11.325  12.836  68.066  1.00  0.00    -0.335 C  
HETATM   25  C   UNL     1      -9.978  12.135  68.186  1.00  0.00    -0.201 C  
HETATM   26  O   UNL     1      -9.133  12.507  69.001  1.00  0.00     0.233 OA 
HETATM   27  H   UNL     1     -10.459  10.893  66.590  1.00  0.00     0.000 HD 
HETATM   28  C   UNL     1     -11.783  13.520  69.346  1.00  0.00    -0.325 C  
HETATM   29  C   UNL     1     -11.393  13.789  66.874  1.00  0.00    -0.345 A  
HETATM   30  C   UNL     1     -12.636  14.051  66.267  1.00  0.00    -0.352 A  
HETATM   31  O   UNL     1     -12.968  13.731  69.583  1.00  0.00     0.226 OA 
HETATM   32  O   UNL     1     -10.822  13.923  70.207  1.00  0.00     0.297 OA 
HETATM   33  C   UNL     1     -12.726  14.871  65.138  1.00  0.00     0.169 A  
HETATM   34  C   UNL     1     -11.573  15.440  64.613  1.00  0.00    -0.311 A  
HETATM   35  C   UNL     1     -10.344  15.245  65.230  1.00  0.00    -0.430 A  
HETATM   36  O   UNL     1     -11.602  16.200  63.483  1.00  0.00    -1.126 OA 
HETATM   37  H   UNL     1     -10.813  16.590  63.124  1.00  0.00     0.000 HD 
HETATM   38  C   UNL     1     -10.254  14.434  66.363  1.00  0.00    -0.294 A  
ENDBRANCH   5  23
TORSDOF 5
ENDMDL
MODEL      124
REMARK 921   NORMALIZED FREE ENERGY PREDICTED BY IDOCK:   -4.06 KCAL/MOL
REMARK 922        TOTAL FREE ENERGY PREDICTED BY IDOCK:   -6.59 KCAL/MOL
REMARK 923 INTER-LIGAND FREE ENERGY PREDICTED BY IDOCK:   -7.20 KCAL/MOL
REMARK 924 INTRA-LIGAND FREE ENERGY PREDICTED BY IDOCK:    0.61 KCAL/MOL
REMARK 927      BINDING AFFINITY PREDICTED BY RF-SCORE:    0.00 PKD
ROOT
HETATM    1  C   UNL     1      -9.290  11.997  65.868  1.00  0.00    -0.157 C  
HETATM    2  O   UNL     1      -8.102  12.372  66.582  1.00  0.00    -0.055 OA 
HETATM    3  C   UNL     1      -7.615  11.313  67.407  1.00  0.00    -0.120 C  
HETATM    4  C   UNL     1      -8.724  10.737  68.278  1.00  0.00    -0.136 C  
HETATM    5  C   UNL     1     -10.283  13.132  65.369  1.00  0.00    -0.290 C  
HETATM    6  C   UNL     1     -10.035  10.959  67.976  1.00  0.00    -0.171 C  
HETATM    7  N   UNL     1     -10.342  11.529  66.761  1.00  0.00    -0.219 N  
HETATM    8  C   UNL     1     -11.125  10.613  68.965  1.00  0.00    -0.254 C  
HETATM    9  O   UNL     1     -10.914  10.328  70.136  1.00  0.00    -0.278 OA 
HETATM   10  O   UNL     1     -12.383  10.593  68.482  1.00  0.00    -0.317 OA 
HETATM   11  O   UNL     1     -12.390  12.609  66.844  1.00  0.00    -0.430 OA 
HETATM   12  C   UNL     1     -11.277  12.436  66.399  1.00  0.00    -0.319 C  
ENDROOT
BRANCH   4  13
HETATM   13  C   UNL     1      -8.173  10.046  69.513  1.00  0.00    -0.167 C  
BRANCH  13  14
HETATM   14  S   UNL     1      -7.654   8.325  69.266  1.00  0.00    -0.096 SA 
BRANCH  14  15
HETATM   15  C   UNL     1      -9.029   7.407  69.732  1.00  0.00    -0.141 A  
HETATM   16  N   UNL     1     -10.073   7.089  69.003  1.00  0.00    -0.175 NA 
HETATM   17  C   UNL     1      -8.344   6.957  72.134  1.00  0.00    -0.105 C  
HETATM   18  N   UNL     1     -10.914   6.391  69.838  1.00  0.00    -0.312 NA 
HETATM   19  N   UNL     1     -10.392   6.274  71.052  1.00  0.00    -0.205 NA 
HETATM   20  N   UNL     1      -9.206   6.902  70.988  1.00  0.00    -0.156 NA 
ENDBRANCH  14  15
ENDBRANCH  13  14
ENDBRANCH   4  13
BRANCH   5  21
HETATM   21  O   UNL     1     -10.716  13.019  63.987  1.00  0.00    -0.400 OA 
HETATM   22  C   UNL     1     -12.111  13.118  63.738  1.00  0.00    -0.495 C  
ENDBRANCH   5  21
BRANCH   5  23
HETATM   23  N   UNL     1      -9.854  14.508  65.785  1.00  0.00    -0.400 N  
HETATM   24  C   UNL     1     -10.033  16.619  67.036  1.00  0.00    -0.271 C  
HETATM   25  C   UNL     1     -10.540  15.211  66.753  1.00  0.00    -0.298 C  
HETATM   26  O   UNL     1     -11.474  14.727  67.393  1.00  0.00    -0.342 OA 
HETATM   27  H   UNL     1      -9.039  14.932  65.343  1.00  0.00     0.000 HD 
HETATM   28  C   UNL     1     -11.083  17.548  67.629  1.00  0.00     0.047 C  
HETATM   29  C   UNL     1      -8.750  16.632  67.866  1.00  0.00    -0.193 A  
HETATM   30  C   UNL     1      -7.849  17.706  67.732  1.00  0.00    -0.211 A  
HETATM   31  O   UNL     1     -11.017  18.766  67.508  1.00  0.00    -0.407 OA 
HETATM   32  O   UNL     1     -12.085  16.975  68.334  1.00  0.00     0.804 OA 
HETATM   33  C   UNL     1      -6.639  17.719  68.431  1.00  0.00    -0.202 A  
HETATM   34  C   UNL     1      -6.325  16.662  69.275  1.00  0.00    -0.202 A  
HETATM   35  C   UNL     1      -7.224  15.622  69.470  1.00  0.00    -0.198 A  
HETATM   36  O   UNL     1      -5.134  16.603  69.935  1.00  0.00    -0.143 OA 
HETATM   37  H   UNL     1      -4.920  15.880  70.512  1.00  0.00     0.000 HD 
HETATM   38  C   UNL     1      -8.437  15.611  68.779  1.00  0.00    -0.192 A  
ENDBRANCH   5  23
TORSDOF 5
ENDMDL
MODEL      125
REMARK 921   NORMALIZED FREE ENERGY PREDICTED BY IDOCK:   -4.01 KCAL/MOL
REMARK 922        TOTAL FREE ENERGY PREDICTED BY IDOCK:   -6.53 KCAL/MOL
REMARK 923 INTER-LIGAND FREE ENERGY PREDICTED BY IDOCK:   -6.96 KCAL/MOL
REMARK 924 INTRA-LIGAND FREE ENERGY PREDICTED BY IDOCK:    0.43 KCAL/MOL
REMARK 927      BINDING AFFINITY PREDICTED BY RF-SCORE:    0.00 PKD
ROOT
HETATM    1  C   UNL     1      -7.457   9.813  67.386  1.00  0.00    -0.091 C  
HETATM    2  O   UNL     1      -7.448  10.822  68.407  1.00  0.00    -0.087 OA 
HETATM    3  C   UNL     1      -7.430  10.256  69.719  1.00  0.00    -0.165 C  
HETATM    4  C   UNL     1      -8.516   9.200  69.879  1.00  0.00    -0.151 C  
HETATM    5  C   UNL     1      -8.031  10.174  65.949  1.00  0.00    -0.134 C  
HETATM    6  C   UNL     1      -9.107   8.636  68.787  1.00  0.00    -0.142 C  
HETATM    7  N   UNL     1      -8.564   8.879  67.546  1.00  0.00    -0.120 N  
HETATM    8  C   UNL     1     -10.349   7.786  68.934  1.00  0.00    -0.213 C  
HETATM    9  O   UNL     1     -11.012   7.723  69.961  1.00  0.00    -0.249 OA 
HETATM   10  O   UNL     1     -10.692   7.043  67.863  1.00  0.00    -0.215 OA 
HETATM   11  O   UNL     1     -10.153   8.631  65.880  1.00  0.00    -0.102 OA 
HETATM   12  C   UNL     1      -9.130   9.090  66.337  1.00  0.00    -0.170 C  
ENDROOT
BRANCH   4  13
HETATM   13  C   UNL     1      -8.896   8.995  71.335  1.00  0.00    -0.150 C  
BRANCH  13  14
HETATM   14  S   UNL     1      -7.862   7.810  72.240  1.00  0.00    -0.116 SA 
BRANCH  14  15
HETATM   15  C   UNL     1      -8.582   6.287  71.902  1.00  0.00    -0.128 A  
HETATM   16  N   UNL     1      -8.171   5.370  71.058  1.00  0.00    -0.116 NA 
HETATM   17  C   UNL     1     -10.554   6.478  73.486  1.00  0.00    -0.290 C  
HETATM   18  N   UNL     1      -9.106   4.363  71.115  1.00  0.00    -0.121 NA 
HETATM   19  N   UNL     1     -10.066   4.652  71.984  1.00  0.00    -0.191 NA 
HETATM   20  N   UNL     1      -9.736   5.854  72.486  1.00  0.00    -0.158 NA 
ENDBRANCH  14  15
ENDBRANCH  13  14
ENDBRANCH   4  13
BRANCH   5  21
HETATM   21  O   UNL     1      -7.200   9.773  64.826  1.00  0.00    -0.117 OA 
HETATM   22  C   UNL     1      -7.168   8.389  64.510  1.00  0.00    -0.087 C  
ENDBRANCH   5  21
BRANCH   5  23
HETATM   23  N   UNL     1      -8.569  11.572  65.869  1.00  0.00    -0.367 N  
HETATM   24  C   UNL     1     -10.201  13.363  66.293  1.00  0.00    -0.298 C  
HETATM   25  C   UNL     1      -9.739  11.928  66.507  1.00  0.00    -0.210 C  
HETATM   26  O   UNL     1     -10.355  11.160  67.247  1.00  0.00    -0.193 OA 
HETATM   27  H   UNL     1      -8.060  12.273  65.331  1.00  0.00     0.000 HD 
HETATM   28  C   UNL     1     -11.697  13.567  66.490  1.00  0.00    -0.371 C  
HETATM   29  C   UNL     1      -9.393  14.374  67.104  1.00  0.00    -0.226 A  
HETATM   30  C   UNL     1      -9.257  15.693  66.630  1.00  0.00    -0.294 A  
HETATM   31  O   UNL     1     -12.304  14.486  65.950  1.00  0.00    -0.331 OA 
HETATM   32  O   UNL     1     -12.332  12.709  67.319  1.00  0.00    -0.352 OA 
HETATM   33  C   UNL     1      -8.475  16.626  67.317  1.00  0.00    -0.214 A  
HETATM   34  C   UNL     1      -7.830  16.248  68.488  1.00  0.00    -0.192 A  
HETATM   35  C   UNL     1      -7.999  14.972  69.008  1.00  0.00    -0.180 A  
HETATM   36  O   UNL     1      -7.014  17.105  69.163  1.00  0.00    -0.232 OA 
HETATM   37  H   UNL     1      -6.573  16.847  69.964  1.00  0.00     0.000 HD 
HETATM   38  C   UNL     1      -8.787  14.041  68.328  1.00  0.00    -0.184 A  
ENDBRANCH   5  23
TORSDOF 5
ENDMDL
MODEL      126
REMARK 921   NORMALIZED FREE ENERGY PREDICTED BY IDOCK:   -3.96 KCAL/MOL
REMARK 922        TOTAL FREE ENERGY PREDICTED BY IDOCK:   -6.46 KCAL/MOL
REMARK 923 INTER-LIGAND FREE ENERGY PREDICTED BY IDOCK:   -5.58 KCAL/MOL
REMARK 924 INTRA-LIGAND FREE ENERGY PREDICTED BY IDOCK:   -0.88 KCAL/MOL
REMARK 927      BINDING AFFINITY PREDICTED BY RF-SCORE:    0.00 PKD
ROOT
HETATM    1  C   UNL     1     -11.147   8.003  68.880  1.00  0.00     0.285 C  
HETATM    2  O   UNL     1     -10.175   7.268  68.121  1.00  0.00    -0.173 OA 
HETATM    3  C   UNL     1     -10.251   5.863  68.369  1.00  0.00    -0.191 C  
HETATM    4  C   UNL     1     -10.249   5.566  69.863  1.00  0.00    -0.338 C  
HETATM    5  C   UNL     1     -10.883   9.538  69.193  1.00  0.00    -0.173 C  
HETATM    6  C   UNL     1     -10.542   6.541  70.769  1.00  0.00    -0.231 C  
HETATM    7  N   UNL     1     -11.044   7.738  70.309  1.00  0.00    -0.255 N  
HETATM    8  C   UNL     1     -10.294   6.324  72.245  1.00  0.00    -0.190 C  
HETATM    9  O   UNL     1      -9.641   5.392  72.694  1.00  0.00    -0.150 OA 
HETATM   10  O   UNL     1     -10.872   7.208  73.082  1.00  0.00    -0.300 OA 
HETATM   11  O   UNL     1     -10.605   9.453  71.802  1.00  0.00    -0.309 OA 
HETATM   12  C   UNL     1     -10.833   9.015  70.696  1.00  0.00    -0.243 C  
ENDROOT
BRANCH   4  13
HETATM   13  C   UNL     1      -9.773   4.154  70.158  1.00  0.00    -0.208 C  
BRANCH  13  14
HETATM   14  S   UNL     1      -9.345   3.165  68.698  1.00  0.00    -0.138 SA 
BRANCH  14  15
HETATM   15  C   UNL     1      -7.633   3.280  68.606  1.00  0.00    -0.052 A  
HETATM   16  N   UNL     1      -6.771   3.297  69.595  1.00  0.00    -0.033 NA 
HETATM   17  C   UNL     1      -7.432   3.409  66.080  1.00  0.00    -0.073 C  
HETATM   18  N   UNL     1      -5.536   3.448  69.012  1.00  0.00    -0.012 NA 
HETATM   19  N   UNL     1      -5.636   3.514  67.690  1.00  0.00    -0.020 NA 
HETATM   20  N   UNL     1      -6.949   3.400  67.431  1.00  0.00    -0.053 NA 
ENDBRANCH  14  15
ENDBRANCH  13  14
ENDBRANCH   4  13
BRANCH   5  21
HETATM   21  O   UNL     1     -12.000  10.429  68.933  1.00  0.00    -0.190 OA 
HETATM   22  C   UNL     1     -11.861  11.778  69.355  1.00  0.00    -0.334 C  
ENDBRANCH   5  21
BRANCH   5  23
HETATM   23  N   UNL     1      -9.558  10.020  68.681  1.00  0.00    -0.151 N  
HETATM   24  C   UNL     1      -7.929  10.643  66.946  1.00  0.00    -0.124 C  
HETATM   25  C   UNL     1      -9.336  10.208  67.333  1.00  0.00    -0.148 C  
HETATM   26  O   UNL     1     -10.223  10.085  66.487  1.00  0.00    -0.228 OA 
HETATM   27  H   UNL     1      -8.807  10.212  69.342  1.00  0.00     0.000 HD 
HETATM   28  C   UNL     1      -7.543  10.291  65.516  1.00  0.00    -0.149 C  
HETATM   29  C   UNL     1      -7.659  12.116  67.247  1.00  0.00    -0.156 A  
HETATM   30  C   UNL     1      -6.344  12.539  67.517  1.00  0.00    -0.154 A  
HETATM   31  O   UNL     1      -6.374  10.148  65.174  1.00  0.00    -0.106 OA 
HETATM   32  O   UNL     1      -8.547  10.178  64.617  1.00  0.00    -0.162 OA 
HETATM   33  C   UNL     1      -6.071  13.868  67.854  1.00  0.00    -0.153 A  
HETATM   34  C   UNL     1      -7.112  14.785  67.915  1.00  0.00    -0.158 A  
HETATM   35  C   UNL     1      -8.409  14.406  67.593  1.00  0.00    -0.186 A  
HETATM   36  O   UNL     1      -6.905  16.078  68.293  1.00  0.00    -0.115 OA 
HETATM   37  H   UNL     1      -7.618  16.705  68.334  1.00  0.00     0.000 HD 
HETATM   38  C   UNL     1      -8.681  13.080  67.248  1.00  0.00    -0.209 A  
ENDBRANCH   5  23
TORSDOF 5
ENDMDL
MODEL      127
REMARK 921   NORMALIZED FREE ENERGY PREDICTED BY IDOCK:   -3.95 KCAL/MOL
REMARK 922        TOTAL FREE ENERGY PREDICTED BY IDOCK:   -6.45 KCAL/MOL
REMARK 923 INTER-LIGAND FREE ENERGY PREDICTED BY IDOCK:   -6.75 KCAL/MOL
REMARK 924 INTRA-LIGAND FREE ENERGY PREDICTED BY IDOCK:    0.30 KCAL/MOL
REMARK 927      BINDING AFFINITY PREDICTED BY RF-SCORE:    0.00 PKD
ROOT
HETATM    1  C   UNL     1      -7.575  10.643  69.069  1.00  0.00    -0.122 C  
HETATM    2  O   UNL     1      -8.988  10.770  69.293  1.00  0.00    -0.136 OA 
HETATM    3  C   UNL     1      -9.713   9.645  68.793  1.00  0.00    -0.163 C  
HETATM    4  C   UNL     1      -9.322   9.332  67.355  1.00  0.00    -0.153 C  
HETATM    5  C   UNL     1      -6.680  11.955  69.018  1.00  0.00    -0.099 C  
HETATM    6  C   UNL     1      -8.166   9.821  66.823  1.00  0.00    -0.120 C  
HETATM    7  N   UNL     1      -7.258  10.423  67.665  1.00  0.00    -0.086 N  
HETATM    8  C   UNL     1      -7.899   9.729  65.338  1.00  0.00    -0.122 C  
HETATM    9  O   UNL     1      -8.750   9.425  64.512  1.00  0.00    -0.187 OA 
HETATM   10  O   UNL     1      -6.633   9.967  64.944  1.00  0.00    -0.113 OA 
HETATM   11  O   UNL     1      -5.914  11.913  66.508  1.00  0.00    -0.196 OA 
HETATM   12  C   UNL     1      -6.459  11.501  67.508  1.00  0.00    -0.079 C  
ENDROOT
BRANCH   4  13
HETATM   13  C   UNL     1     -10.410   8.559  66.629  1.00  0.00    -0.233 C  
BRANCH  13  14
HETATM   14  S   UNL     1     -10.699   6.876  67.241  1.00  0.00    -0.364 SA 
BRANCH  14  15
HETATM   15  C   UNL     1      -9.236   6.048  66.887  1.00  0.00    -0.126 A  
HETATM   16  N   UNL     1      -8.434   6.228  65.863  1.00  0.00    -0.141 NA 
HETATM   17  C   UNL     1      -9.226   4.492  68.890  1.00  0.00    -0.134 C  
HETATM   18  N   UNL     1      -7.432   5.298  66.005  1.00  0.00    -0.081 NA 
HETATM   19  N   UNL     1      -7.609   4.569  67.099  1.00  0.00    -0.085 NA 
HETATM   20  N   UNL     1      -8.734   5.042  67.660  1.00  0.00    -0.104 NA 
ENDBRANCH  14  15
ENDBRANCH  13  14
ENDBRANCH   4  13
BRANCH   5  21
HETATM   21  O   UNL     1      -5.466  11.913  69.814  1.00  0.00    -0.072 OA 
HETATM   22  C   UNL     1      -5.609  11.611  71.194  1.00  0.00     0.060 C  
ENDBRANCH   5  21
BRANCH   5  23
HETATM   23  N   UNL     1      -7.482  13.215  69.155  1.00  0.00    -0.312 N  
HETATM   24  C   UNL     1      -8.923  15.042  68.354  1.00  0.00    -0.179 C  
HETATM   25  C   UNL     1      -8.203  13.725  68.095  1.00  0.00    -0.160 C  
HETATM   26  O   UNL     1      -8.308  13.139  67.016  1.00  0.00    -0.166 OA 
HETATM   27  H   UNL     1      -7.494  13.705  70.048  1.00  0.00     0.000 HD 
HETATM   28  C   UNL     1      -9.202  15.852  67.096  1.00  0.00    -0.209 C  
HETATM   29  C   UNL     1     -10.186  14.872  69.195  1.00  0.00    -0.243 A  
HETATM   30  C   UNL     1     -10.630  15.937  70.002  1.00  0.00    -0.320 A  
HETATM   31  O   UNL     1      -9.347  17.070  67.125  1.00  0.00    -0.229 OA 
HETATM   32  O   UNL     1      -9.322  15.168  65.936  1.00  0.00    -0.317 OA 
HETATM   33  C   UNL     1     -11.748  15.794  70.829  1.00  0.00    -0.430 A  
HETATM   34  C   UNL     1     -12.434  14.586  70.849  1.00  0.00    -0.345 A  
HETATM   35  C   UNL     1     -12.053  13.543  70.016  1.00  0.00    -0.411 A  
HETATM   36  O   UNL     1     -13.495  14.381  71.678  1.00  0.00    -0.335 OA 
HETATM   37  H   UNL     1     -13.965  13.555  71.691  1.00  0.00     0.000 HD 
HETATM   38  C   UNL     1     -10.942  13.687  69.183  1.00  0.00    -0.235 A  
ENDBRANCH   5  23
TORSDOF 5
ENDMDL
MODEL      128
REMARK 921   NORMALIZED FREE ENERGY PREDICTED BY IDOCK:   -3.90 KCAL/MOL
REMARK 922        TOTAL FREE ENERGY PREDICTED BY IDOCK:   -6.39 KCAL/MOL
REMARK 923 INTER-LIGAND FREE ENERGY PREDICTED BY IDOCK:   -5.92 KCAL/MOL
REMARK 924 INTRA-LIGAND FREE ENERGY PREDICTED BY IDOCK:   -0.47 KCAL/MOL
REMARK 927      BINDING AFFINITY PREDICTED BY RF-SCORE:    0.00 PKD
ROOT
HETATM    1  C   UNL     1      -9.802  11.483  68.681  1.00  0.00    -0.177 C  
HETATM    2  O   UNL     1      -8.522  12.119  68.550  1.00  0.00    -0.151 OA 
HETATM    3  C   UNL     1      -8.640  13.480  68.131  1.00  0.00    -0.173 C  
HETATM    4  C   UNL     1      -9.540  13.605  66.909  1.00  0.00    -0.262 C  
HETATM    5  C   UNL     1      -9.893   9.901  68.576  1.00  0.00    -0.156 C  
HETATM    6  C   UNL     1     -10.396  12.601  66.566  1.00  0.00    -0.242 C  
HETATM    7  N   UNL     1     -10.586  11.567  67.456  1.00  0.00    -0.198 N  
HETATM    8  C   UNL     1     -11.098  12.606  65.227  1.00  0.00    -0.295 C  
HETATM    9  O   UNL     1     -10.801  13.357  64.308  1.00  0.00    -0.392 OA 
HETATM   10  O   UNL     1     -12.128  11.748  65.092  1.00  0.00    -0.247 OA 
HETATM   11  O   UNL     1     -11.281   9.647  66.362  1.00  0.00     0.448 OA 
HETATM   12  C   UNL     1     -10.747  10.238  67.275  1.00  0.00    -0.263 C  
ENDROOT
BRANCH   4  13
HETATM   13  C   UNL     1      -9.253  14.873  66.122  1.00  0.00    -0.233 C  
BRANCH  13  14
HETATM   14  S   UNL     1     -10.487  16.190  66.307  1.00  0.00    -0.296 SA 
BRANCH  14  15
HETATM   15  C   UNL     1     -11.030  16.025  67.929  1.00  0.00    -0.327 A  
HETATM   16  N   UNL     1     -11.857  15.131  68.417  1.00  0.00    -0.308 NA 
HETATM   17  C   UNL     1      -9.759  17.986  68.918  1.00  0.00    -0.271 C  
HETATM   18  N   UNL     1     -12.009  15.447  69.746  1.00  0.00    -0.343 NA 
HETATM   19  N   UNL     1     -11.282  16.508  70.070  1.00  0.00    -0.252 NA 
HETATM   20  N   UNL     1     -10.659  16.868  68.936  1.00  0.00    -0.347 NA 
ENDBRANCH  14  15
ENDBRANCH  13  14
ENDBRANCH   4  13
BRANCH   5  21
HETATM   21  O   UNL     1     -10.668   9.249  69.618  1.00  0.00    -0.226 OA 
HETATM   22  C   UNL     1     -10.881   9.981  70.817  1.00  0.00    -0.260 C  
ENDBRANCH   5  21
BRANCH   5  23
HETATM   23  N   UNL     1      -8.572   9.258  68.277  1.00  0.00    -0.124 N  
HETATM   24  C   UNL     1      -6.922   7.433  68.298  1.00  0.00    -0.079 C  
HETATM   25  C   UNL     1      -8.325   7.941  68.604  1.00  0.00    -0.128 C  
HETATM   26  O   UNL     1      -9.188   7.195  69.068  1.00  0.00    -0.137 OA 
HETATM   27  H   UNL     1      -7.841   9.805  67.823  1.00  0.00     0.000 HD 
HETATM   28  C   UNL     1      -6.494   6.245  69.150  1.00  0.00    -0.043 C  
HETATM   29  C   UNL     1      -6.702   7.156  66.812  1.00  0.00    -0.060 A  
HETATM   30  C   UNL     1      -5.405   7.260  66.273  1.00  0.00    -0.024 A  
HETATM   31  O   UNL     1      -5.314   5.995  69.371  1.00  0.00    -0.004 OA 
HETATM   32  O   UNL     1      -7.474   5.446  69.629  1.00  0.00    -0.063 OA 
HETATM   33  C   UNL     1      -5.179   7.073  64.906  1.00  0.00    -0.028 A  
HETATM   34  C   UNL     1      -6.247   6.772  64.071  1.00  0.00    -0.035 A  
HETATM   35  C   UNL     1      -7.524   6.604  64.589  1.00  0.00    -0.093 A  
HETATM   36  O   UNL     1      -6.085   6.635  62.725  1.00  0.00    -0.036 OA 
HETATM   37  H   UNL     1      -6.816   6.429  62.154  1.00  0.00     0.000 HD 
HETATM   38  C   UNL     1      -7.751   6.783  65.955  1.00  0.00    -0.094 A  
ENDBRANCH   5  23
TORSDOF 5
ENDMDL
MODEL      129
REMARK 921   NORMALIZED FREE ENERGY PREDICTED BY IDOCK:   -3.90 KCAL/MOL
REMARK 922        TOTAL FREE ENERGY PREDICTED BY IDOCK:   -6.38 KCAL/MOL
REMARK 923 INTER-LIGAND FREE ENERGY PREDICTED BY IDOCK:   -5.74 KCAL/MOL
REMARK 924 INTRA-LIGAND FREE ENERGY PREDICTED BY IDOCK:   -0.64 KCAL/MOL
REMARK 927      BINDING AFFINITY PREDICTED BY RF-SCORE:    0.00 PKD
ROOT
HETATM    1  C   UNL     1     -10.401   8.499  70.516  1.00  0.00    -0.200 C  
HETATM    2  O   UNL     1     -10.806   7.147  70.254  1.00  0.00    -0.235 OA 
HETATM    3  C   UNL     1     -11.389   6.529  71.403  1.00  0.00    -0.294 C  
HETATM    4  C   UNL     1     -10.502   6.701  72.630  1.00  0.00    -0.237 C  
HETATM    5  C   UNL     1      -9.268   9.154  69.615  1.00  0.00    -0.168 C  
HETATM    6  C   UNL     1      -9.525   7.652  72.658  1.00  0.00    -0.176 C  
HETATM    7  N   UNL     1      -9.492   8.590  71.650  1.00  0.00    -0.220 N  
HETATM    8  C   UNL     1      -8.485   7.660  73.755  1.00  0.00    -0.212 C  
HETATM    9  O   UNL     1      -8.316   6.734  74.537  1.00  0.00    -0.136 OA 
HETATM   10  O   UNL     1      -7.749   8.783  73.870  1.00  0.00    -0.417 OA 
HETATM   11  O   UNL     1      -7.359   9.455  71.391  1.00  0.00    -0.325 OA 
HETATM   12  C   UNL     1      -8.466   9.170  70.990  1.00  0.00    -0.165 C  
ENDROOT
BRANCH   4  13
HETATM   13  C   UNL     1     -10.773   5.636  73.678  1.00  0.00    -0.267 C  
BRANCH  13  14
HETATM   14  S   UNL     1     -10.550   3.926  73.113  1.00  0.00    -0.182 SA 
BRANCH  14  15
HETATM   15  C   UNL     1      -8.961   3.908  72.461  1.00  0.00    -0.108 A  
HETATM   16  N   UNL     1      -7.821   3.947  73.110  1.00  0.00    -0.082 NA 
HETATM   17  C   UNL     1      -9.597   3.803  70.007  1.00  0.00    -0.188 C  
HETATM   18  N   UNL     1      -6.842   3.958  72.146  1.00  0.00    -0.035 NA 
HETATM   19  N   UNL     1      -7.369   3.916  70.929  1.00  0.00    -0.037 NA 
HETATM   20  N   UNL     1      -8.697   3.875  71.122  1.00  0.00    -0.080 NA 
ENDBRANCH  14  15
ENDBRANCH  13  14
ENDBRANCH   4  13
BRANCH   5  21
HETATM   21  O   UNL     1      -9.564  10.482  69.107  1.00  0.00    -0.198 OA 
HETATM   22  C   UNL     1     -10.928  10.878  69.091  1.00  0.00    -0.239 C  
ENDBRANCH   5  21
BRANCH   5  23
HETATM   23  N   UNL     1      -8.703   8.202  68.602  1.00  0.00    -0.134 N  
HETATM   24  C   UNL     1      -8.820   6.579  66.757  1.00  0.00    -0.130 C  
HETATM   25  C   UNL     1      -9.515   7.563  67.688  1.00  0.00    -0.138 C  
HETATM   26  O   UNL     1     -10.719   7.799  67.586  1.00  0.00    -0.225 OA 
HETATM   27  H   UNL     1      -7.700   8.024  68.589  1.00  0.00     0.000 HD 
HETATM   28  C   UNL     1      -9.739   5.504  66.194  1.00  0.00    -0.123 C  
HETATM   29  C   UNL     1      -8.030   7.270  65.646  1.00  0.00    -0.123 A  
HETATM   30  C   UNL     1      -6.907   6.626  65.091  1.00  0.00    -0.050 A  
HETATM   31  O   UNL     1      -9.314   4.416  65.819  1.00  0.00    -0.141 OA 
HETATM   32  O   UNL     1     -11.052   5.809  66.089  1.00  0.00     0.014 OA 
HETATM   33  C   UNL     1      -6.128   7.256  64.116  1.00  0.00    -0.037 A  
HETATM   34  C   UNL     1      -6.472   8.530  63.684  1.00  0.00    -0.080 A  
HETATM   35  C   UNL     1      -7.610   9.160  64.172  1.00  0.00    -0.113 A  
HETATM   36  O   UNL     1      -5.713   9.206  62.777  1.00  0.00    -0.084 OA 
HETATM   37  H   UNL     1      -5.948  10.078  62.481  1.00  0.00     0.000 HD 
HETATM   38  C   UNL     1      -8.394   8.529  65.140  1.00  0.00    -0.178 A  
ENDBRANCH   5  23
TORSDOF 5
ENDMDL
MODEL      130
REMARK 921   NORMALIZED FREE ENERGY PREDICTED BY IDOCK:   -3.89 KCAL/MOL
REMARK 922        TOTAL FREE ENERGY PREDICTED BY IDOCK:   -6.38 KCAL/MOL
REMARK 923 INTER-LIGAND FREE ENERGY PREDICTED BY IDOCK:   -7.66 KCAL/MOL
REMARK 924 INTRA-LIGAND FREE ENERGY PREDICTED BY IDOCK:    1.28 KCAL/MOL
REMARK 927      BINDING AFFINITY PREDICTED BY RF-SCORE:    0.00 PKD
ROOT
HETATM    1  C   UNL     1     -10.748  14.589  67.803  1.00  0.00    -0.256 C  
HETATM    2  O   UNL     1      -9.535  14.928  68.492  1.00  0.00    -0.197 OA 
HETATM    3  C   UNL     1      -9.556  16.269  68.987  1.00  0.00    -0.257 C  
HETATM    4  C   UNL     1      -9.966  17.252  67.898  1.00  0.00    -0.297 C  
HETATM    5  C   UNL     1     -10.725  13.421  66.727  1.00  0.00    -0.277 C  
HETATM    6  C   UNL     1     -10.596  16.821  66.769  1.00  0.00    -0.203 C  
HETATM    7  N   UNL     1     -11.045  15.520  66.723  1.00  0.00    -0.261 N  
HETATM    8  C   UNL     1     -10.774  17.742  65.583  1.00  0.00    -0.064 C  
HETATM    9  O   UNL     1     -10.202  18.817  65.467  1.00  0.00    -0.459 OA 
HETATM   10  O   UNL     1     -11.647  17.337  64.641  1.00  0.00    -0.487 OA 
HETATM   11  O   UNL     1     -11.217  14.778  64.536  1.00  0.00    -0.349 OA 
HETATM   12  C   UNL     1     -11.071  14.608  65.726  1.00  0.00    -0.331 C  
ENDROOT
BRANCH   4  13
HETATM   13  C   UNL     1      -9.474  18.659  68.193  1.00  0.00    -0.325 C  
BRANCH  13  14
HETATM   14  S   UNL     1      -8.142  19.251  67.113  1.00  0.00    -0.273 SA 
BRANCH  14  15
HETATM   15  C   UNL     1      -6.985  17.981  67.145  1.00  0.00    -0.191 A  
HETATM   16  N   UNL     1      -6.727  17.100  66.207  1.00  0.00    -0.225 NA 
HETATM   17  C   UNL     1      -6.071  18.407  69.473  1.00  0.00    -0.255 C  
HETATM   18  N   UNL     1      -5.760  16.273  66.727  1.00  0.00    -0.294 NA 
HETATM   19  N   UNL     1      -5.425  16.643  67.956  1.00  0.00    -0.115 NA 
HETATM   20  N   UNL     1      -6.184  17.720  68.219  1.00  0.00    -0.173 NA 
ENDBRANCH  14  15
ENDBRANCH  13  14
ENDBRANCH   4  13
BRANCH   5  21
HETATM   21  O   UNL     1     -11.791  12.441  66.846  1.00  0.00    -0.490 OA 
HETATM   22  C   UNL     1     -11.406  11.096  67.095  1.00  0.00    -0.181 C  
ENDBRANCH   5  21
BRANCH   5  23
HETATM   23  N   UNL     1      -9.356  12.843  66.522  1.00  0.00    -0.314 N  
HETATM   24  C   UNL     1      -7.270  11.742  67.223  1.00  0.00    -0.142 C  
HETATM   25  C   UNL     1      -8.673  12.232  67.554  1.00  0.00    -0.177 C  
HETATM   26  O   UNL     1      -9.172  12.043  68.664  1.00  0.00    -0.147 OA 
HETATM   27  H   UNL     1      -8.921  12.902  65.602  1.00  0.00     0.000 HD 
HETATM   28  C   UNL     1      -6.355  11.620  68.433  1.00  0.00    -0.051 C  
HETATM   29  C   UNL     1      -7.269  10.457  66.396  1.00  0.00    -0.119 A  
HETATM   30  C   UNL     1      -6.191  10.190  65.531  1.00  0.00    -0.101 A  
HETATM   31  O   UNL     1      -5.134  11.684  68.335  1.00  0.00    -0.040 OA 
HETATM   32  O   UNL     1      -6.943  11.402  69.631  1.00  0.00    -0.108 OA 
HETATM   33  C   UNL     1      -6.187   9.053  64.717  1.00  0.00    -0.066 A  
HETATM   34  C   UNL     1      -7.260   8.172  64.769  1.00  0.00    -0.082 A  
HETATM   35  C   UNL     1      -8.305   8.382  65.658  1.00  0.00    -0.160 A  
HETATM   36  O   UNL     1      -7.328   7.081  63.956  1.00  0.00    -0.070 OA 
HETATM   37  H   UNL     1      -8.062   6.478  63.992  1.00  0.00     0.000 HD 
HETATM   38  C   UNL     1      -8.306   9.512  66.478  1.00  0.00    -0.119 A  
ENDBRANCH   5  23
TORSDOF 5
ENDMDL
MODEL      131
REMARK 921   NORMALIZED FREE ENERGY PREDICTED BY IDOCK:   -3.88 KCAL/MOL
REMARK 922        TOTAL FREE ENERGY PREDICTED BY IDOCK:   -6.36 KCAL/MOL
REMARK 923 INTER-LIGAND FREE ENERGY PREDICTED BY IDOCK:   -6.54 KCAL/MOL
REMARK 924 INTRA-LIGAND FREE ENERGY PREDICTED BY IDOCK:    0.18 KCAL/MOL
REMARK 927      BINDING AFFINITY PREDICTED BY RF-SCORE:    0.00 PKD
ROOT
HETATM    1  C   UNL     1      -8.527  11.361  66.904  1.00  0.00    -0.157 C  
HETATM    2  O   UNL     1      -7.659  12.195  67.688  1.00  0.00    -0.119 OA 
HETATM    3  C   UNL     1      -6.785  11.429  68.519  1.00  0.00    -0.069 C  
HETATM    4  C   UNL     1      -7.558  10.387  69.318  1.00  0.00    -0.132 C  
HETATM    5  C   UNL     1      -9.899  11.959  66.372  1.00  0.00    -0.213 C  
HETATM    6  C   UNL     1      -8.818  10.018  68.949  1.00  0.00    -0.148 C  
HETATM    7  N   UNL     1      -9.297  10.441  67.730  1.00  0.00    -0.144 N  
HETATM    8  C   UNL     1      -9.680   9.185  69.871  1.00  0.00    -0.191 C  
HETATM    9  O   UNL     1      -9.412   8.977  71.047  1.00  0.00    -0.229 OA 
HETATM   10  O   UNL     1     -10.776   8.630  69.320  1.00  0.00    -0.213 OA 
HETATM   11  O   UNL     1     -11.612  10.499  67.722  1.00  0.00    -0.462 OA 
HETATM   12  C   UNL     1     -10.521  10.854  67.334  1.00  0.00    -0.224 C  
ENDROOT
BRANCH   4  13
HETATM   13  C   UNL     1      -6.808   9.963  70.568  1.00  0.00    -0.118 C  
BRANCH  13  14
HETATM   14  S   UNL     1      -5.649   8.586  70.341  1.00  0.00    -0.027 SA 
BRANCH  14  15
HETATM   15  C   UNL     1      -6.638   7.186  70.470  1.00  0.00    -0.048 A  
HETATM   16  N   UNL     1      -7.171   6.482  69.499  1.00  0.00    -0.080 NA 
HETATM   17  C   UNL     1      -6.682   7.027  73.002  1.00  0.00    -0.069 C  
HETATM   18  N   UNL     1      -7.907   5.497  70.112  1.00  0.00    -0.087 NA 
HETATM   19  N   UNL     1      -7.821   5.588  71.432  1.00  0.00    -0.108 NA 
HETATM   20  N   UNL     1      -7.019   6.641  71.661  1.00  0.00    -0.073 NA 
ENDBRANCH  14  15
ENDBRANCH  13  14
ENDBRANCH   4  13
BRANCH   5  21
HETATM   21  O   UNL     1     -10.180  11.721  64.967  1.00  0.00    -0.252 OA 
HETATM   22  C   UNL     1      -9.175  11.062  64.210  1.00  0.00    -0.152 C  
ENDBRANCH   5  21
BRANCH   5  23
HETATM   23  N   UNL     1     -10.143  13.364  66.835  1.00  0.00    -0.250 N  
HETATM   24  C   UNL     1     -10.803  15.099  68.450  1.00  0.00    -0.255 C  
HETATM   25  C   UNL     1     -10.531  13.635  68.131  1.00  0.00    -0.247 C  
HETATM   26  O   UNL     1     -10.610  12.766  68.999  1.00  0.00    -0.169 OA 
HETATM   27  H   UNL     1     -10.020  14.135  66.180  1.00  0.00     0.000 HD 
HETATM   28  C   UNL     1     -11.745  15.312  69.627  1.00  0.00    -0.334 C  
HETATM   29  C   UNL     1      -9.523  15.919  68.610  1.00  0.00    -0.214 A  
HETATM   30  C   UNL     1      -9.543  17.297  68.322  1.00  0.00    -0.288 A  
HETATM   31  O   UNL     1     -12.414  16.333  69.749  1.00  0.00    -0.000 OA 
HETATM   32  O   UNL     1     -11.791  14.338  70.563  1.00  0.00    -0.295 OA 
HETATM   33  C   UNL     1      -8.376  18.064  68.400  1.00  0.00    -0.305 A  
HETATM   34  C   UNL     1      -7.184  17.458  68.775  1.00  0.00    -0.249 A  
HETATM   35  C   UNL     1      -7.152  16.114  69.123  1.00  0.00    -0.209 A  
HETATM   36  O   UNL     1      -6.011  18.151  68.812  1.00  0.00    -0.188 OA 
HETATM   37  H   UNL     1      -5.196  17.737  69.069  1.00  0.00     0.000 HD 
HETATM   38  C   UNL     1      -8.318  15.349  69.054  1.00  0.00    -0.223 A  
ENDBRANCH   5  23
TORSDOF 5
ENDMDL
MODEL      132
REMARK 921   NORMALIZED FREE ENERGY PREDICTED BY IDOCK:   -3.84 KCAL/MOL
REMARK 922        TOTAL FREE ENERGY PREDICTED BY IDOCK:   -6.30 KCAL/MOL
REMARK 923 INTER-LIGAND FREE ENERGY PREDICTED BY IDOCK:   -5.74 KCAL/MOL
REMARK 924 INTRA-LIGAND FREE ENERGY PREDICTED BY IDOCK:   -0.57 KCAL/MOL
REMARK 927      BINDING AFFINITY PREDICTED BY RF-SCORE:    0.00 PKD
ROOT
HETATM    1  C   UNL     1     -10.155   9.324  67.862  1.00  0.00    -0.200 C  
HETATM    2  O   UNL     1     -10.151   9.067  66.449  1.00  0.00    -0.294 OA 
HETATM    3  C   UNL     1      -9.573   7.799  66.136  1.00  0.00    -0.034 C  
HETATM    4  C   UNL     1      -8.221   7.626  66.818  1.00  0.00    -0.124 C  
HETATM    5  C   UNL     1     -10.211  10.827  68.374  1.00  0.00    -0.175 C  
HETATM    6  C   UNL     1      -7.865   8.414  67.872  1.00  0.00    -0.107 C  
HETATM    7  N   UNL     1      -8.823   9.221  68.443  1.00  0.00    -0.129 N  
HETATM    8  C   UNL     1      -6.442   8.422  68.384  1.00  0.00    -0.059 C  
HETATM    9  O   UNL     1      -5.502   7.917  67.785  1.00  0.00    -0.031 OA 
HETATM   10  O   UNL     1      -6.246   8.995  69.588  1.00  0.00    -0.038 OA 
HETATM   11  O   UNL     1      -7.854  11.034  69.509  1.00  0.00    -0.057 OA 
HETATM   12  C   UNL     1      -8.767  10.475  68.943  1.00  0.00    -0.154 C  
ENDROOT
BRANCH   4  13
HETATM   13  C   UNL     1      -7.354   6.605  66.102  1.00  0.00    -0.076 C  
BRANCH  13  14
HETATM   14  S   UNL     1      -8.235   5.149  65.475  1.00  0.00    -0.127 SA 
BRANCH  14  15
HETATM   15  C   UNL     1      -7.058   4.326  64.532  1.00  0.00    -0.051 A  
HETATM   16  N   UNL     1      -6.413   3.222  64.830  1.00  0.00    -0.030 NA 
HETATM   17  C   UNL     1      -7.036   5.908  62.550  1.00  0.00    -0.040 C  
HETATM   18  N   UNL     1      -5.554   2.997  63.782  1.00  0.00    -0.009 NA 
HETATM   19  N   UNL     1      -5.675   3.937  62.854  1.00  0.00    -0.013 NA 
HETATM   20  N   UNL     1      -6.624   4.767  63.317  1.00  0.00    -0.026 NA 
ENDBRANCH  14  15
ENDBRANCH  13  14
ENDBRANCH   4  13
BRANCH   5  21
HETATM   21  O   UNL     1     -11.188  11.096  69.415  1.00  0.00    -0.231 OA 
HETATM   22  C   UNL     1     -11.749   9.972  70.079  1.00  0.00    -0.175 C  
ENDBRANCH   5  21
BRANCH   5  23
HETATM   23  N   UNL     1     -10.189  11.826  67.256  1.00  0.00    -0.202 N  
HETATM   24  C   UNL     1     -11.188  13.268  65.530  1.00  0.00    -0.307 C  
HETATM   25  C   UNL     1     -11.356  12.303  66.697  1.00  0.00    -0.343 C  
HETATM   26  O   UNL     1     -12.471  12.015  67.133  1.00  0.00    -0.016 OA 
HETATM   27  H   UNL     1      -9.293  12.161  66.902  1.00  0.00     0.000 HD 
HETATM   28  C   UNL     1     -12.386  13.320  64.592  1.00  0.00    -0.391 C  
HETATM   29  C   UNL     1     -10.771  14.669  65.975  1.00  0.00    -0.313 A  
HETATM   30  C   UNL     1     -10.026  15.481  65.098  1.00  0.00    -0.184 A  
HETATM   31  O   UNL     1     -12.279  13.661  63.419  1.00  0.00    -0.607 OA 
HETATM   32  O   UNL     1     -13.593  13.008  65.116  1.00  0.00    -0.214 OA 
HETATM   33  C   UNL     1      -9.577  16.744  65.496  1.00  0.00     0.220 A  
HETATM   34  C   UNL     1      -9.878  17.207  66.770  1.00  0.00    -0.285 A  
HETATM   35  C   UNL     1     -10.664  16.450  67.630  1.00  0.00    -0.312 A  
HETATM   36  O   UNL     1      -9.417  18.406  67.222  1.00  0.00    -0.272 OA 
HETATM   37  H   UNL     1      -9.623  18.723  68.094  1.00  0.00     0.000 HD 
HETATM   38  C   UNL     1     -11.120  15.192  67.232  1.00  0.00    -0.332 A  
ENDBRANCH   5  23
TORSDOF 5
ENDMDL
MODEL      133
REMARK 921   NORMALIZED FREE ENERGY PREDICTED BY IDOCK:   -3.83 KCAL/MOL
REMARK 922        TOTAL FREE ENERGY PREDICTED BY IDOCK:   -6.30 KCAL/MOL
REMARK 923 INTER-LIGAND FREE ENERGY PREDICTED BY IDOCK:   -6.29 KCAL/MOL
REMARK 924 INTRA-LIGAND FREE ENERGY PREDICTED BY IDOCK:   -0.00 KCAL/MOL
REMARK 927      BINDING AFFINITY PREDICTED BY RF-SCORE:    0.00 PKD
ROOT
HETATM    1  C   UNL     1     -11.113   7.160  69.992  1.00  0.00    -0.258 C  
HETATM    2  O   UNL     1     -10.910   7.231  68.573  1.00  0.00    -0.162 OA 
HETATM    3  C   UNL     1     -10.562   5.962  68.017  1.00  0.00    -0.252 C  
HETATM    4  C   UNL     1      -9.420   5.316  68.791  1.00  0.00    -0.171 C  
HETATM    5  C   UNL     1     -10.946   8.478  70.863  1.00  0.00    -0.251 C  
HETATM    6  C   UNL     1      -9.102   5.737  70.047  1.00  0.00    -0.142 C  
HETATM    7  N   UNL     1      -9.957   6.607  70.685  1.00  0.00    -0.183 N  
HETATM    8  C   UNL     1      -7.823   5.283  70.714  1.00  0.00    -0.093 C  
HETATM    9  O   UNL     1      -6.917   4.709  70.125  1.00  0.00    -0.045 OA 
HETATM   10  O   UNL     1      -7.730   5.508  72.039  1.00  0.00    -0.098 OA 
HETATM   11  O   UNL     1      -8.838   7.844  72.292  1.00  0.00    -0.123 OA 
HETATM   12  C   UNL     1      -9.731   7.665  71.494  1.00  0.00    -0.165 C  
ENDROOT
BRANCH   4  13
HETATM   13  C   UNL     1      -8.670   4.299  67.948  1.00  0.00    -0.106 C  
BRANCH  13  14
HETATM   14  S   UNL     1      -8.549   4.701  66.183  1.00  0.00    -0.115 SA 
BRANCH  14  15
HETATM   15  C   UNL     1      -7.383   5.961  66.124  1.00  0.00    -0.081 A  
HETATM   16  N   UNL     1      -6.589   6.372  67.085  1.00  0.00    -0.056 NA 
HETATM   17  C   UNL     1      -7.757   6.664  63.715  1.00  0.00    -0.111 C  
HETATM   18  N   UNL     1      -5.882   7.428  66.560  1.00  0.00    -0.034 NA 
HETATM   19  N   UNL     1      -6.227   7.654  65.299  1.00  0.00    -0.038 NA 
HETATM   20  N   UNL     1      -7.162   6.731  65.019  1.00  0.00    -0.070 NA 
ENDBRANCH  14  15
ENDBRANCH  13  14
ENDBRANCH   4  13
BRANCH   5  21
HETATM   21  O   UNL     1     -12.015   8.740  71.811  1.00  0.00    -0.303 OA 
HETATM   22  C   UNL     1     -12.750   9.943  71.638  1.00  0.00    -0.429 C  
ENDBRANCH   5  21
BRANCH   5  23
HETATM   23  N   UNL     1     -10.517   9.664  70.052  1.00  0.00    -0.240 N  
HETATM   24  C   UNL     1      -8.901  11.089  68.862  1.00  0.00    -0.120 C  
HETATM   25  C   UNL     1      -9.213   9.809  69.626  1.00  0.00    -0.223 C  
HETATM   26  O   UNL     1      -8.354   8.943  69.802  1.00  0.00    -0.115 OA 
HETATM   27  H   UNL     1     -11.203  10.379  69.810  1.00  0.00     0.000 HD 
HETATM   28  C   UNL     1      -7.436  11.500  68.914  1.00  0.00    -0.106 C  
HETATM   29  C   UNL     1      -9.419  11.063  67.425  1.00  0.00    -0.173 A  
HETATM   30  C   UNL     1      -9.755  12.273  66.788  1.00  0.00    -0.219 A  
HETATM   31  O   UNL     1      -7.082  12.665  68.764  1.00  0.00    -0.091 OA 
HETATM   32  O   UNL     1      -6.527  10.517  69.097  1.00  0.00    -0.048 OA 
HETATM   33  C   UNL     1     -10.288  12.280  65.495  1.00  0.00    -0.296 A  
HETATM   34  C   UNL     1     -10.480  11.076  64.828  1.00  0.00    -0.316 A  
HETATM   35  C   UNL     1     -10.100   9.876  65.412  1.00  0.00    -0.270 A  
HETATM   36  O   UNL     1     -11.047  11.028  63.590  1.00  0.00    -0.552 OA 
HETATM   37  H   UNL     1     -11.179  10.205  63.134  1.00  0.00     0.000 HD 
HETATM   38  C   UNL     1      -9.559   9.868  66.700  1.00  0.00    -0.235 A  
ENDBRANCH   5  23
TORSDOF 5
ENDMDL
MODEL      134
REMARK 921   NORMALIZED FREE ENERGY PREDICTED BY IDOCK:   -3.81 KCAL/MOL
REMARK 922        TOTAL FREE ENERGY PREDICTED BY IDOCK:   -6.27 KCAL/MOL
REMARK 923 INTER-LIGAND FREE ENERGY PREDICTED BY IDOCK:   -6.39 KCAL/MOL
REMARK 924 INTRA-LIGAND FREE ENERGY PREDICTED BY IDOCK:    0.13 KCAL/MOL
REMARK 927      BINDING AFFINITY PREDICTED BY RF-SCORE:    0.00 PKD
ROOT
HETATM    1  C   UNL     1      -6.783   9.350  66.622  1.00  0.00    -0.072 C  
HETATM    2  O   UNL     1      -7.074   9.941  67.898  1.00  0.00    -0.084 OA 
HETATM    3  C   UNL     1      -6.930   9.005  68.968  1.00  0.00    -0.063 C  
HETATM    4  C   UNL     1      -7.687   7.715  68.677  1.00  0.00    -0.119 C  
HETATM    5  C   UNL     1      -7.403   9.999  65.311  1.00  0.00    -0.137 C  
HETATM    6  C   UNL     1      -8.076   7.405  67.408  1.00  0.00    -0.113 C  
HETATM    7  N   UNL     1      -7.593   8.167  66.367  1.00  0.00    -0.090 N  
HETATM    8  C   UNL     1      -9.038   6.267  67.151  1.00  0.00    -0.119 C  
HETATM    9  O   UNL     1      -9.680   5.709  68.030  1.00  0.00    -0.117 OA 
HETATM   10  O   UNL     1      -9.139   5.850  65.874  1.00  0.00    -0.159 OA 
HETATM   11  O   UNL     1      -9.016   8.077  64.542  1.00  0.00     0.304 OA 
HETATM   12  C   UNL     1      -8.169   8.606  65.227  1.00  0.00    -0.147 C  
ENDROOT
BRANCH   4  13
HETATM   13  C   UNL     1      -8.026   6.959  69.950  1.00  0.00    -0.120 C  
BRANCH  13  14
HETATM   14  S   UNL     1      -6.702   6.904  71.190  1.00  0.00    -0.057 SA 
BRANCH  14  15
HETATM   15  C   UNL     1      -6.812   5.319  71.843  1.00  0.00    -0.065 A  
HETATM   16  N   UNL     1      -6.791   4.176  71.198  1.00  0.00    -0.034 NA 
HETATM   17  C   UNL     1      -7.024   5.968  74.287  1.00  0.00    -0.083 C  
HETATM   18  N   UNL     1      -6.956   3.203  72.154  1.00  0.00    -0.030 NA 
HETATM   19  N   UNL     1      -7.066   3.737  73.364  1.00  0.00    -0.053 NA 
HETATM   20  N   UNL     1      -6.967   5.063  73.174  1.00  0.00    -0.077 NA 
ENDBRANCH  14  15
ENDBRANCH  13  14
ENDBRANCH   4  13
BRANCH   5  21
HETATM   21  O   UNL     1      -6.470  10.209  64.217  1.00  0.00    -0.127 OA 
HETATM   22  C   UNL     1      -5.139  10.563  64.564  1.00  0.00    -0.150 C  
ENDBRANCH   5  21
BRANCH   5  23
HETATM   23  N   UNL     1      -8.303  11.163  65.604  1.00  0.00    -0.356 N  
HETATM   24  C   UNL     1     -10.318  12.549  65.335  1.00  0.00    -0.305 C  
HETATM   25  C   UNL     1      -9.532  11.291  64.991  1.00  0.00    -0.209 C  
HETATM   26  O   UNL     1     -10.001  10.426  64.249  1.00  0.00    -0.335 OA 
HETATM   27  H   UNL     1      -8.001  11.874  66.269  1.00  0.00     0.000 HD 
HETATM   28  C   UNL     1     -11.331  12.955  64.274  1.00  0.00    -0.371 C  
HETATM   29  C   UNL     1     -10.960  12.489  66.720  1.00  0.00    -0.304 A  
HETATM   30  C   UNL     1     -11.194  13.683  67.427  1.00  0.00    -0.323 A  
HETATM   31  O   UNL     1     -11.713  14.114  64.148  1.00  0.00    -0.363 OA 
HETATM   32  O   UNL     1     -11.829  11.973  63.489  1.00  0.00    -0.466 OA 
HETATM   33  C   UNL     1     -11.725  13.659  68.721  1.00  0.00    -0.383 A  
HETATM   34  C   UNL     1     -12.031  12.441  69.311  1.00  0.00    -0.253 A  
HETATM   35  C   UNL     1     -11.866  11.253  68.611  1.00  0.00    -0.369 A  
HETATM   36  O   UNL     1     -12.498  12.363  70.589  1.00  0.00    -0.315 OA 
HETATM   37  H   UNL     1     -12.708  11.529  70.993  1.00  0.00     0.000 HD 
HETATM   38  C   UNL     1     -11.345  11.276  67.316  1.00  0.00    -0.329 A  
ENDBRANCH   5  23
TORSDOF 5
ENDMDL
MODEL      135
REMARK 921   NORMALIZED FREE ENERGY PREDICTED BY IDOCK:   -3.80 KCAL/MOL
REMARK 922        TOTAL FREE ENERGY PREDICTED BY IDOCK:   -6.25 KCAL/MOL
REMARK 923 INTER-LIGAND FREE ENERGY PREDICTED BY IDOCK:   -7.58 KCAL/MOL
REMARK 924 INTRA-LIGAND FREE ENERGY PREDICTED BY IDOCK:    1.33 KCAL/MOL
REMARK 927      BINDING AFFINITY PREDICTED BY RF-SCORE:    0.00 PKD
ROOT
HETATM    1  C   UNL     1      -9.578  15.340  69.803  1.00  0.00    -0.129 C  
HETATM    2  O   UNL     1      -8.394  14.794  69.201  1.00  0.00    -0.160 OA 
HETATM    3  C   UNL     1      -7.312  15.728  69.203  1.00  0.00    -0.194 C  
HETATM    4  C   UNL     1      -7.747  17.076  68.644  1.00  0.00    -0.251 C  
HETATM    5  C   UNL     1     -10.993  14.732  69.414  1.00  0.00    -0.265 C  
HETATM    6  C   UNL     1      -9.068  17.404  68.558  1.00  0.00    -0.273 C  
HETATM    7  N   UNL     1      -9.989  16.588  69.175  1.00  0.00    -0.274 N  
HETATM    8  C   UNL     1      -9.513  18.620  67.777  1.00  0.00    -0.300 C  
HETATM    9  O   UNL     1      -8.783  19.245  67.019  1.00  0.00    -0.278 OA 
HETATM   10  O   UNL     1     -10.780  19.027  67.982  1.00  0.00    -0.343 OA 
HETATM   11  O   UNL     1     -12.070  16.781  68.177  1.00  0.00     0.592 OA 
HETATM   12  C   UNL     1     -11.227  16.187  68.812  1.00  0.00    -0.365 C  
ENDROOT
BRANCH   4  13
HETATM   13  C   UNL     1      -6.568  17.876  68.117  1.00  0.00    -0.197 C  
BRANCH  13  14
HETATM   14  S   UNL     1      -5.946  17.353  66.495  1.00  0.00    -0.217 SA 
BRANCH  14  15
HETATM   15  C   UNL     1      -5.939  18.799  65.567  1.00  0.00    -0.220 A  
HETATM   16  N   UNL     1      -6.261  18.949  64.304  1.00  0.00    -0.348 NA 
HETATM   17  C   UNL     1      -5.134  20.373  67.387  1.00  0.00    -0.173 C  
HETATM   18  N   UNL     1      -6.048  20.276  64.018  1.00  0.00    -0.267 NA 
HETATM   19  N   UNL     1      -5.613  20.931  65.087  1.00  0.00    -0.218 NA 
HETATM   20  N   UNL     1      -5.552  20.010  66.063  1.00  0.00    -0.164 NA 
ENDBRANCH  14  15
ENDBRANCH  13  14
ENDBRANCH   4  13
BRANCH   5  21
HETATM   21  O   UNL     1     -11.870  14.425  70.531  1.00  0.00    -0.285 OA 
HETATM   22  C   UNL     1     -12.884  15.372  70.834  1.00  0.00    -0.476 C  
ENDBRANCH   5  21
BRANCH   5  23
HETATM   23  N   UNL     1     -10.901  13.658  68.371  1.00  0.00    -0.248 N  
HETATM   24  C   UNL     1     -10.559  12.776  66.100  1.00  0.00    -0.286 C  
HETATM   25  C   UNL     1     -10.556  13.952  67.068  1.00  0.00    -0.279 C  
HETATM   26  O   UNL     1     -10.217  15.079  66.705  1.00  0.00    -0.252 OA 
HETATM   27  H   UNL     1     -11.098  12.692  68.630  1.00  0.00     0.000 HD 
HETATM   28  C   UNL     1     -10.753  13.174  64.643  1.00  0.00    -0.380 C  
HETATM   29  C   UNL     1      -9.343  11.866  66.268  1.00  0.00    -0.234 A  
HETATM   30  C   UNL     1      -9.446  10.503  65.929  1.00  0.00    -0.236 A  
HETATM   31  O   UNL     1     -11.217  12.399  63.813  1.00  0.00    -0.381 OA 
HETATM   32  O   UNL     1     -10.356  14.416  64.286  1.00  0.00    -0.066 OA 
HETATM   33  C   UNL     1      -8.371   9.631  66.127  1.00  0.00    -0.122 A  
HETATM   34  C   UNL     1      -7.184  10.118  66.659  1.00  0.00    -0.105 A  
HETATM   35  C   UNL     1      -7.039  11.469  66.944  1.00  0.00    -0.135 A  
HETATM   36  O   UNL     1      -6.129   9.298  66.921  1.00  0.00    -0.061 OA 
HETATM   37  H   UNL     1      -5.317   9.631  67.285  1.00  0.00     0.000 HD 
HETATM   38  C   UNL     1      -8.108  12.344  66.739  1.00  0.00     0.009 A  
ENDBRANCH   5  23
TORSDOF 5
ENDMDL
MODEL      136
REMARK 921   NORMALIZED FREE ENERGY PREDICTED BY IDOCK:   -3.77 KCAL/MOL
REMARK 922        TOTAL FREE ENERGY PREDICTED BY IDOCK:   -6.21 KCAL/MOL
REMARK 923 INTER-LIGAND FREE ENERGY PREDICTED BY IDOCK:   -5.69 KCAL/MOL
REMARK 924 INTRA-LIGAND FREE ENERGY PREDICTED BY IDOCK:   -0.52 KCAL/MOL
REMARK 927      BINDING AFFINITY PREDICTED BY RF-SCORE:    0.00 PKD
ROOT
HETATM    1  C   UNL     1      -9.678   7.863  71.257  1.00  0.00    -0.157 C  
HETATM    2  O   UNL     1      -9.556   6.470  70.934  1.00  0.00    -0.174 OA 
HETATM    3  C   UNL     1      -9.358   5.665  72.099  1.00  0.00    -0.146 C  
HETATM    4  C   UNL     1      -8.234   6.218  72.966  1.00  0.00    -0.114 C  
HETATM    5  C   UNL     1      -9.341   8.946  70.144  1.00  0.00    -0.180 C  
HETATM    6  C   UNL     1      -7.804   7.503  72.815  1.00  0.00    -0.099 C  
HETATM    7  N   UNL     1      -8.537   8.353  72.019  1.00  0.00    -0.177 N  
HETATM    8  C   UNL     1      -6.533   7.976  73.485  1.00  0.00    -0.095 C  
HETATM    9  O   UNL     1      -5.720   7.224  74.005  1.00  0.00    -0.054 OA 
HETATM   10  O   UNL     1      -6.341   9.309  73.523  1.00  0.00    -0.321 OA 
HETATM   11  O   UNL     1      -7.216  10.070  71.199  1.00  0.00    -0.250 OA 
HETATM   12  C   UNL     1      -8.169   9.323  71.153  1.00  0.00     0.008 C  
ENDROOT
BRANCH   4  13
HETATM   13  C   UNL     1      -7.631   5.148  73.859  1.00  0.00    -0.091 C  
BRANCH  13  14
HETATM   14  S   UNL     1      -7.397   3.530  73.073  1.00  0.00    -0.056 SA 
BRANCH  14  15
HETATM   15  C   UNL     1      -8.913   2.747  73.276  1.00  0.00    -0.082 A  
HETATM   16  N   UNL     1      -9.586   2.565  74.388  1.00  0.00    -0.086 NA 
HETATM   17  C   UNL     1      -9.308   2.127  70.848  1.00  0.00    -0.131 C  
HETATM   18  N   UNL     1     -10.706   1.852  74.036  1.00  0.00    -0.131 NA 
HETATM   19  N   UNL     1     -10.726   1.608  72.732  1.00  0.00    -0.150 NA 
HETATM   20  N   UNL     1      -9.608   2.176  72.250  1.00  0.00    -0.099 NA 
ENDBRANCH  14  15
ENDBRANCH  13  14
ENDBRANCH   4  13
BRANCH   5  21
HETATM   21  O   UNL     1     -10.323  10.004  69.985  1.00  0.00    -0.253 OA 
HETATM   22  C   UNL     1     -11.496   9.921  70.781  1.00  0.00    -0.354 C  
ENDBRANCH   5  21
BRANCH   5  23
HETATM   23  N   UNL     1      -8.857   8.336  68.863  1.00  0.00    -0.140 N  
HETATM   24  C   UNL     1      -9.066   6.996  66.810  1.00  0.00    -0.162 C  
HETATM   25  C   UNL     1      -9.702   7.609  68.050  1.00  0.00    -0.152 C  
HETATM   26  O   UNL     1     -10.908   7.495  68.274  1.00  0.00    -0.120 OA 
HETATM   27  H   UNL     1      -7.884   8.461  68.586  1.00  0.00     0.000 HD 
HETATM   28  C   UNL     1      -9.807   5.780  66.271  1.00  0.00    -0.098 C  
HETATM   29  C   UNL     1      -8.808   8.021  65.707  1.00  0.00    -0.170 A  
HETATM   30  C   UNL     1      -7.756   7.808  64.795  1.00  0.00    -0.119 A  
HETATM   31  O   UNL     1      -9.244   4.919  65.602  1.00  0.00    -0.149 OA 
HETATM   32  O   UNL     1     -11.131   5.701  66.529  1.00  0.00    -0.194 OA 
HETATM   33  C   UNL     1      -7.455   8.755  63.811  1.00  0.00    -0.111 A  
HETATM   34  C   UNL     1      -8.210   9.918  63.729  1.00  0.00    -0.158 A  
HETATM   35  C   UNL     1      -9.290  10.122  64.577  1.00  0.00    -0.345 A  
HETATM   36  O   UNL     1      -7.920  10.894  62.824  1.00  0.00    -0.342 OA 
HETATM   37  H   UNL     1      -8.436  11.690  62.767  1.00  0.00     0.000 HD 
HETATM   38  C   UNL     1      -9.597   9.174  65.554  1.00  0.00    -0.239 A  
ENDBRANCH   5  23
TORSDOF 5
ENDMDL
MODEL      137
REMARK 921   NORMALIZED FREE ENERGY PREDICTED BY IDOCK:   -3.74 KCAL/MOL
REMARK 922        TOTAL FREE ENERGY PREDICTED BY IDOCK:   -6.18 KCAL/MOL
REMARK 923 INTER-LIGAND FREE ENERGY PREDICTED BY IDOCK:   -5.20 KCAL/MOL
REMARK 924 INTRA-LIGAND FREE ENERGY PREDICTED BY IDOCK:   -0.97 KCAL/MOL
REMARK 927      BINDING AFFINITY PREDICTED BY RF-SCORE:    0.00 PKD
ROOT
HETATM    1  C   UNL     1      -7.410  12.420  68.083  1.00  0.00    -0.111 C  
HETATM    2  O   UNL     1      -7.439  11.523  69.204  1.00  0.00    -0.100 OA 
HETATM    3  C   UNL     1      -6.796  10.281  68.912  1.00  0.00    -0.059 C  
HETATM    4  C   UNL     1      -7.312   9.686  67.608  1.00  0.00    -0.090 C  
HETATM    5  C   UNL     1      -8.505  13.567  67.984  1.00  0.00    -0.176 C  
HETATM    6  C   UNL     1      -7.976  10.459  66.703  1.00  0.00    -0.120 C  
HETATM    7  N   UNL     1      -7.988  11.824  66.887  1.00  0.00    -0.163 N  
HETATM    8  C   UNL     1      -8.707   9.830  65.538  1.00  0.00    -0.149 C  
HETATM    9  O   UNL     1      -8.933   8.631  65.446  1.00  0.00    -0.189 OA 
HETATM   10  O   UNL     1      -9.082  10.665  64.550  1.00  0.00    -0.198 OA 
HETATM   11  O   UNL     1      -9.825  12.784  65.854  1.00  0.00    -0.263 OA 
HETATM   12  C   UNL     1      -8.949  12.753  66.689  1.00  0.00    -0.150 C  
ENDROOT
BRANCH   4  13
HETATM   13  C   UNL     1      -7.100   8.183  67.549  1.00  0.00    -0.083 C  
BRANCH  13  14
HETATM   14  S   UNL     1      -8.244   7.204  68.561  1.00  0.00    -0.125 SA 
BRANCH  14  15
HETATM   15  C   UNL     1      -8.829   6.003  67.481  1.00  0.00    -0.109 A  
HETATM   16  N   UNL     1      -8.140   5.083  66.846  1.00  0.00    -0.107 NA 
HETATM   17  C   UNL     1     -11.285   6.633  67.561  1.00  0.00    -0.191 C  
HETATM   18  N   UNL     1      -9.049   4.401  66.074  1.00  0.00    -0.125 NA 
HETATM   19  N   UNL     1     -10.274   4.885  66.237  1.00  0.00    -0.255 NA 
HETATM   20  N   UNL     1     -10.141   5.884  67.126  1.00  0.00    -0.156 NA 
ENDBRANCH  14  15
ENDBRANCH  13  14
ENDBRANCH   4  13
BRANCH   5  21
HETATM   21  O   UNL     1      -7.995  14.893  67.681  1.00  0.00    -0.141 OA 
HETATM   22  C   UNL     1      -7.372  15.602  68.742  1.00  0.00    -0.144 C  
ENDBRANCH   5  21
BRANCH   5  23
HETATM   23  N   UNL     1      -9.508  13.516  69.098  1.00  0.00    -0.254 N  
HETATM   24  C   UNL     1     -11.682  13.950  70.166  1.00  0.00    -0.314 C  
HETATM   25  C   UNL     1     -10.785  14.012  68.937  1.00  0.00    -0.248 C  
HETATM   26  O   UNL     1     -11.205  14.436  67.859  1.00  0.00    -0.265 OA 
HETATM   27  H   UNL     1      -9.241  13.106  69.992  1.00  0.00     0.000 HD 
HETATM   28  C   UNL     1     -12.809  14.973  70.162  1.00  0.00    -0.157 C  
HETATM   29  C   UNL     1     -12.210  12.544  70.445  1.00  0.00    -0.368 A  
HETATM   30  C   UNL     1     -12.527  12.173  71.766  1.00  0.00     0.043 A  
HETATM   31  O   UNL     1     -13.328  15.373  71.200  1.00  0.00    -0.475 OA 
HETATM   32  O   UNL     1     -13.247  15.403  68.958  1.00  0.00     1.072 OA 
HETATM   33  C   UNL     1     -12.956  10.876  72.064  1.00  0.00    -0.418 A  
HETATM   34  C   UNL     1     -13.079   9.944  71.041  1.00  0.00    -0.329 A  
HETATM   35  C   UNL     1     -12.831  10.304  69.723  1.00  0.00     0.356 A  
HETATM   36  O   UNL     1     -13.440   8.654  71.289  1.00  0.00    -0.512 OA 
HETATM   37  H   UNL     1     -13.523   8.017  70.589  1.00  0.00     0.000 HD 
HETATM   38  C   UNL     1     -12.411  11.602  69.423  1.00  0.00    -0.131 A  
ENDBRANCH   5  23
TORSDOF 5
ENDMDL
MODEL      138
REMARK 921   NORMALIZED FREE ENERGY PREDICTED BY IDOCK:   -3.71 KCAL/MOL
REMARK 922        TOTAL FREE ENERGY PREDICTED BY IDOCK:   -6.14 KCAL/MOL
REMARK 923 INTER-LIGAND FREE ENERGY PREDICTED BY IDOCK:   -4.19 KCAL/MOL
REMARK 924 INTRA-LIGAND FREE ENERGY PREDICTED BY IDOCK:   -1.95 KCAL/MOL
REMARK 927      BINDING AFFINITY PREDICTED BY RF-SCORE:    0.00 PKD
ROOT
HETATM    1  C   UNL     1      -9.202   8.903  67.245  1.00  0.00    -0.138 C  
HETATM    2  O   UNL     1      -7.767   8.893  67.288  1.00  0.00    -0.092 OA 
HETATM    3  C   UNL     1      -7.196   8.540  66.026  1.00  0.00    -0.077 C  
HETATM    4  C   UNL     1      -7.825   7.268  65.473  1.00  0.00    -0.115 C  
HETATM    5  C   UNL     1     -10.016   8.708  68.595  1.00  0.00    -0.183 C  
HETATM    6  C   UNL     1      -9.019   6.816  65.948  1.00  0.00    -0.070 C  
HETATM    7  N   UNL     1      -9.747   7.634  66.783  1.00  0.00    -0.207 N  
HETATM    8  C   UNL     1      -9.521   5.435  65.591  1.00  0.00    -0.041 C  
HETATM    9  O   UNL     1      -8.829   4.579  65.056  1.00  0.00    -0.134 OA 
HETATM   10  O   UNL     1     -10.817   5.184  65.859  1.00  0.00    -0.208 OA 
HETATM   11  O   UNL     1     -11.167   6.395  68.130  1.00  0.00    -0.312 OA 
HETATM   12  C   UNL     1     -10.498   7.372  67.875  1.00  0.00    -0.205 C  
ENDROOT
BRANCH   4  13
HETATM   13  C   UNL     1      -6.911   6.572  64.479  1.00  0.00    -0.051 C  
BRANCH  13  14
HETATM   14  S   UNL     1      -5.240   6.215  65.089  1.00  0.00    -0.014 SA 
BRANCH  14  15
HETATM   15  C   UNL     1      -5.463   4.887  66.157  1.00  0.00    -0.013 A  
HETATM   16  N   UNL     1      -5.590   3.617  65.851  1.00  0.00    -0.017 NA 
HETATM   17  C   UNL     1      -5.469   6.192  68.333  1.00  0.00    -0.008 C  
HETATM   18  N   UNL     1      -5.791   2.964  67.043  1.00  0.00    -0.022 NA 
HETATM   19  N   UNL     1      -5.779   3.813  68.062  1.00  0.00    -0.021 NA 
HETATM   20  N   UNL     1      -5.564   5.020  67.511  1.00  0.00    -0.012 NA 
ENDBRANCH  14  15
ENDBRANCH  13  14
ENDBRANCH   4  13
BRANCH   5  21
HETATM   21  O   UNL     1     -11.092   9.659  68.819  1.00  0.00    -0.162 OA 
HETATM   22  C   UNL     1     -11.284  10.659  67.829  1.00  0.00    -0.313 C  
ENDBRANCH   5  21
BRANCH   5  23
HETATM   23  N   UNL     1      -9.131   8.465  69.781  1.00  0.00    -0.152 N  
HETATM   24  C   UNL     1      -8.644   7.854  72.115  1.00  0.00    -0.185 C  
HETATM   25  C   UNL     1      -9.643   8.000  70.975  1.00  0.00    -0.160 C  
HETATM   26  O   UNL     1     -10.822   7.671  71.112  1.00  0.00    -0.231 OA 
HETATM   27  H   UNL     1      -8.131   8.648  69.705  1.00  0.00     0.000 HD 
HETATM   28  C   UNL     1      -9.272   7.913  73.500  1.00  0.00    -0.276 C  
HETATM   29  C   UNL     1      -7.747   6.627  71.964  1.00  0.00    -0.097 A  
HETATM   30  C   UNL     1      -6.457   6.638  72.528  1.00  0.00    -0.058 A  
HETATM   31  O   UNL     1      -8.634   8.257  74.490  1.00  0.00    -0.062 OA 
HETATM   32  O   UNL     1     -10.565   7.532  73.607  1.00  0.00    -0.348 OA 
HETATM   33  C   UNL     1      -5.589   5.555  72.358  1.00  0.00    -0.018 A  
HETATM   34  C   UNL     1      -6.010   4.450  71.629  1.00  0.00    -0.017 A  
HETATM   35  C   UNL     1      -7.298   4.390  71.115  1.00  0.00    -0.048 A  
HETATM   36  O   UNL     1      -5.181   3.395  71.389  1.00  0.00    -0.003 OA 
HETATM   37  H   UNL     1      -5.469   2.639  70.890  1.00  0.00     0.000 HD 
HETATM   38  C   UNL     1      -8.169   5.467  71.292  1.00  0.00    -0.125 A  
ENDBRANCH   5  23
TORSDOF 5
ENDMDL
MODEL      139
REMARK 921   NORMALIZED FREE ENERGY PREDICTED BY IDOCK:   -3.60 KCAL/MOL
REMARK 922        TOTAL FREE ENERGY PREDICTED BY IDOCK:   -6.00 KCAL/MOL
REMARK 923 INTER-LIGAND FREE ENERGY PREDICTED BY IDOCK:   -4.84 KCAL/MOL
REMARK 924 INTRA-LIGAND FREE ENERGY PREDICTED BY IDOCK:   -1.17 KCAL/MOL
REMARK 927      BINDING AFFINITY PREDICTED BY RF-SCORE:    0.00 PKD
ROOT
HETATM    1  C   UNL     1      -9.202   8.903  67.245  1.00  0.00    -0.138 C  
HETATM    2  O   UNL     1      -7.767   8.893  67.288  1.00  0.00    -0.092 OA 
HETATM    3  C   UNL     1      -7.196   8.540  66.026  1.00  0.00    -0.077 C  
HETATM    4  C   UNL     1      -7.825   7.268  65.473  1.00  0.00    -0.115 C  
HETATM    5  C   UNL     1     -10.016   8.708  68.595  1.00  0.00    -0.183 C  
HETATM    6  C   UNL     1      -9.019   6.816  65.948  1.00  0.00    -0.070 C  
HETATM    7  N   UNL     1      -9.747   7.634  66.783  1.00  0.00    -0.207 N  
HETATM    8  C   UNL     1      -9.521   5.435  65.591  1.00  0.00    -0.041 C  
HETATM    9  O   UNL     1      -8.829   4.579  65.056  1.00  0.00    -0.134 OA 
HETATM   10  O   UNL     1     -10.817   5.184  65.859  1.00  0.00    -0.208 OA 
HETATM   11  O   UNL     1     -11.167   6.395  68.130  1.00  0.00    -0.312 OA 
HETATM   12  C   UNL     1     -10.498   7.372  67.875  1.00  0.00    -0.205 C  
ENDROOT
BRANCH   4  13
HETATM   13  C   UNL     1      -6.911   6.572  64.479  1.00  0.00    -0.051 C  
BRANCH  13  14
HETATM   14  S   UNL     1      -7.184   7.013  62.741  1.00  0.00    -0.073 SA 
BRANCH  14  15
HETATM   15  C   UNL     1      -6.509   8.586  62.601  1.00  0.00    -0.091 A  
HETATM   16  N   UNL     1      -5.246   8.913  62.454  1.00  0.00    -0.070 NA 
HETATM   17  C   UNL     1      -8.668   9.906  62.785  1.00  0.00    -0.212 C  
HETATM   18  N   UNL     1      -5.215  10.287  62.438  1.00  0.00    -0.095 NA 
HETATM   19  N   UNL     1      -6.434  10.794  62.563  1.00  0.00    -0.099 NA 
HETATM   20  N   UNL     1      -7.250   9.731  62.656  1.00  0.00    -0.108 NA 
ENDBRANCH  14  15
ENDBRANCH  13  14
ENDBRANCH   4  13
BRANCH   5  21
HETATM   21  O   UNL     1     -11.092   9.659  68.819  1.00  0.00    -0.162 OA 
HETATM   22  C   UNL     1     -11.284  10.659  67.829  1.00  0.00    -0.313 C  
ENDBRANCH   5  21
BRANCH   5  23
HETATM   23  N   UNL     1      -9.131   8.465  69.781  1.00  0.00    -0.152 N  
HETATM   24  C   UNL     1      -8.644   7.854  72.115  1.00  0.00    -0.185 C  
HETATM   25  C   UNL     1      -9.643   8.000  70.975  1.00  0.00    -0.160 C  
HETATM   26  O   UNL     1     -10.822   7.671  71.112  1.00  0.00    -0.231 OA 
HETATM   27  H   UNL     1      -8.131   8.648  69.705  1.00  0.00     0.000 HD 
HETATM   28  C   UNL     1      -9.272   7.913  73.500  1.00  0.00    -0.276 C  
HETATM   29  C   UNL     1      -7.747   6.627  71.964  1.00  0.00    -0.097 A  
HETATM   30  C   UNL     1      -6.457   6.638  72.528  1.00  0.00    -0.058 A  
HETATM   31  O   UNL     1      -8.634   8.257  74.490  1.00  0.00    -0.062 OA 
HETATM   32  O   UNL     1     -10.565   7.532  73.607  1.00  0.00    -0.348 OA 
HETATM   33  C   UNL     1      -5.589   5.555  72.358  1.00  0.00    -0.018 A  
HETATM   34  C   UNL     1      -6.010   4.450  71.629  1.00  0.00    -0.017 A  
HETATM   35  C   UNL     1      -7.298   4.390  71.115  1.00  0.00    -0.048 A  
HETATM   36  O   UNL     1      -5.181   3.395  71.389  1.00  0.00    -0.003 OA 
HETATM   37  H   UNL     1      -5.469   2.639  70.890  1.00  0.00     0.000 HD 
HETATM   38  C   UNL     1      -8.169   5.467  71.292  1.00  0.00    -0.125 A  
ENDBRANCH   5  23
TORSDOF 5
ENDMDL
MODEL      140
REMARK 921   NORMALIZED FREE ENERGY PREDICTED BY IDOCK:   -3.60 KCAL/MOL
REMARK 922        TOTAL FREE ENERGY PREDICTED BY IDOCK:   -6.00 KCAL/MOL
REMARK 923 INTER-LIGAND FREE ENERGY PREDICTED BY IDOCK:   -6.70 KCAL/MOL
REMARK 924 INTRA-LIGAND FREE ENERGY PREDICTED BY IDOCK:    0.70 KCAL/MOL
REMARK 927      BINDING AFFINITY PREDICTED BY RF-SCORE:    0.00 PKD
ROOT
HETATM    1  C   UNL     1      -8.977   9.278  71.406  1.00  0.00     0.058 C  
HETATM    2  O   UNL     1      -8.900   9.629  70.016  1.00  0.00    -0.202 OA 
HETATM    3  C   UNL     1      -9.726  10.752  69.700  1.00  0.00     0.126 C  
HETATM    4  C   UNL     1     -11.141  10.562  70.231  1.00  0.00    -0.359 C  
HETATM    5  C   UNL     1      -8.621   7.794  71.848  1.00  0.00    -0.114 C  
HETATM    6  C   UNL     1     -11.406   9.639  71.198  1.00  0.00    -0.386 C  
HETATM    7  N   UNL     1     -10.347   9.032  71.836  1.00  0.00    -0.340 N  
HETATM    8  C   UNL     1     -12.830   9.268  71.544  1.00  0.00    -0.354 C  
HETATM    9  O   UNL     1     -13.798   9.588  70.867  1.00  0.00    -0.159 OA 
HETATM   10  O   UNL     1     -13.005   8.579  72.688  1.00  0.00    -0.309 OA 
HETATM   11  O   UNL     1     -10.965   6.972  72.696  1.00  0.00    -0.248 OA 
HETATM   12  C   UNL     1     -10.157   7.765  72.265  1.00  0.00    -0.220 C  
ENDROOT
BRANCH   4  13
HETATM   13  C   UNL     1     -12.148  11.407  69.471  1.00  0.00    -0.302 C  
BRANCH  13  14
HETATM   14  S   UNL     1     -11.956  13.200  69.670  1.00  0.00    -0.271 SA 
BRANCH  14  15
HETATM   15  C   UNL     1     -12.860  13.560  71.086  1.00  0.00    -0.309 A  
HETATM   16  N   UNL     1     -13.621  12.750  71.785  1.00  0.00    -0.241 NA 
HETATM   17  C   UNL     1     -12.237  16.011  71.280  1.00  0.00    -0.350 C  
HETATM   18  N   UNL     1     -14.160  13.518  72.789  1.00  0.00    -0.614 NA 
HETATM   19  N   UNL     1     -13.732  14.771  72.715  1.00  0.00    -0.500 NA 
HETATM   20  N   UNL     1     -12.909  14.800  71.653  1.00  0.00    -0.314 NA 
ENDBRANCH  14  15
ENDBRANCH  13  14
ENDBRANCH   4  13
BRANCH   5  21
HETATM   21  O   UNL     1      -7.717   7.680  72.980  1.00  0.00    -0.094 OA 
HETATM   22  C   UNL     1      -6.893   8.802  73.263  1.00  0.00     0.134 C  
ENDBRANCH   5  21
BRANCH   5  23
HETATM   23  N   UNL     1      -8.296   6.900  70.689  1.00  0.00    -0.126 N  
HETATM   24  C   UNL     1      -8.790   5.649  68.628  1.00  0.00    -0.109 C  
HETATM   25  C   UNL     1      -9.233   6.618  69.716  1.00  0.00    -0.146 C  
HETATM   26  O   UNL     1     -10.346   7.146  69.689  1.00  0.00    -0.202 OA 
HETATM   27  H   UNL     1      -7.364   6.493  70.617  1.00  0.00     0.000 HD 
HETATM   28  C   UNL     1      -9.938   4.921  67.942  1.00  0.00    -0.123 C  
HETATM   29  C   UNL     1      -7.853   6.293  67.607  1.00  0.00    -0.106 A  
HETATM   30  C   UNL     1      -6.915   5.492  66.928  1.00  0.00    -0.065 A  
HETATM   31  O   UNL     1      -9.784   3.833  67.397  1.00  0.00    -0.197 OA 
HETATM   32  O   UNL     1     -11.138   5.542  67.925  1.00  0.00     0.024 OA 
HETATM   33  C   UNL     1      -6.003   6.059  66.032  1.00  0.00    -0.028 A  
HETATM   34  C   UNL     1      -6.029   7.429  65.804  1.00  0.00    -0.037 A  
HETATM   35  C   UNL     1      -6.985   8.229  66.416  1.00  0.00    -0.067 A  
HETATM   36  O   UNL     1      -5.126   8.034  64.983  1.00  0.00    -0.031 OA 
HETATM   37  H   UNL     1      -5.144   8.971  64.827  1.00  0.00     0.000 HD 
HETATM   38  C   UNL     1      -7.902   7.664  67.304  1.00  0.00    -0.117 A  
ENDBRANCH   5  23
TORSDOF 5
ENDMDL
MODEL      141
REMARK 921   NORMALIZED FREE ENERGY PREDICTED BY IDOCK:   -3.58 KCAL/MOL
REMARK 922        TOTAL FREE ENERGY PREDICTED BY IDOCK:   -5.98 KCAL/MOL
REMARK 923 INTER-LIGAND FREE ENERGY PREDICTED BY IDOCK:   -5.67 KCAL/MOL
REMARK 924 INTRA-LIGAND FREE ENERGY PREDICTED BY IDOCK:   -0.30 KCAL/MOL
REMARK 927      BINDING AFFINITY PREDICTED BY RF-SCORE:    0.00 PKD
ROOT
HETATM    1  C   UNL     1     -11.175   9.377  68.416  1.00  0.00     0.189 C  
HETATM    2  O   UNL     1     -10.971  10.245  69.542  1.00  0.00    -0.226 OA 
HETATM    3  C   UNL     1     -11.283  11.604  69.234  1.00  0.00    -0.265 C  
HETATM    4  C   UNL     1     -10.593  12.052  67.952  1.00  0.00    -0.227 C  
HETATM    5  C   UNL     1     -10.387   8.000  68.349  1.00  0.00    -0.199 C  
HETATM    6  C   UNL     1     -10.104  11.139  67.066  1.00  0.00    -0.200 C  
HETATM    7  N   UNL     1     -10.428   9.813  67.243  1.00  0.00    -0.255 N  
HETATM    8  C   UNL     1      -9.202  11.569  65.932  1.00  0.00    -0.210 C  
HETATM    9  O   UNL     1      -8.690  12.678  65.854  1.00  0.00     0.293 OA 
HETATM   10  O   UNL     1      -9.005  10.665  64.952  1.00  0.00    -0.189 OA 
HETATM   11  O   UNL     1      -8.843   8.433  66.271  1.00  0.00    -0.140 OA 
HETATM   12  C   UNL     1      -9.715   8.678  67.075  1.00  0.00    -0.201 C  
ENDROOT
BRANCH   4  13
HETATM   13  C   UNL     1     -10.433  13.562  67.894  1.00  0.00    -0.250 C  
BRANCH  13  14
HETATM   14  S   UNL     1      -8.970  14.215  68.745  1.00  0.00     0.007 SA 
BRANCH  14  15
HETATM   15  C   UNL     1      -8.350  15.393  67.659  1.00  0.00    -0.161 A  
HETATM   16  N   UNL     1      -7.163  15.430  67.099  1.00  0.00    -0.189 NA 
HETATM   17  C   UNL     1     -10.395  16.892  67.572  1.00  0.00    -0.318 C  
HETATM   18  N   UNL     1      -7.136  16.586  66.356  1.00  0.00    -0.141 NA 
HETATM   19  N   UNL     1      -8.285  17.241  66.450  1.00  0.00    -0.294 NA 
HETATM   20  N   UNL     1      -9.053  16.492  67.259  1.00  0.00    -0.202 NA 
ENDBRANCH  14  15
ENDBRANCH  13  14
ENDBRANCH   4  13
BRANCH   5  21
HETATM   21  O   UNL     1     -11.191   6.835  68.021  1.00  0.00    -0.186 OA 
HETATM   22  C   UNL     1     -10.516   5.725  67.448  1.00  0.00    -0.254 C  
ENDBRANCH   5  21
BRANCH   5  23
HETATM   23  N   UNL     1      -9.441   7.811  69.497  1.00  0.00    -0.160 N  
HETATM   24  C   UNL     1      -8.837   7.461  71.857  1.00  0.00    -0.128 C  
HETATM   25  C   UNL     1      -9.903   7.574  70.776  1.00  0.00    -0.178 C  
HETATM   26  O   UNL     1     -11.097   7.414  71.034  1.00  0.00    -0.248 OA 
HETATM   27  H   UNL     1      -8.437   7.858  69.331  1.00  0.00     0.000 HD 
HETATM   28  C   UNL     1      -9.340   7.780  73.258  1.00  0.00    -0.270 C  
HETATM   29  C   UNL     1      -8.099   6.124  71.824  1.00  0.00    -0.110 A  
HETATM   30  C   UNL     1      -6.774   6.052  72.295  1.00  0.00    -0.072 A  
HETATM   31  O   UNL     1      -8.589   8.172  74.145  1.00  0.00    -0.256 OA 
HETATM   32  O   UNL     1     -10.654   7.578  73.502  1.00  0.00    -0.373 OA 
HETATM   33  C   UNL     1      -6.050   4.858  72.224  1.00  0.00    -0.025 A  
HETATM   34  C   UNL     1      -6.649   3.726  71.688  1.00  0.00    -0.019 A  
HETATM   35  C   UNL     1      -7.974   3.756  71.273  1.00  0.00    -0.064 A  
HETATM   36  O   UNL     1      -5.967   2.555  71.547  1.00  0.00    -0.013 OA 
HETATM   37  H   UNL     1      -6.377   1.781  71.180  1.00  0.00     0.000 HD 
HETATM   38  C   UNL     1      -8.702   4.946  71.352  1.00  0.00    -0.141 A  
ENDBRANCH   5  23
TORSDOF 5
ENDMDL
MODEL      142
REMARK 921   NORMALIZED FREE ENERGY PREDICTED BY IDOCK:   -3.54 KCAL/MOL
REMARK 922        TOTAL FREE ENERGY PREDICTED BY IDOCK:   -5.93 KCAL/MOL
REMARK 923 INTER-LIGAND FREE ENERGY PREDICTED BY IDOCK:   -6.59 KCAL/MOL
REMARK 924 INTRA-LIGAND FREE ENERGY PREDICTED BY IDOCK:    0.66 KCAL/MOL
REMARK 927      BINDING AFFINITY PREDICTED BY RF-SCORE:    0.00 PKD
ROOT
HETATM    1  C   UNL     1     -10.163   9.448  66.813  1.00  0.00    -0.250 C  
HETATM    2  O   UNL     1     -10.231   8.044  67.109  1.00  0.00    -0.233 OA 
HETATM    3  C   UNL     1     -10.216   7.792  68.516  1.00  0.00    -0.204 C  
HETATM    4  C   UNL     1      -9.070   8.531  69.195  1.00  0.00    -0.146 C  
HETATM    5  C   UNL     1      -9.611   9.912  65.397  1.00  0.00    -0.285 C  
HETATM    6  C   UNL     1      -8.447   9.574  68.577  1.00  0.00    -0.119 C  
HETATM    7  N   UNL     1      -9.004  10.083  67.425  1.00  0.00    -0.131 N  
HETATM    8  C   UNL     1      -7.157  10.140  69.127  1.00  0.00    -0.073 C  
HETATM    9  O   UNL     1      -6.492   9.593  69.997  1.00  0.00    -0.052 OA 
HETATM   10  O   UNL     1      -6.772  11.332  68.632  1.00  0.00    -0.062 OA 
HETATM   11  O   UNL     1      -7.402  11.131  66.121  1.00  0.00    -0.107 OA 
HETATM   12  C   UNL     1      -8.451  10.547  66.283  1.00  0.00    -0.150 C  
ENDROOT
BRANCH   4  13
HETATM   13  C   UNL     1      -8.679   7.880  70.511  1.00  0.00    -0.136 C  
BRANCH  13  14
HETATM   14  S   UNL     1      -9.545   8.517  71.973  1.00  0.00    -0.318 SA 
BRANCH  14  15
HETATM   15  C   UNL     1     -10.274   7.123  72.664  1.00  0.00    -0.200 A  
HETATM   16  N   UNL     1      -9.854   6.415  73.686  1.00  0.00    -0.180 NA 
HETATM   17  C   UNL     1     -12.265   6.964  71.099  1.00  0.00    -0.379 C  
HETATM   18  N   UNL     1     -10.750   5.382  73.819  1.00  0.00    -0.286 NA 
HETATM   19  N   UNL     1     -11.707   5.459  72.903  1.00  0.00    -0.248 NA 
HETATM   20  N   UNL     1     -11.417   6.555  72.182  1.00  0.00    -0.279 NA 
ENDBRANCH  14  15
ENDBRANCH  13  14
ENDBRANCH   4  13
BRANCH   5  21
HETATM   21  O   UNL     1     -10.417  10.906  64.708  1.00  0.00    -0.328 OA 
HETATM   22  C   UNL     1      -9.892  11.437  63.501  1.00  0.00    -0.375 C  
ENDBRANCH   5  21
BRANCH   5  23
HETATM   23  N   UNL     1      -9.156   8.766  64.543  1.00  0.00    -0.392 N  
HETATM   24  C   UNL     1      -7.671   6.911  63.902  1.00  0.00    -0.115 C  
HETATM   25  C   UNL     1      -8.059   8.005  64.889  1.00  0.00    -0.147 C  
HETATM   26  O   UNL     1      -7.451   8.155  65.949  1.00  0.00    -0.077 OA 
HETATM   27  H   UNL     1      -9.667   8.546  63.689  1.00  0.00     0.000 HD 
HETATM   28  C   UNL     1      -6.209   6.496  63.982  1.00  0.00    -0.034 C  
HETATM   29  C   UNL     1      -8.597   5.698  63.969  1.00  0.00     0.073 A  
HETATM   30  C   UNL     1      -8.779   4.903  62.821  1.00  0.00    -0.120 A  
HETATM   31  O   UNL     1      -5.622   5.996  63.027  1.00  0.00    -0.017 OA 
HETATM   32  O   UNL     1      -5.583   6.667  65.168  1.00  0.00    -0.028 OA 
HETATM   33  C   UNL     1      -9.664   3.820  62.830  1.00  0.00    -0.135 A  
HETATM   34  C   UNL     1     -10.367   3.521  63.991  1.00  0.00    -0.242 A  
HETATM   35  C   UNL     1     -10.157   4.253  65.152  1.00  0.00    -0.221 A  
HETATM   36  O   UNL     1     -11.281   2.512  64.033  1.00  0.00    -0.578 OA 
HETATM   37  H   UNL     1     -11.761   2.308  64.827  1.00  0.00     0.000 HD 
HETATM   38  C   UNL     1      -9.267   5.329  65.147  1.00  0.00    -0.013 A  
ENDBRANCH   5  23
TORSDOF 5
ENDMDL
MODEL      143
REMARK 921   NORMALIZED FREE ENERGY PREDICTED BY IDOCK:   -3.50 KCAL/MOL
REMARK 922        TOTAL FREE ENERGY PREDICTED BY IDOCK:   -5.87 KCAL/MOL
REMARK 923 INTER-LIGAND FREE ENERGY PREDICTED BY IDOCK:   -6.09 KCAL/MOL
REMARK 924 INTRA-LIGAND FREE ENERGY PREDICTED BY IDOCK:    0.22 KCAL/MOL
REMARK 927      BINDING AFFINITY PREDICTED BY RF-SCORE:    0.00 PKD
ROOT
HETATM    1  C   UNL     1      -9.265  10.990  67.138  1.00  0.00    -0.152 C  
HETATM    2  O   UNL     1      -7.969  11.229  67.707  1.00  0.00    -0.111 OA 
HETATM    3  C   UNL     1      -7.317  10.015  68.085  1.00  0.00    -0.083 C  
HETATM    4  C   UNL     1      -8.231   9.139  68.931  1.00  0.00    -0.112 C  
HETATM    5  C   UNL     1     -10.352  12.148  67.177  1.00  0.00    -0.214 C  
HETATM    6  C   UNL     1      -9.579   9.345  68.946  1.00  0.00    -0.155 C  
HETATM    7  N   UNL     1     -10.120  10.215  68.026  1.00  0.00    -0.152 N  
HETATM    8  C   UNL     1     -10.455   8.656  69.967  1.00  0.00    -0.223 C  
HETATM    9  O   UNL     1     -10.020   8.065  70.946  1.00  0.00    -0.185 OA 
HETATM   10  O   UNL     1     -11.781   8.686  69.730  1.00  0.00     0.234 OA 
HETATM   11  O   UNL     1     -12.131  11.080  68.785  1.00  0.00    -0.518 OA 
HETATM   12  C   UNL     1     -11.120  11.119  68.118  1.00  0.00    -0.264 C  
ENDROOT
BRANCH   4  13
HETATM   13  C   UNL     1      -7.444   8.165  69.791  1.00  0.00    -0.084 C  
BRANCH  13  14
HETATM   14  S   UNL     1      -6.509   6.910  68.873  1.00  0.00    -0.037 SA 
BRANCH  14  15
HETATM   15  C   UNL     1      -7.695   5.743  68.441  1.00  0.00    -0.096 A  
HETATM   16  N   UNL     1      -8.938   5.953  68.075  1.00  0.00    -0.119 NA 
HETATM   17  C   UNL     1      -6.271   3.668  68.765  1.00  0.00    -0.029 C  
HETATM   18  N   UNL     1      -9.486   4.708  67.882  1.00  0.00    -0.144 NA 
HETATM   19  N   UNL     1      -8.596   3.753  68.116  1.00  0.00    -0.093 NA 
HETATM   20  N   UNL     1      -7.468   4.398  68.458  1.00  0.00    -0.063 NA 
ENDBRANCH  14  15
ENDBRANCH  13  14
ENDBRANCH   4  13
BRANCH   5  21
HETATM   21  O   UNL     1     -11.039  12.403  65.923  1.00  0.00    -0.290 OA 
HETATM   22  C   UNL     1     -12.238  13.162  65.987  1.00  0.00    -0.414 C  
ENDBRANCH   5  21
BRANCH   5  23
HETATM   23  N   UNL     1      -9.873  13.375  67.895  1.00  0.00    -0.229 N  
HETATM   24  C   UNL     1      -8.282  15.178  68.416  1.00  0.00    -0.145 C  
HETATM   25  C   UNL     1      -8.675  13.976  67.568  1.00  0.00    -0.198 C  
HETATM   26  O   UNL     1      -7.980  13.606  66.621  1.00  0.00     0.253 OA 
HETATM   27  H   UNL     1     -10.444  13.773  68.640  1.00  0.00     0.000 HD 
HETATM   28  C   UNL     1      -6.784  15.452  68.446  1.00  0.00    -0.116 C  
HETATM   29  C   UNL     1      -9.068  16.438  68.059  1.00  0.00    -0.200 A  
HETATM   30  C   UNL     1      -9.286  17.421  69.043  1.00  0.00    -0.101 A  
HETATM   31  O   UNL     1      -6.251  16.048  69.376  1.00  0.00    -0.138 OA 
HETATM   32  O   UNL     1      -6.061  15.039  67.381  1.00  0.00    -0.331 OA 
HETATM   33  C   UNL     1     -10.052  18.558  68.766  1.00  0.00    -0.394 A  
HETATM   34  C   UNL     1     -10.598  18.722  67.500  1.00  0.00    -0.435 A  
HETATM   35  C   UNL     1     -10.346  17.797  66.495  1.00  0.00    -0.345 A  
HETATM   36  O   UNL     1     -11.396  19.784  67.198  1.00  0.00    -0.139 OA 
HETATM   37  H   UNL     1     -11.769  19.897  66.332  1.00  0.00     0.000 HD 
HETATM   38  C   UNL     1      -9.574  16.666  66.768  1.00  0.00    -0.270 A  
ENDBRANCH   5  23
TORSDOF 5
ENDMDL
MODEL      144
REMARK 921   NORMALIZED FREE ENERGY PREDICTED BY IDOCK:   -3.46 KCAL/MOL
REMARK 922        TOTAL FREE ENERGY PREDICTED BY IDOCK:   -5.82 KCAL/MOL
REMARK 923 INTER-LIGAND FREE ENERGY PREDICTED BY IDOCK:   -7.38 KCAL/MOL
REMARK 924 INTRA-LIGAND FREE ENERGY PREDICTED BY IDOCK:    1.57 KCAL/MOL
REMARK 927      BINDING AFFINITY PREDICTED BY RF-SCORE:    0.00 PKD
ROOT
HETATM    1  C   UNL     1      -9.299  15.398  69.530  1.00  0.00    -0.252 C  
HETATM    2  O   UNL     1      -7.938  15.149  69.145  1.00  0.00    -0.176 OA 
HETATM    3  C   UNL     1      -7.130  16.323  69.244  1.00  0.00    -0.222 C  
HETATM    4  C   UNL     1      -7.785  17.504  68.538  1.00  0.00    -0.272 C  
HETATM    5  C   UNL     1     -10.444  14.445  68.979  1.00  0.00    -0.222 C  
HETATM    6  C   UNL     1      -9.114  17.488  68.238  1.00  0.00    -0.274 C  
HETATM    7  N   UNL     1      -9.896  16.485  68.767  1.00  0.00    -0.243 N  
HETATM    8  C   UNL     1      -9.712  18.531  67.321  1.00  0.00    -0.300 C  
HETATM    9  O   UNL     1      -9.046  19.298  66.639  1.00  0.00    -0.309 OA 
HETATM   10  O   UNL     1     -11.057  18.614  67.311  1.00  0.00    -0.286 OA 
HETATM   11  O   UNL     1     -11.776  16.123  67.464  1.00  0.00     0.108 OA 
HETATM   12  C   UNL     1     -10.926  15.777  68.254  1.00  0.00    -0.325 C  
ENDROOT
BRANCH   4  13
HETATM   13  C   UNL     1      -6.767  18.558  68.137  1.00  0.00    -0.223 C  
BRANCH  13  14
HETATM   14  S   UNL     1      -5.585  18.042  66.861  1.00  0.00    -0.146 SA 
BRANCH  14  15
HETATM   15  C   UNL     1      -5.897  19.110  65.551  1.00  0.00    -0.186 A  
HETATM   16  N   UNL     1      -6.109  18.803  64.293  1.00  0.00    -0.338 NA 
HETATM   17  C   UNL     1      -5.785  21.288  66.848  1.00  0.00    -0.301 C  
HETATM   18  N   UNL     1      -6.260  20.001  63.636  1.00  0.00    -0.248 NA 
HETATM   19  N   UNL     1      -6.152  21.022  64.476  1.00  0.00    -0.280 NA 
HETATM   20  N   UNL     1      -5.933  20.468  65.679  1.00  0.00    -0.203 NA 
ENDBRANCH  14  15
ENDBRANCH  13  14
ENDBRANCH   4  13
BRANCH   5  21
HETATM   21  O   UNL     1     -11.385  13.960  69.974  1.00  0.00    -0.187 OA 
HETATM   22  C   UNL     1     -11.523  14.729  71.160  1.00  0.00    -0.212 C  
ENDBRANCH   5  21
BRANCH   5  23
HETATM   23  N   UNL     1      -9.930  13.399  68.035  1.00  0.00    -0.232 N  
HETATM   24  C   UNL     1      -8.302  11.756  67.194  1.00  0.00    -0.168 C  
HETATM   25  C   UNL     1      -8.734  12.751  68.263  1.00  0.00    -0.168 C  
HETATM   26  O   UNL     1      -8.069  12.920  69.286  1.00  0.00     0.406 OA 
HETATM   27  H   UNL     1     -10.476  13.162  67.207  1.00  0.00     0.000 HD 
HETATM   28  C   UNL     1      -6.801  11.506  67.150  1.00  0.00    -0.139 C  
HETATM   29  C   UNL     1      -9.081  10.444  67.257  1.00  0.00    -0.146 A  
HETATM   30  C   UNL     1      -9.260   9.687  66.083  1.00  0.00    -0.222 A  
HETATM   31  O   UNL     1      -6.235  11.121  66.132  1.00  0.00    -0.133 OA 
HETATM   32  O   UNL     1      -6.112  11.692  68.298  1.00  0.00    -0.049 OA 
HETATM   33  C   UNL     1     -10.018   8.512  66.094  1.00  0.00    -0.160 A  
HETATM   34  C   UNL     1     -10.595   8.082  67.281  1.00  0.00    -0.290 A  
HETATM   35  C   UNL     1     -10.382   8.778  68.464  1.00  0.00    -0.231 A  
HETATM   36  O   UNL     1     -11.388   6.975  67.330  1.00  0.00    -0.597 OA 
HETATM   37  H   UNL     1     -11.782   6.681  68.143  1.00  0.00     0.000 HD 
HETATM   38  C   UNL     1      -9.618   9.947  68.456  1.00  0.00    -0.159 A  
ENDBRANCH   5  23
TORSDOF 5
ENDMDL
MODEL      145
REMARK 921   NORMALIZED FREE ENERGY PREDICTED BY IDOCK:   -3.43 KCAL/MOL
REMARK 922        TOTAL FREE ENERGY PREDICTED BY IDOCK:   -5.78 KCAL/MOL
REMARK 923 INTER-LIGAND FREE ENERGY PREDICTED BY IDOCK:   -6.61 KCAL/MOL
REMARK 924 INTRA-LIGAND FREE ENERGY PREDICTED BY IDOCK:    0.83 KCAL/MOL
REMARK 927      BINDING AFFINITY PREDICTED BY RF-SCORE:    0.00 PKD
ROOT
HETATM    1  C   UNL     1     -11.679  11.643  66.514  1.00  0.00     0.050 C  
HETATM    2  O   UNL     1     -11.613  11.194  67.876  1.00  0.00    -0.470 OA 
HETATM    3  C   UNL     1     -12.409  12.000  68.746  1.00  0.00     0.300 C  
HETATM    4  C   UNL     1     -12.112  13.481  68.549  1.00  0.00    -0.303 C  
HETATM    5  C   UNL     1     -10.491  11.282  65.523  1.00  0.00    -0.265 C  
HETATM    6  C   UNL     1     -11.482  13.924  67.424  1.00  0.00    -0.348 C  
HETATM    7  N   UNL     1     -11.309  13.045  66.379  1.00  0.00    -0.304 N  
HETATM    8  C   UNL     1     -10.960  15.341  67.337  1.00  0.00    -0.321 C  
HETATM    9  O   UNL     1     -10.871  16.091  68.300  1.00  0.00    -0.290 OA 
HETATM   10  O   UNL     1     -10.619  15.775  66.109  1.00  0.00    -0.304 OA 
HETATM   11  O   UNL     1      -9.515  13.673  65.055  1.00  0.00     0.176 OA 
HETATM   12  C   UNL     1     -10.287  12.861  65.514  1.00  0.00    -0.291 C  
ENDROOT
BRANCH   4  13
HETATM   13  C   UNL     1     -12.483  14.299  69.774  1.00  0.00    -0.216 C  
BRANCH  13  14
HETATM   14  S   UNL     1     -12.582  13.363  71.325  1.00  0.00    -0.258 SA 
BRANCH  14  15
HETATM   15  C   UNL     1     -12.469  14.567  72.545  1.00  0.00    -0.253 A  
HETATM   16  N   UNL     1     -12.760  14.455  73.820  1.00  0.00    -0.341 NA 
HETATM   17  C   UNL     1     -11.621  16.460  71.083  1.00  0.00    -0.204 C  
HETATM   18  N   UNL     1     -12.548  15.699  74.363  1.00  0.00    -0.587 NA 
HETATM   19  N   UNL     1     -12.125  16.556  73.443  1.00  0.00    -0.464 NA 
HETATM   20  N   UNL     1     -12.065  15.848  72.303  1.00  0.00    -0.455 NA 
ENDBRANCH  14  15
ENDBRANCH  13  14
ENDBRANCH   4  13
BRANCH   5  21
HETATM   21  O   UNL     1     -10.893  10.748  64.233  1.00  0.00    -0.221 OA 
HETATM   22  C   UNL     1     -10.569  11.520  63.086  1.00  0.00    -0.255 C  
ENDBRANCH   5  21
BRANCH   5  23
HETATM   23  N   UNL     1      -9.376  10.537  66.194  1.00  0.00    -0.170 N  
HETATM   24  C   UNL     1      -7.076   9.690  66.422  1.00  0.00    -0.093 C  
HETATM   25  C   UNL     1      -8.098  10.536  65.673  1.00  0.00    -0.161 C  
HETATM   26  O   UNL     1      -7.776  11.210  64.694  1.00  0.00     0.429 OA 
HETATM   27  H   UNL     1      -9.565  10.020  67.052  1.00  0.00     0.000 HD 
HETATM   28  C   UNL     1      -5.900   9.239  65.567  1.00  0.00    -0.054 C  
HETATM   29  C   UNL     1      -6.601  10.344  67.718  1.00  0.00    -0.065 A  
HETATM   30  C   UNL     1      -6.162   9.534  68.783  1.00  0.00    -0.043 A  
HETATM   31  O   UNL     1      -5.249   8.235  65.835  1.00  0.00    -0.027 OA 
HETATM   32  O   UNL     1      -5.574  10.015  64.510  1.00  0.00    -0.084 OA 
HETATM   33  C   UNL     1      -5.776  10.097  70.003  1.00  0.00    -0.049 A  
HETATM   34  C   UNL     1      -5.820  11.476  70.163  1.00  0.00    -0.150 A  
HETATM   35  C   UNL     1      -6.191  12.299  69.109  1.00  0.00    -0.089 A  
HETATM   36  O   UNL     1      -5.508  12.067  71.350  1.00  0.00    -0.361 OA 
HETATM   37  H   UNL     1      -5.538  13.011  71.460  1.00  0.00     0.000 HD 
HETATM   38  C   UNL     1      -6.568  11.739  67.887  1.00  0.00    -0.068 A  
ENDBRANCH   5  23
TORSDOF 5
ENDMDL
MODEL      146
REMARK 921   NORMALIZED FREE ENERGY PREDICTED BY IDOCK:   -3.42 KCAL/MOL
REMARK 922        TOTAL FREE ENERGY PREDICTED BY IDOCK:   -5.77 KCAL/MOL
REMARK 923 INTER-LIGAND FREE ENERGY PREDICTED BY IDOCK:   -4.98 KCAL/MOL
REMARK 924 INTRA-LIGAND FREE ENERGY PREDICTED BY IDOCK:   -0.79 KCAL/MOL
REMARK 927      BINDING AFFINITY PREDICTED BY RF-SCORE:    0.00 PKD
ROOT
HETATM    1  C   UNL     1      -9.714   3.845  70.112  1.00  0.00    -0.172 C  
HETATM    2  O   UNL     1     -10.024   4.136  68.740  1.00  0.00    -0.076 OA 
HETATM    3  C   UNL     1      -9.116   3.500  67.839  1.00  0.00    -0.157 C  
HETATM    4  C   UNL     1      -7.669   3.766  68.235  1.00  0.00    -0.065 C  
HETATM    5  C   UNL     1     -10.200   4.848  71.243  1.00  0.00    -0.178 C  
HETATM    6  C   UNL     1      -7.357   4.201  69.488  1.00  0.00    -0.050 C  
HETATM    7  N   UNL     1      -8.341   4.193  70.451  1.00  0.00    -0.064 N  
HETATM    8  C   UNL     1      -5.969   4.707  69.808  1.00  0.00    -0.018 C  
HETATM    9  O   UNL     1      -5.126   4.959  68.957  1.00  0.00     0.000 OA 
HETATM   10  O   UNL     1      -5.669   4.839  71.114  1.00  0.00    -0.014 OA 
HETATM   11  O   UNL     1      -7.890   5.742  72.113  1.00  0.00    -0.101 OA 
HETATM   12  C   UNL     1      -8.635   5.055  71.450  1.00  0.00    -0.126 C  
ENDROOT
BRANCH   4  13
HETATM   13  C   UNL     1      -6.723   3.610  67.057  1.00  0.00    -0.046 C  
BRANCH  13  14
HETATM   14  S   UNL     1      -6.300   5.151  66.199  1.00  0.00    -0.040 SA 
BRANCH  14  15
HETATM   15  C   UNL     1      -7.700   6.130  66.389  1.00  0.00    -0.102 A  
HETATM   16  N   UNL     1      -8.815   6.087  65.697  1.00  0.00    -0.142 NA 
HETATM   17  C   UNL     1      -6.864   7.556  68.313  1.00  0.00    -0.063 C  
HETATM   18  N   UNL     1      -9.604   7.094  66.198  1.00  0.00    -0.026 NA 
HETATM   19  N   UNL     1      -8.991   7.737  67.183  1.00  0.00    -0.123 NA 
HETATM   20  N   UNL     1      -7.800   7.129  67.312  1.00  0.00    -0.109 NA 
ENDBRANCH  14  15
ENDBRANCH  13  14
ENDBRANCH   4  13
BRANCH   5  21
HETATM   21  O   UNL     1     -10.853   4.233  72.386  1.00  0.00    -0.073 OA 
HETATM   22  C   UNL     1     -10.334   2.989  72.833  1.00  0.00    -0.161 C  
ENDBRANCH   5  21
BRANCH   5  23
HETATM   23  N   UNL     1     -10.897   6.057  70.693  1.00  0.00    -0.280 N  
HETATM   24  C   UNL     1     -12.094   8.202  70.837  1.00  0.00    -0.158 C  
HETATM   25  C   UNL     1     -11.352   7.062  71.521  1.00  0.00    -0.258 C  
HETATM   26  O   UNL     1     -11.136   7.076  72.734  1.00  0.00    -0.269 OA 
HETATM   27  H   UNL     1     -11.038   6.138  69.687  1.00  0.00     0.000 HD 
HETATM   28  C   UNL     1     -13.053   8.953  71.750  1.00  0.00    -0.374 C  
HETATM   29  C   UNL     1     -11.160   9.162  70.103  1.00  0.00    -0.248 A  
HETATM   30  C   UNL     1     -11.636   9.875  68.986  1.00  0.00     0.097 A  
HETATM   31  O   UNL     1     -14.023   9.564  71.313  1.00  0.00    -0.240 OA 
HETATM   32  O   UNL     1     -12.772   8.953  73.072  1.00  0.00    -0.239 OA 
HETATM   33  C   UNL     1     -10.791  10.716  68.257  1.00  0.00    -0.287 A  
HETATM   34  C   UNL     1      -9.465  10.856  68.645  1.00  0.00    -0.190 A  
HETATM   35  C   UNL     1      -8.988  10.212  69.779  1.00  0.00    -0.159 A  
HETATM   36  O   UNL     1      -8.589  11.620  67.934  1.00  0.00    -0.137 OA 
HETATM   37  H   UNL     1      -7.682  11.716  68.200  1.00  0.00     0.000 HD 
HETATM   38  C   UNL     1      -9.833   9.378  70.514  1.00  0.00    -0.331 A  
ENDBRANCH   5  23
TORSDOF 5
ENDMDL
MODEL      147
REMARK 921   NORMALIZED FREE ENERGY PREDICTED BY IDOCK:   -3.40 KCAL/MOL
REMARK 922        TOTAL FREE ENERGY PREDICTED BY IDOCK:   -5.74 KCAL/MOL
REMARK 923 INTER-LIGAND FREE ENERGY PREDICTED BY IDOCK:   -6.17 KCAL/MOL
REMARK 924 INTRA-LIGAND FREE ENERGY PREDICTED BY IDOCK:    0.43 KCAL/MOL
REMARK 927      BINDING AFFINITY PREDICTED BY RF-SCORE:    0.00 PKD
ROOT
HETATM    1  C   UNL     1      -6.685   8.182  70.117  1.00  0.00    -0.036 C  
HETATM    2  O   UNL     1      -7.259   9.011  71.139  1.00  0.00    -0.099 OA 
HETATM    3  C   UNL     1      -7.322   8.342  72.400  1.00  0.00    -0.110 C  
HETATM    4  C   UNL     1      -7.962   6.966  72.262  1.00  0.00    -0.093 C  
HETATM    5  C   UNL     1      -7.026   8.485  68.595  1.00  0.00    -0.064 C  
HETATM    6  C   UNL     1      -8.061   6.361  71.044  1.00  0.00    -0.121 C  
HETATM    7  N   UNL     1      -7.388   6.914  69.978  1.00  0.00    -0.080 N  
HETATM    8  C   UNL     1      -8.914   5.126  70.862  1.00  0.00    -0.135 C  
HETATM    9  O   UNL     1      -9.714   4.725  71.697  1.00  0.00    -0.154 OA 
HETATM   10  O   UNL     1      -8.728   4.437  69.720  1.00  0.00    -0.071 OA 
HETATM   11  O   UNL     1      -8.383   6.327  67.971  1.00  0.00    -0.114 OA 
HETATM   12  C   UNL     1      -7.717   7.053  68.676  1.00  0.00    -0.120 C  
ENDROOT
BRANCH   4  13
HETATM   13  C   UNL     1      -8.546   6.480  73.577  1.00  0.00    -0.123 C  
BRANCH  13  14
HETATM   14  S   UNL     1     -10.349   6.622  73.719  1.00  0.00    -0.354 SA 
BRANCH  14  15
HETATM   15  C   UNL     1     -10.760   7.845  72.585  1.00  0.00    -0.347 A  
HETATM   16  N   UNL     1     -10.317   9.080  72.534  1.00  0.00     0.149 NA 
HETATM   17  C   UNL     1     -12.396   6.493  71.195  1.00  0.00    -0.135 C  
HETATM   18  N   UNL     1     -10.975   9.670  71.481  1.00  0.00    -0.301 NA 
HETATM   19  N   UNL     1     -11.797   8.812  70.891  1.00  0.00    -0.265 NA 
HETATM   20  N   UNL     1     -11.659   7.664  71.574  1.00  0.00    -0.266 NA 
ENDBRANCH  14  15
ENDBRANCH  13  14
ENDBRANCH   4  13
BRANCH   5  21
HETATM   21  O   UNL     1      -5.886   8.522  67.695  1.00  0.00    -0.041 OA 
HETATM   22  C   UNL     1      -6.029   7.861  66.446  1.00  0.00    -0.041 C  
ENDBRANCH   5  21
BRANCH   5  23
HETATM   23  N   UNL     1      -8.000   9.613  68.428  1.00  0.00    -0.095 N  
HETATM   24  C   UNL     1      -8.663  11.946  68.011  1.00  0.00    -0.173 C  
HETATM   25  C   UNL     1      -7.576  10.882  68.091  1.00  0.00    -0.094 C  
HETATM   26  O   UNL     1      -6.404  11.144  67.819  1.00  0.00    -0.053 OA 
HETATM   27  H   UNL     1      -8.995   9.440  68.566  1.00  0.00     0.000 HD 
HETATM   28  C   UNL     1      -8.155  13.366  68.217  1.00  0.00    -0.152 C  
HETATM   29  C   UNL     1      -9.508  11.838  66.743  1.00  0.00    -0.202 A  
HETATM   30  C   UNL     1     -10.841  12.292  66.758  1.00  0.00    -0.291 A  
HETATM   31  O   UNL     1      -8.884  14.265  68.625  1.00  0.00    -0.183 OA 
HETATM   32  O   UNL     1      -6.866  13.612  67.895  1.00  0.00    -0.117 OA 
HETATM   33  C   UNL     1     -11.659  12.153  65.632  1.00  0.00    -0.409 A  
HETATM   34  C   UNL     1     -11.147  11.566  64.483  1.00  0.00    -0.273 A  
HETATM   35  C   UNL     1      -9.818  11.166  64.425  1.00  0.00    -0.334 A  
HETATM   36  O   UNL     1     -11.921  11.358  63.381  1.00  0.00    -0.734 OA 
HETATM   37  H   UNL     1     -11.570  10.957  62.594  1.00  0.00     0.000 HD 
HETATM   38  C   UNL     1      -8.997  11.312  65.544  1.00  0.00    -0.139 A  
ENDBRANCH   5  23
TORSDOF 5
ENDMDL
MODEL      148
REMARK 921   NORMALIZED FREE ENERGY PREDICTED BY IDOCK:   -3.39 KCAL/MOL
REMARK 922        TOTAL FREE ENERGY PREDICTED BY IDOCK:   -5.73 KCAL/MOL
REMARK 923 INTER-LIGAND FREE ENERGY PREDICTED BY IDOCK:   -6.32 KCAL/MOL
REMARK 924 INTRA-LIGAND FREE ENERGY PREDICTED BY IDOCK:    0.59 KCAL/MOL
REMARK 927      BINDING AFFINITY PREDICTED BY RF-SCORE:    0.00 PKD
ROOT
HETATM    1  C   UNL     1      -9.284   6.787  67.028  1.00  0.00    -0.137 C  
HETATM    2  O   UNL     1      -9.167   7.896  67.933  1.00  0.00    -0.135 OA 
HETATM    3  C   UNL     1      -7.851   8.454  67.931  1.00  0.00    -0.107 C  
HETATM    4  C   UNL     1      -6.794   7.371  68.111  1.00  0.00    -0.063 C  
HETATM    5  C   UNL     1     -10.421   5.706  67.275  1.00  0.00    -0.258 C  
HETATM    6  C   UNL     1      -7.093   6.060  67.890  1.00  0.00    -0.074 C  
HETATM    7  N   UNL     1      -8.298   5.750  67.300  1.00  0.00    -0.105 N  
HETATM    8  C   UNL     1      -6.134   4.968  68.309  1.00  0.00    -0.030 C  
HETATM    9  O   UNL     1      -5.170   5.154  69.038  1.00  0.00     0.000 OA 
HETATM   10  O   UNL     1      -6.369   3.743  67.800  1.00  0.00    -0.035 OA 
HETATM   11  O   UNL     1      -8.962   3.600  67.847  1.00  0.00    -0.108 OA 
HETATM   12  C   UNL     1      -9.174   4.744  67.511  1.00  0.00    -0.127 C  
ENDROOT
BRANCH   4  13
HETATM   13  C   UNL     1      -5.497   7.936  68.663  1.00  0.00    -0.027 C  
BRANCH  13  14
HETATM   14  S   UNL     1      -5.510   8.302  70.440  1.00  0.00    -0.021 SA 
BRANCH  14  15
HETATM   15  C   UNL     1      -5.671  10.011  70.510  1.00  0.00    -0.070 A  
HETATM   16  N   UNL     1      -5.959  10.836  69.531  1.00  0.00    -0.046 NA 
HETATM   17  C   UNL     1      -5.171  10.303  72.980  1.00  0.00     0.221 C  
HETATM   18  N   UNL     1      -5.925  12.095  70.080  1.00  0.00    -0.149 NA 
HETATM   19  N   UNL     1      -5.631  12.045  71.372  1.00  0.00    -0.378 NA 
HETATM   20  N   UNL     1      -5.480  10.739  71.648  1.00  0.00    -0.315 NA 
ENDBRANCH  14  15
ENDBRANCH  13  14
ENDBRANCH   4  13
BRANCH   5  21
HETATM   21  O   UNL     1     -11.208   5.349  66.107  1.00  0.00    -0.019 OA 
HETATM   22  C   UNL     1     -10.626   4.432  65.193  1.00  0.00    -0.137 C  
ENDBRANCH   5  21
BRANCH   5  23
HETATM   23  N   UNL     1     -11.219   5.969  68.517  1.00  0.00    -0.253 N  
HETATM   24  C   UNL     1     -11.600   6.068  70.946  1.00  0.00    -0.147 C  
HETATM   25  C   UNL     1     -10.662   5.826  69.772  1.00  0.00    -0.348 C  
HETATM   26  O   UNL     1      -9.470   5.568  69.947  1.00  0.00    -0.147 OA 
HETATM   27  H   UNL     1     -12.192   6.260  68.434  1.00  0.00     0.000 HD 
HETATM   28  C   UNL     1     -11.175   5.371  72.232  1.00  0.00    -0.171 C  
HETATM   29  C   UNL     1     -11.881   7.550  71.186  1.00  0.00    -0.324 A  
HETATM   30  C   UNL     1     -13.099   7.938  71.777  1.00  0.00    -0.352 A  
HETATM   31  O   UNL     1     -11.981   5.077  73.109  1.00  0.00    -0.222 OA 
HETATM   32  O   UNL     1      -9.857   5.118  72.388  1.00  0.00    -0.160 OA 
HETATM   33  C   UNL     1     -13.413   9.289  71.956  1.00  0.00    -0.519 A  
HETATM   34  C   UNL     1     -12.506  10.260  71.552  1.00  0.00    -0.422 A  
HETATM   35  C   UNL     1     -11.273   9.901  71.023  1.00  0.00    -0.435 A  
HETATM   36  O   UNL     1     -12.790  11.589  71.655  1.00  0.00    -0.408 OA 
HETATM   37  H   UNL     1     -12.170  12.253  71.378  1.00  0.00     0.000 HD 
HETATM   38  C   UNL     1     -10.955   8.553  70.852  1.00  0.00    -0.292 A  
ENDBRANCH   5  23
TORSDOF 5
ENDMDL
MODEL      149
REMARK 921   NORMALIZED FREE ENERGY PREDICTED BY IDOCK:   -3.32 KCAL/MOL
REMARK 922        TOTAL FREE ENERGY PREDICTED BY IDOCK:   -5.64 KCAL/MOL
REMARK 923 INTER-LIGAND FREE ENERGY PREDICTED BY IDOCK:   -5.63 KCAL/MOL
REMARK 924 INTRA-LIGAND FREE ENERGY PREDICTED BY IDOCK:   -0.01 KCAL/MOL
REMARK 927      BINDING AFFINITY PREDICTED BY RF-SCORE:    0.00 PKD
ROOT
HETATM    1  C   UNL     1      -9.797   9.800  70.556  1.00  0.00    -0.163 C  
HETATM    2  O   UNL     1      -8.597   9.015  70.484  1.00  0.00    -0.160 OA 
HETATM    3  C   UNL     1      -7.434   9.828  70.316  1.00  0.00    -0.164 C  
HETATM    4  C   UNL     1      -7.615  10.820  69.174  1.00  0.00    -0.133 C  
HETATM    5  C   UNL     1     -11.185   9.125  70.178  1.00  0.00    -0.187 C  
HETATM    6  C   UNL     1      -8.857  11.117  68.697  1.00  0.00    -0.155 C  
HETATM    7  N   UNL     1      -9.954  10.671  69.399  1.00  0.00    -0.197 N  
HETATM    8  C   UNL     1      -9.025  11.894  67.411  1.00  0.00    -0.173 C  
HETATM    9  O   UNL     1      -8.113  12.114  66.626  1.00  0.00    -0.108 OA 
HETATM   10  O   UNL     1     -10.256  12.386  67.170  1.00  0.00    -0.215 OA 
HETATM   11  O   UNL     1     -11.802  10.478  68.015  1.00  0.00    -0.425 OA 
HETATM   12  C   UNL     1     -11.150  10.189  68.994  1.00  0.00    -0.205 C  
ENDROOT
BRANCH   4  13
HETATM   13  C   UNL     1      -6.282  11.283  68.611  1.00  0.00    -0.044 C  
BRANCH  13  14
HETATM   14  S   UNL     1      -5.135   9.953  68.154  1.00  0.00    -0.035 SA 
BRANCH  14  15
HETATM   15  C   UNL     1      -5.953   9.115  66.896  1.00  0.00    -0.053 A  
HETATM   16  N   UNL     1      -6.633   7.995  66.982  1.00  0.00    -0.056 NA 
HETATM   17  C   UNL     1      -5.387  10.701  64.999  1.00  0.00    -0.148 C  
HETATM   18  N   UNL     1      -7.051   7.713  65.703  1.00  0.00    -0.060 NA 
HETATM   19  N   UNL     1      -6.644   8.645  64.851  1.00  0.00    -0.068 NA 
HETATM   20  N   UNL     1      -5.963   9.531  65.597  1.00  0.00    -0.058 NA 
ENDBRANCH  14  15
ENDBRANCH  13  14
ENDBRANCH   4  13
BRANCH   5  21
HETATM   21  O   UNL     1     -12.266   9.352  71.122  1.00  0.00    -0.306 OA 
HETATM   22  C   UNL     1     -12.563   8.299  72.027  1.00  0.00    -0.349 C  
ENDBRANCH   5  21
BRANCH   5  23
HETATM   23  N   UNL     1     -11.038   7.706  69.715  1.00  0.00    -0.421 N  
HETATM   24  C   UNL     1     -10.442   5.929  68.122  1.00  0.00    -0.291 C  
HETATM   25  C   UNL     1     -10.474   7.405  68.493  1.00  0.00    -0.186 C  
HETATM   26  O   UNL     1      -9.980   8.261  67.758  1.00  0.00    -0.166 OA 
HETATM   27  H   UNL     1     -11.361   6.949  70.316  1.00  0.00     0.000 HD 
HETATM   28  C   UNL     1     -10.375   5.667  66.624  1.00  0.00    -0.256 C  
HETATM   29  C   UNL     1      -9.356   5.154  68.868  1.00  0.00    -0.168 A  
HETATM   30  C   UNL     1      -9.534   3.780  69.119  1.00  0.00    -0.242 A  
HETATM   31  O   UNL     1     -10.780   4.621  66.128  1.00  0.00    -0.269 OA 
HETATM   32  O   UNL     1      -9.814   6.628  65.855  1.00  0.00     0.164 OA 
HETATM   33  C   UNL     1      -8.589   3.055  69.850  1.00  0.00    -0.110 A  
HETATM   34  C   UNL     1      -7.455   3.698  70.330  1.00  0.00    -0.041 A  
HETATM   35  C   UNL     1      -7.228   5.038  70.043  1.00  0.00    -0.058 A  
HETATM   36  O   UNL     1      -6.534   3.048  71.094  1.00  0.00    -0.018 OA 
HETATM   37  H   UNL     1      -5.758   3.489  71.422  1.00  0.00     0.000 HD 
HETATM   38  C   UNL     1      -8.167   5.761  69.305  1.00  0.00    -0.105 A  
ENDBRANCH   5  23
TORSDOF 5
ENDMDL
MODEL      150
REMARK 921   NORMALIZED FREE ENERGY PREDICTED BY IDOCK:   -3.32 KCAL/MOL
REMARK 922        TOTAL FREE ENERGY PREDICTED BY IDOCK:   -5.63 KCAL/MOL
REMARK 923 INTER-LIGAND FREE ENERGY PREDICTED BY IDOCK:   -5.05 KCAL/MOL
REMARK 924 INTRA-LIGAND FREE ENERGY PREDICTED BY IDOCK:   -0.58 KCAL/MOL
REMARK 927      BINDING AFFINITY PREDICTED BY RF-SCORE:    0.00 PKD
ROOT
HETATM    1  C   UNL     1     -10.106   8.616  69.546  1.00  0.00    -0.203 C  
HETATM    2  O   UNL     1      -8.894   9.059  70.176  1.00  0.00    -0.152 OA 
HETATM    3  C   UNL     1      -8.563  10.401  69.817  1.00  0.00     0.042 C  
HETATM    4  C   UNL     1      -8.602  10.593  68.306  1.00  0.00    -0.128 C  
HETATM    5  C   UNL     1     -10.349   7.059  69.346  1.00  0.00    -0.207 C  
HETATM    6  C   UNL     1      -9.255   9.704  67.506  1.00  0.00    -0.133 C  
HETATM    7  N   UNL     1     -10.053   8.751  68.097  1.00  0.00    -0.182 N  
HETATM    8  C   UNL     1      -9.083   9.745  66.004  1.00  0.00    -0.162 C  
HETATM    9  O   UNL     1      -8.221  10.402  65.437  1.00  0.00    -0.152 OA 
HETATM   10  O   UNL     1      -9.973   9.034  65.284  1.00  0.00     0.124 OA 
HETATM   11  O   UNL     1     -10.288   6.898  66.727  1.00  0.00    -0.237 OA 
HETATM   12  C   UNL     1     -10.275   7.450  67.805  1.00  0.00    -0.196 C  
ENDROOT
BRANCH   4  13
HETATM   13  C   UNL     1      -7.748  11.769  67.864  1.00  0.00    -0.125 C  
BRANCH  13  14
HETATM   14  S   UNL     1      -8.488  13.403  68.133  1.00  0.00    -0.175 SA 
BRANCH  14  15
HETATM   15  C   UNL     1     -10.157  13.163  67.800  1.00  0.00    -0.226 A  
HETATM   16  N   UNL     1     -11.133  12.983  68.658  1.00  0.00    -0.257 NA 
HETATM   17  C   UNL     1     -10.021  13.263  65.268  1.00  0.00    -0.173 C  
HETATM   18  N   UNL     1     -12.265  12.791  67.902  1.00  0.00    -0.217 NA 
HETATM   19  N   UNL     1     -11.991  12.862  66.606  1.00  0.00    -0.420 NA 
HETATM   20  N   UNL     1     -10.671  13.104  66.537  1.00  0.00    -0.278 NA 
ENDBRANCH  14  15
ENDBRANCH  13  14
ENDBRANCH   4  13
BRANCH   5  21
HETATM   21  O   UNL     1     -11.656   6.573  69.753  1.00  0.00    -0.394 OA 
HETATM   22  C   UNL     1     -12.239   7.173  70.900  1.00  0.00    -0.312 C  
ENDBRANCH   5  21
BRANCH   5  23
HETATM   23  N   UNL     1      -9.193   6.223  69.809  1.00  0.00    -0.145 N  
HETATM   24  C   UNL     1      -8.132   4.295  70.910  1.00  0.00    -0.071 C  
HETATM   25  C   UNL     1      -9.390   5.012  70.439  1.00  0.00    -0.158 C  
HETATM   26  O   UNL     1     -10.504   4.505  70.575  1.00  0.00    -0.065 OA 
HETATM   27  H   UNL     1      -8.242   6.556  69.656  1.00  0.00     0.000 HD 
HETATM   28  C   UNL     1      -8.366   3.321  72.057  1.00  0.00    -0.070 C  
HETATM   29  C   UNL     1      -7.364   3.632  69.768  1.00  0.00    -0.045 A  
HETATM   30  C   UNL     1      -5.971   3.457  69.880  1.00  0.00    -0.023 A  
HETATM   31  O   UNL     1      -7.474   3.009  72.838  1.00  0.00    -0.047 OA 
HETATM   32  O   UNL     1      -9.600   2.779  72.162  1.00  0.00    -0.113 OA 
HETATM   33  C   UNL     1      -5.230   2.908  68.829  1.00  0.00    -0.012 A  
HETATM   34  C   UNL     1      -5.879   2.523  67.662  1.00  0.00    -0.019 A  
HETATM   35  C   UNL     1      -7.259   2.630  67.553  1.00  0.00    -0.053 A  
HETATM   36  O   UNL     1      -5.193   2.036  66.591  1.00  0.00    -0.004 OA 
HETATM   37  H   UNL     1      -5.637   1.773  65.793  1.00  0.00     0.000 HD 
HETATM   38  C   UNL     1      -8.002   3.170  68.605  1.00  0.00    -0.064 A  
ENDBRANCH   5  23
TORSDOF 5
ENDMDL
MODEL      151
REMARK 921   NORMALIZED FREE ENERGY PREDICTED BY IDOCK:   -3.26 KCAL/MOL
REMARK 922        TOTAL FREE ENERGY PREDICTED BY IDOCK:   -5.56 KCAL/MOL
REMARK 923 INTER-LIGAND FREE ENERGY PREDICTED BY IDOCK:   -5.08 KCAL/MOL
REMARK 924 INTRA-LIGAND FREE ENERGY PREDICTED BY IDOCK:   -0.49 KCAL/MOL
REMARK 927      BINDING AFFINITY PREDICTED BY RF-SCORE:    0.00 PKD
ROOT
HETATM    1  C   UNL     1      -7.417   8.951  71.166  1.00  0.00    -0.106 C  
HETATM    2  O   UNL     1      -6.713   8.403  70.041  1.00  0.00    -0.041 OA 
HETATM    3  C   UNL     1      -6.885   9.195  68.864  1.00  0.00    -0.056 C  
HETATM    4  C   UNL     1      -8.358   9.493  68.611  1.00  0.00    -0.117 C  
HETATM    5  C   UNL     1      -7.826   7.990  72.364  1.00  0.00    -0.124 C  
HETATM    6  C   UNL     1      -9.280   9.351  69.604  1.00  0.00    -0.185 C  
HETATM    7  N   UNL     1      -8.834   9.140  70.890  1.00  0.00    -0.233 N  
HETATM    8  C   UNL     1     -10.760   9.395  69.298  1.00  0.00    -0.211 C  
HETATM    9  O   UNL     1     -11.220   9.344  68.165  1.00  0.00    -0.027 OA 
HETATM   10  O   UNL     1     -11.583   9.537  70.355  1.00  0.00    -0.258 OA 
HETATM   11  O   UNL     1     -10.442   8.058  72.159  1.00  0.00    -0.227 OA 
HETATM   12  C   UNL     1      -9.300   8.361  71.891  1.00  0.00    -0.244 C  
ENDROOT
BRANCH   4  13
HETATM   13  C   UNL     1      -8.626   9.817  67.151  1.00  0.00    -0.128 C  
BRANCH  13  14
HETATM   14  S   UNL     1      -7.938  11.393  66.573  1.00  0.00    -0.084 SA 
BRANCH  14  15
HETATM   15  C   UNL     1      -9.318  12.393  66.354  1.00  0.00    -0.219 A  
HETATM   16  N   UNL     1      -9.777  12.901  65.235  1.00  0.00    -0.068 NA 
HETATM   17  C   UNL     1     -10.047  12.511  68.782  1.00  0.00    -0.048 C  
HETATM   18  N   UNL     1     -10.867  13.661  65.588  1.00  0.00    -0.275 NA 
HETATM   19  N   UNL     1     -11.079  13.612  66.897  1.00  0.00    -0.299 NA 
HETATM   20  N   UNL     1     -10.115  12.810  67.380  1.00  0.00    -0.217 NA 
ENDBRANCH  14  15
ENDBRANCH  13  14
ENDBRANCH   4  13
BRANCH   5  21
HETATM   21  O   UNL     1      -7.509   8.481  73.694  1.00  0.00    -0.316 OA 
HETATM   22  C   UNL     1      -6.185   8.271  74.161  1.00  0.00    -0.117 C  
ENDBRANCH   5  21
BRANCH   5  23
HETATM   23  N   UNL     1      -7.458   6.558  72.116  1.00  0.00    -0.091 N  
HETATM   24  C   UNL     1      -7.524   4.133  72.527  1.00  0.00    -0.073 C  
HETATM   25  C   UNL     1      -8.032   5.534  72.840  1.00  0.00    -0.101 C  
HETATM   26  O   UNL     1      -8.935   5.720  73.657  1.00  0.00    -0.128 OA 
HETATM   27  H   UNL     1      -6.770   6.336  71.397  1.00  0.00     0.000 HD 
HETATM   28  C   UNL     1      -7.707   3.139  73.665  1.00  0.00    -0.064 C  
HETATM   29  C   UNL     1      -8.078   3.581  71.214  1.00  0.00    -0.062 A  
HETATM   30  C   UNL     1      -7.326   2.638  70.488  1.00  0.00    -0.033 A  
HETATM   31  O   UNL     1      -6.997   2.146  73.782  1.00  0.00    -0.022 OA 
HETATM   32  O   UNL     1      -8.718   3.374  74.532  1.00  0.00    -0.085 OA 
HETATM   33  C   UNL     1      -7.777   2.157  69.254  1.00  0.00    -0.045 A  
HETATM   34  C   UNL     1      -8.986   2.612  68.743  1.00  0.00    -0.123 A  
HETATM   35  C   UNL     1      -9.773   3.494  69.470  1.00  0.00    -0.073 A  
HETATM   36  O   UNL     1      -9.439   2.215  67.521  1.00  0.00    -0.358 OA 
HETATM   37  H   UNL     1     -10.267   2.526  67.172  1.00  0.00     0.000 HD 
HETATM   38  C   UNL     1      -9.329   3.968  70.706  1.00  0.00    -0.217 A  
ENDBRANCH   5  23
TORSDOF 5
ENDMDL
MODEL      152
REMARK 921   NORMALIZED FREE ENERGY PREDICTED BY IDOCK:   -3.23 KCAL/MOL
REMARK 922        TOTAL FREE ENERGY PREDICTED BY IDOCK:   -5.52 KCAL/MOL
REMARK 923 INTER-LIGAND FREE ENERGY PREDICTED BY IDOCK:   -5.51 KCAL/MOL
REMARK 924 INTRA-LIGAND FREE ENERGY PREDICTED BY IDOCK:   -0.00 KCAL/MOL
REMARK 927      BINDING AFFINITY PREDICTED BY RF-SCORE:    0.00 PKD
ROOT
HETATM    1  C   UNL     1     -10.509   9.482  66.658  1.00  0.00    -0.171 C  
HETATM    2  O   UNL     1     -10.610   8.086  66.977  1.00  0.00    -0.335 OA 
HETATM    3  C   UNL     1     -10.807   7.868  68.375  1.00  0.00     0.082 C  
HETATM    4  C   UNL     1      -9.785   8.638  69.202  1.00  0.00    -0.173 C  
HETATM    5  C   UNL     1      -9.751   9.918  65.331  1.00  0.00    -0.306 C  
HETATM    6  C   UNL     1      -9.084   9.673  68.659  1.00  0.00    -0.132 C  
HETATM    7  N   UNL     1      -9.463  10.147  67.423  1.00  0.00    -0.151 N  
HETATM    8  C   UNL     1      -7.899  10.269  69.385  1.00  0.00    -0.157 C  
HETATM    9  O   UNL     1      -7.370   9.753  70.360  1.00  0.00    -0.134 OA 
HETATM   10  O   UNL     1      -7.453  11.454  68.924  1.00  0.00    -0.111 OA 
HETATM   11  O   UNL     1      -7.690  11.182  66.352  1.00  0.00    -0.152 OA 
HETATM   12  C   UNL     1      -8.746  10.589  66.367  1.00  0.00    -0.145 C  
ENDROOT
BRANCH   4  13
HETATM   13  C   UNL     1      -9.595   8.025  70.579  1.00  0.00    -0.170 C  
BRANCH  13  14
HETATM   14  S   UNL     1      -9.643   6.212  70.628  1.00  0.00    -0.174 SA 
BRANCH  14  15
HETATM   15  C   UNL     1      -8.231   5.736  69.773  1.00  0.00    -0.108 A  
HETATM   16  N   UNL     1      -7.060   6.328  69.755  1.00  0.00    -0.070 NA 
HETATM   17  C   UNL     1      -9.185   3.666  68.657  1.00  0.00    -0.160 C  
HETATM   18  N   UNL     1      -6.282   5.593  68.893  1.00  0.00    -0.028 NA 
HETATM   19  N   UNL     1      -6.959   4.565  68.398  1.00  0.00    -0.051 NA 
HETATM   20  N   UNL     1      -8.179   4.645  68.954  1.00  0.00    -0.081 NA 
ENDBRANCH  14  15
ENDBRANCH  13  14
ENDBRANCH   4  13
BRANCH   5  21
HETATM   21  O   UNL     1     -10.451  10.885  64.502  1.00  0.00    -0.346 OA 
HETATM   22  C   UNL     1      -9.775  11.347  63.342  1.00  0.00    -0.365 C  
ENDBRANCH   5  21
BRANCH   5  23
HETATM   23  N   UNL     1      -9.161   8.758  64.587  1.00  0.00    -0.410 N  
HETATM   24  C   UNL     1      -7.580   6.906  64.230  1.00  0.00    -0.108 C  
HETATM   25  C   UNL     1      -8.124   8.018  65.117  1.00  0.00    -0.143 C  
HETATM   26  O   UNL     1      -7.687   8.201  66.254  1.00  0.00    -0.090 OA 
HETATM   27  H   UNL     1      -9.533   8.510  63.671  1.00  0.00     0.000 HD 
HETATM   28  C   UNL     1      -6.144   6.510  64.544  1.00  0.00    -0.034 C  
HETATM   29  C   UNL     1      -8.495   5.683  64.185  1.00  0.00    -0.017 A  
HETATM   30  C   UNL     1      -8.492   4.858  63.044  1.00  0.00    -0.119 A  
HETATM   31  O   UNL     1      -5.413   5.995  63.704  1.00  0.00    -0.017 OA 
HETATM   32  O   UNL     1      -5.710   6.718  65.807  1.00  0.00    -0.028 OA 
HETATM   33  C   UNL     1      -9.359   3.766  62.945  1.00  0.00    -0.109 A  
HETATM   34  C   UNL     1     -10.229   3.487  63.991  1.00  0.00    -0.223 A  
HETATM   35  C   UNL     1     -10.207   4.249  65.152  1.00  0.00    -0.228 A  
HETATM   36  O   UNL     1     -11.131   2.468  63.919  1.00  0.00    -0.543 OA 
HETATM   37  H   UNL     1     -11.726   2.277  64.635  1.00  0.00     0.000 HD 
HETATM   38  C   UNL     1      -9.335   5.335  65.255  1.00  0.00    -0.004 A  
ENDBRANCH   5  23
TORSDOF 5
ENDMDL
MODEL      153
REMARK 921   NORMALIZED FREE ENERGY PREDICTED BY IDOCK:   -3.14 KCAL/MOL
REMARK 922        TOTAL FREE ENERGY PREDICTED BY IDOCK:   -5.40 KCAL/MOL
REMARK 923 INTER-LIGAND FREE ENERGY PREDICTED BY IDOCK:   -4.39 KCAL/MOL
REMARK 924 INTRA-LIGAND FREE ENERGY PREDICTED BY IDOCK:   -1.01 KCAL/MOL
REMARK 927      BINDING AFFINITY PREDICTED BY RF-SCORE:    0.00 PKD
ROOT
HETATM    1  C   UNL     1     -11.102   8.795  68.333  1.00  0.00     0.307 C  
HETATM    2  O   UNL     1     -10.689   8.991  66.972  1.00  0.00    -0.242 OA 
HETATM    3  C   UNL     1      -9.973   7.864  66.462  1.00  0.00    -0.197 C  
HETATM    4  C   UNL     1      -8.858   7.444  67.412  1.00  0.00    -0.123 C  
HETATM    5  C   UNL     1     -11.387  10.065  69.244  1.00  0.00    -0.117 C  
HETATM    6  C   UNL     1      -8.857   7.853  68.712  1.00  0.00    -0.138 C  
HETATM    7  N   UNL     1      -9.982   8.474  69.207  1.00  0.00    -0.190 N  
HETATM    8  C   UNL     1      -7.637   7.656  69.583  1.00  0.00    -0.093 C  
HETATM    9  O   UNL     1      -6.539   7.332  69.150  1.00  0.00    -0.039 OA 
HETATM   10  O   UNL     1      -7.818   7.820  70.908  1.00  0.00    -0.086 OA 
HETATM   11  O   UNL     1      -9.457   9.833  71.007  1.00  0.00    -0.088 OA 
HETATM   12  C   UNL     1     -10.141   9.507  70.062  1.00  0.00    -0.242 C  
ENDROOT
BRANCH   4  13
HETATM   13  C   UNL     1      -7.766   6.669  66.694  1.00  0.00    -0.102 C  
BRANCH  13  14
HETATM   14  S   UNL     1      -6.607   7.682  65.734  1.00  0.00    -0.046 SA 
BRANCH  14  15
HETATM   15  C   UNL     1      -7.257   9.269  65.839  1.00  0.00    -0.091 A  
HETATM   16  N   UNL     1      -7.193  10.102  66.851  1.00  0.00    -0.090 NA 
HETATM   17  C   UNL     1      -8.296   9.370  63.527  1.00  0.00    -0.184 C  
HETATM   18  N   UNL     1      -7.899  11.216  66.464  1.00  0.00    -0.154 NA 
HETATM   19  N   UNL     1      -8.379  11.074  65.235  1.00  0.00    -0.022 NA 
HETATM   20  N   UNL     1      -7.971   9.858  64.836  1.00  0.00    -0.132 NA 
ENDBRANCH  14  15
ENDBRANCH  13  14
ENDBRANCH   4  13
BRANCH   5  21
HETATM   21  O   UNL     1     -12.630  10.028  69.995  1.00  0.00    -0.009 OA 
HETATM   22  C   UNL     1     -12.614   9.335  71.235  1.00  0.00    -0.306 C  
ENDBRANCH   5  21
BRANCH   5  23
HETATM   23  N   UNL     1     -11.113  11.362  68.542  1.00  0.00    -0.214 N  
HETATM   24  C   UNL     1     -11.045  13.812  68.324  1.00  0.00    -0.279 C  
HETATM   25  C   UNL     1     -11.305  12.574  69.172  1.00  0.00    -0.274 C  
HETATM   26  O   UNL     1     -11.619  12.666  70.359  1.00  0.00    -0.120 OA 
HETATM   27  H   UNL     1     -10.777  11.348  67.579  1.00  0.00     0.000 HD 
HETATM   28  C   UNL     1     -11.785  15.054  68.800  1.00  0.00    -0.334 C  
HETATM   29  C   UNL     1      -9.556  14.094  68.128  1.00  0.00    -0.218 A  
HETATM   30  C   UNL     1      -9.126  14.771  66.971  1.00  0.00    -0.257 A  
HETATM   31  O   UNL     1     -12.060  15.978  68.040  1.00  0.00     0.130 OA 
HETATM   32  O   UNL     1     -12.100  15.119  70.112  1.00  0.00    -0.301 OA 
HETATM   33  C   UNL     1      -7.766  14.993  66.732  1.00  0.00     0.174 A  
HETATM   34  C   UNL     1      -6.829  14.546  67.654  1.00  0.00    -0.182 A  
HETATM   35  C   UNL     1      -7.232  13.931  68.832  1.00  0.00    -0.103 A  
HETATM   36  O   UNL     1      -5.491  14.689  67.439  1.00  0.00    -0.338 OA 
HETATM   37  H   UNL     1      -4.849  14.384  68.070  1.00  0.00     0.000 HD 
HETATM   38  C   UNL     1      -8.590  13.717  69.076  1.00  0.00     0.310 A  
ENDBRANCH   5  23
TORSDOF 5
ENDMDL
MODEL      154
REMARK 921   NORMALIZED FREE ENERGY PREDICTED BY IDOCK:   -3.13 KCAL/MOL
REMARK 922        TOTAL FREE ENERGY PREDICTED BY IDOCK:   -5.39 KCAL/MOL
REMARK 923 INTER-LIGAND FREE ENERGY PREDICTED BY IDOCK:   -5.39 KCAL/MOL
REMARK 924 INTRA-LIGAND FREE ENERGY PREDICTED BY IDOCK:    0.01 KCAL/MOL
REMARK 927      BINDING AFFINITY PREDICTED BY RF-SCORE:    0.00 PKD
ROOT
HETATM    1  C   UNL     1     -10.645   8.636  67.697  1.00  0.00    -0.203 C  
HETATM    2  O   UNL     1     -10.821   7.211  67.692  1.00  0.00    -0.237 OA 
HETATM    3  C   UNL     1     -11.116   6.702  68.994  1.00  0.00    -0.257 C  
HETATM    4  C   UNL     1     -10.120   7.216  70.025  1.00  0.00    -0.194 C  
HETATM    5  C   UNL     1      -9.788   9.312  66.543  1.00  0.00    -0.263 C  
HETATM    6  C   UNL     1      -9.345   8.307  69.764  1.00  0.00    -0.158 C  
HETATM    7  N   UNL     1      -9.625   9.060  68.646  1.00  0.00    -0.151 N  
HETATM    8  C   UNL     1      -8.186   8.665  70.667  1.00  0.00    -0.137 C  
HETATM    9  O   UNL     1      -7.742   7.920  71.530  1.00  0.00    -0.078 OA 
HETATM   10  O   UNL     1      -7.665   9.897  70.505  1.00  0.00    -0.254 OA 
HETATM   11  O   UNL     1      -7.747  10.211  67.928  1.00  0.00    -0.089 OA 
HETATM   12  C   UNL     1      -8.825   9.685  67.755  1.00  0.00    -0.125 C  
ENDROOT
BRANCH   4  13
HETATM   13  C   UNL     1     -10.042   6.306  71.239  1.00  0.00    -0.189 C  
BRANCH  13  14
HETATM   14  S   UNL     1      -9.848   4.541  70.867  1.00  0.00    -0.188 SA 
BRANCH  14  15
HETATM   15  C   UNL     1      -8.233   4.413  70.293  1.00  0.00    -0.066 A  
HETATM   16  N   UNL     1      -7.826   4.266  69.054  1.00  0.00    -0.061 NA 
HETATM   17  C   UNL     1      -7.057   4.584  72.535  1.00  0.00    -0.074 C  
HETATM   18  N   UNL     1      -6.457   4.168  69.120  1.00  0.00    -0.035 NA 
HETATM   19  N   UNL     1      -6.031   4.262  70.373  1.00  0.00    -0.017 NA 
HETATM   20  N   UNL     1      -7.141   4.425  71.111  1.00  0.00    -0.036 NA 
ENDBRANCH  14  15
ENDBRANCH  13  14
ENDBRANCH   4  13
BRANCH   5  21
HETATM   21  O   UNL     1     -10.394  10.473  65.914  1.00  0.00    -0.249 OA 
HETATM   22  C   UNL     1      -9.724  11.018  64.786  1.00  0.00    -0.262 C  
ENDBRANCH   5  21
BRANCH   5  23
HETATM   23  N   UNL     1      -9.197   8.314  65.592  1.00  0.00    -0.405 N  
HETATM   24  C   UNL     1      -7.659   6.518  64.912  1.00  0.00    -0.097 C  
HETATM   25  C   UNL     1      -8.211   7.437  65.994  1.00  0.00    -0.130 C  
HETATM   26  O   UNL     1      -7.826   7.355  67.161  1.00  0.00    -0.112 OA 
HETATM   27  H   UNL     1      -9.531   8.283  64.629  1.00  0.00     0.000 HD 
HETATM   28  C   UNL     1      -6.252   6.007  65.193  1.00  0.00    -0.037 C  
HETATM   29  C   UNL     1      -8.607   5.371  64.567  1.00  0.00    -0.077 A  
HETATM   30  C   UNL     1      -8.573   4.810  63.276  1.00  0.00    -0.127 A  
HETATM   31  O   UNL     1      -5.498   5.653  64.293  1.00  0.00    -0.013 OA 
HETATM   32  O   UNL     1      -5.875   5.922  66.488  1.00  0.00    -0.016 OA 
HETATM   33  C   UNL     1      -9.468   3.800  62.909  1.00  0.00    -0.111 A  
HETATM   34  C   UNL     1     -10.397   3.340  63.833  1.00  0.00    -0.215 A  
HETATM   35  C   UNL     1     -10.408   3.835  65.131  1.00  0.00     0.008 A  
HETATM   36  O   UNL     1     -11.324   2.397  63.506  1.00  0.00    -0.566 OA 
HETATM   37  H   UNL     1     -11.959   2.082  64.139  1.00  0.00     0.000 HD 
HETATM   38  C   UNL     1      -9.510   4.837  65.501  1.00  0.00    -0.170 A  
ENDBRANCH   5  23
TORSDOF 5
ENDMDL
MODEL      155
REMARK 921   NORMALIZED FREE ENERGY PREDICTED BY IDOCK:   -3.07 KCAL/MOL
REMARK 922        TOTAL FREE ENERGY PREDICTED BY IDOCK:   -5.31 KCAL/MOL
REMARK 923 INTER-LIGAND FREE ENERGY PREDICTED BY IDOCK:   -5.06 KCAL/MOL
REMARK 924 INTRA-LIGAND FREE ENERGY PREDICTED BY IDOCK:   -0.25 KCAL/MOL
REMARK 927      BINDING AFFINITY PREDICTED BY RF-SCORE:    0.00 PKD
ROOT
HETATM    1  C   UNL     1      -6.984   7.359  66.416  1.00  0.00    -0.069 C  
HETATM    2  O   UNL     1      -7.666   6.753  67.525  1.00  0.00    -0.106 OA 
HETATM    3  C   UNL     1      -7.537   5.330  67.521  1.00  0.00    -0.088 C  
HETATM    4  C   UNL     1      -7.894   4.749  66.159  1.00  0.00    -0.099 C  
HETATM    5  C   UNL     1      -7.446   8.794  65.915  1.00  0.00    -0.089 C  
HETATM    6  C   UNL     1      -7.924   5.538  65.048  1.00  0.00    -0.113 C  
HETATM    7  N   UNL     1      -7.424   6.818  65.138  1.00  0.00    -0.082 N  
HETATM    8  C   UNL     1      -8.520   5.031  63.754  1.00  0.00    -0.128 C  
HETATM    9  O   UNL     1      -9.185   4.007  63.669  1.00  0.00    -0.128 OA 
HETATM   10  O   UNL     1      -8.250   5.754  62.650  1.00  0.00    -0.102 OA 
HETATM   11  O   UNL     1      -8.370   8.194  63.533  1.00  0.00    -0.104 OA 
HETATM   12  C   UNL     1      -7.832   7.987  64.598  1.00  0.00    -0.140 C  
ENDROOT
BRANCH   4  13
HETATM   13  C   UNL     1      -8.310   3.291  66.258  1.00  0.00    -0.100 C  
BRANCH  13  14
HETATM   14  S   UNL     1      -7.259   2.261  67.319  1.00  0.00    -0.056 SA 
BRANCH  14  15
HETATM   15  C   UNL     1      -8.202   2.027  68.736  1.00  0.00    -0.055 A  
HETATM   16  N   UNL     1      -9.466   1.681  68.816  1.00  0.00    -0.162 NA 
HETATM   17  C   UNL     1      -6.404   2.568  70.442  1.00  0.00    -0.024 C  
HETATM   18  N   UNL     1      -9.767   1.672  70.157  1.00  0.00    -0.008 NA 
HETATM   19  N   UNL     1      -8.707   1.996  70.886  1.00  0.00    -0.052 NA 
HETATM   20  N   UNL     1      -7.722   2.211  70.000  1.00  0.00    -0.043 NA 
ENDBRANCH  14  15
ENDBRANCH  13  14
ENDBRANCH   4  13
BRANCH   5  21
HETATM   21  O   UNL     1      -6.379   9.757  65.707  1.00  0.00    -0.071 OA 
HETATM   22  C   UNL     1      -5.263   9.327  64.940  1.00  0.00    -0.045 C  
ENDBRANCH   5  21
BRANCH   5  23
HETATM   23  N   UNL     1      -8.633   9.321  66.666  1.00  0.00    -0.126 N  
HETATM   24  C   UNL     1      -9.867  10.043  68.669  1.00  0.00    -0.168 C  
HETATM   25  C   UNL     1      -8.573   9.567  68.022  1.00  0.00    -0.120 C  
HETATM   26  O   UNL     1      -7.533   9.460  68.674  1.00  0.00    -0.078 OA 
HETATM   27  H   UNL     1      -9.502   9.501  66.164  1.00  0.00     0.000 HD 
HETATM   28  C   UNL     1      -9.955   9.756  70.161  1.00  0.00    -0.263 C  
HETATM   29  C   UNL     1     -10.177  11.508  68.367  1.00  0.00    -0.211 A  
HETATM   30  C   UNL     1     -11.515  11.944  68.353  1.00  0.00    -0.357 A  
HETATM   31  O   UNL     1     -11.031   9.648  70.740  1.00  0.00    -0.276 OA 
HETATM   32  O   UNL     1      -8.790   9.659  70.840  1.00  0.00    -0.206 OA 
HETATM   33  C   UNL     1     -11.837  13.264  68.022  1.00  0.00    -0.392 A  
HETATM   34  C   UNL     1     -10.821  14.158  67.711  1.00  0.00    -0.252 A  
HETATM   35  C   UNL     1      -9.490  13.768  67.778  1.00  0.00    -0.216 A  
HETATM   36  O   UNL     1     -11.087  15.439  67.329  1.00  0.00    -0.325 OA 
HETATM   37  H   UNL     1     -10.392  16.050  67.116  1.00  0.00     0.000 HD 
HETATM   38  C   UNL     1      -9.166  12.452  68.117  1.00  0.00    -0.205 A  
ENDBRANCH   5  23
TORSDOF 5
ENDMDL
MODEL      156
REMARK 921   NORMALIZED FREE ENERGY PREDICTED BY IDOCK:   -3.06 KCAL/MOL
REMARK 922        TOTAL FREE ENERGY PREDICTED BY IDOCK:   -5.30 KCAL/MOL
REMARK 923 INTER-LIGAND FREE ENERGY PREDICTED BY IDOCK:   -5.94 KCAL/MOL
REMARK 924 INTRA-LIGAND FREE ENERGY PREDICTED BY IDOCK:    0.64 KCAL/MOL
REMARK 927      BINDING AFFINITY PREDICTED BY RF-SCORE:    0.00 PKD
ROOT
HETATM    1  C   UNL     1     -11.398  10.983  65.637  1.00  0.00     0.301 C  
HETATM    2  O   UNL     1     -10.898   9.806  66.290  1.00  0.00     0.037 OA 
HETATM    3  C   UNL     1     -10.903   9.940  67.712  1.00  0.00    -0.264 C  
HETATM    4  C   UNL     1     -10.236  11.240  68.145  1.00  0.00    -0.196 C  
HETATM    5  C   UNL     1     -10.969  11.274  64.135  1.00  0.00    -0.305 C  
HETATM    6  C   UNL     1     -10.055  12.261  67.261  1.00  0.00    -0.204 C  
HETATM    7  N   UNL     1     -10.671  12.182  66.031  1.00  0.00    -0.264 N  
HETATM    8  C   UNL     1      -9.176  13.440  67.610  1.00  0.00    -0.212 C  
HETATM    9  O   UNL     1      -8.423  13.463  68.575  1.00  0.00    -0.153 OA 
HETATM   10  O   UNL     1      -9.284  14.520  66.812  1.00  0.00    -0.243 OA 
HETATM   11  O   UNL     1      -9.547  13.456  64.457  1.00  0.00     0.119 OA 
HETATM   12  C   UNL     1     -10.265  12.540  64.794  1.00  0.00    -0.280 C  
ENDROOT
BRANCH   4  13
HETATM   13  C   UNL     1      -9.727  11.164  69.574  1.00  0.00     0.322 C  
BRANCH  13  14
HETATM   14  S   UNL     1      -9.427   9.487  70.198  1.00  0.00    -0.256 SA 
BRANCH  14  15
HETATM   15  C   UNL     1     -10.913   9.047  70.938  1.00  0.00    -0.268 A  
HETATM   16  N   UNL     1     -11.703   9.797  71.671  1.00  0.00    -0.373 NA 
HETATM   17  C   UNL     1     -10.983   6.632  70.165  1.00  0.00    -0.305 C  
HETATM   18  N   UNL     1     -12.735   8.980  72.066  1.00  0.00    -0.369 NA 
HETATM   19  N   UNL     1     -12.587   7.755  71.578  1.00  0.00    -0.326 NA 
HETATM   20  N   UNL     1     -11.451   7.796  70.863  1.00  0.00    -0.279 NA 
ENDBRANCH  14  15
ENDBRANCH  13  14
ENDBRANCH   4  13
BRANCH   5  21
HETATM   21  O   UNL     1     -12.053  11.625  63.233  1.00  0.00    -0.409 OA 
HETATM   22  C   UNL     1     -12.749  12.833  63.500  1.00  0.00    -0.115 C  
ENDBRANCH   5  21
BRANCH   5  23
HETATM   23  N   UNL     1     -10.003  10.262  63.596  1.00  0.00    -0.486 N  
HETATM   24  C   UNL     1      -7.792   9.220  63.304  1.00  0.00    -0.133 C  
HETATM   25  C   UNL     1      -8.675  10.266  63.972  1.00  0.00    -0.202 C  
HETATM   26  O   UNL     1      -8.228  11.029  64.829  1.00  0.00     0.061 OA 
HETATM   27  H   UNL     1     -10.333   9.556  62.939  1.00  0.00     0.000 HD 
HETATM   28  C   UNL     1      -6.316   9.589  63.268  1.00  0.00    -0.100 C  
HETATM   29  C   UNL     1      -8.000   7.818  63.874  1.00  0.00    -0.103 A  
HETATM   30  C   UNL     1      -7.759   6.696  63.057  1.00  0.00    -0.102 A  
HETATM   31  O   UNL     1      -5.552   9.133  62.424  1.00  0.00    -0.085 OA 
HETATM   32  O   UNL     1      -5.864  10.419  64.235  1.00  0.00    -0.140 OA 
HETATM   33  C   UNL     1      -7.996   5.401  63.528  1.00  0.00    -0.100 A  
HETATM   34  C   UNL     1      -8.468   5.220  64.821  1.00  0.00    -0.149 A  
HETATM   35  C   UNL     1      -8.654   6.306  65.665  1.00  0.00    -0.143 A  
HETATM   36  O   UNL     1      -8.766   3.982  65.306  1.00  0.00    -0.116 OA 
HETATM   37  H   UNL     1      -9.089   3.857  66.191  1.00  0.00     0.000 HD 
HETATM   38  C   UNL     1      -8.410   7.600  65.200  1.00  0.00    -0.100 A  
ENDBRANCH   5  23
TORSDOF 5
ENDMDL
MODEL      157
REMARK 921   NORMALIZED FREE ENERGY PREDICTED BY IDOCK:   -3.03 KCAL/MOL
REMARK 922        TOTAL FREE ENERGY PREDICTED BY IDOCK:   -5.27 KCAL/MOL
REMARK 923 INTER-LIGAND FREE ENERGY PREDICTED BY IDOCK:   -4.66 KCAL/MOL
REMARK 924 INTRA-LIGAND FREE ENERGY PREDICTED BY IDOCK:   -0.60 KCAL/MOL
REMARK 927      BINDING AFFINITY PREDICTED BY RF-SCORE:    0.00 PKD
ROOT
HETATM    1  C   UNL     1      -8.510   9.490  70.147  1.00  0.00    -0.205 C  
HETATM    2  O   UNL     1      -7.418   8.941  69.394  1.00  0.00    -0.073 OA 
HETATM    3  C   UNL     1      -6.931   9.856  68.411  1.00  0.00    -0.068 C  
HETATM    4  C   UNL     1      -8.069  10.413  67.566  1.00  0.00    -0.107 C  
HETATM    5  C   UNL     1      -9.532   8.502  70.857  1.00  0.00    -0.180 C  
HETATM    6  C   UNL     1      -9.361  10.332  67.993  1.00  0.00    -0.138 C  
HETATM    7  N   UNL     1      -9.601   9.933  69.289  1.00  0.00    -0.193 N  
HETATM    8  C   UNL     1     -10.506  10.647  67.058  1.00  0.00    -0.243 C  
HETATM    9  O   UNL     1     -10.378  10.777  65.847  1.00  0.00    -0.254 OA 
HETATM   10  O   UNL     1     -11.712  10.823  67.631  1.00  0.00    -0.538 OA 
HETATM   11  O   UNL     1     -11.718   9.016  69.497  1.00  0.00     0.317 OA 
HETATM   12  C   UNL     1     -10.561   9.151  69.830  1.00  0.00    -0.229 C  
ENDROOT
BRANCH   4  13
HETATM   13  C   UNL     1      -7.580  10.911  66.216  1.00  0.00    -0.136 C  
BRANCH  13  14
HETATM   14  S   UNL     1      -5.880  10.441  65.792  1.00  0.00    -0.122 SA 
BRANCH  14  15
HETATM   15  C   UNL     1      -6.066   9.012  64.856  1.00  0.00    -0.065 A  
HETATM   16  N   UNL     1      -5.714   7.788  65.172  1.00  0.00    -0.037 NA 
HETATM   17  C   UNL     1      -7.158  10.071  62.825  1.00  0.00    -0.127 C  
HETATM   18  N   UNL     1      -6.029   7.015  64.080  1.00  0.00    -0.036 NA 
HETATM   19  N   UNL     1      -6.573   7.747  63.117  1.00  0.00    -0.070 NA 
HETATM   20  N   UNL     1      -6.606   8.999  63.603  1.00  0.00    -0.089 NA 
ENDBRANCH  14  15
ENDBRANCH  13  14
ENDBRANCH   4  13
BRANCH   5  21
HETATM   21  O   UNL     1      -9.836   8.808  72.244  1.00  0.00    -0.307 OA 
HETATM   22  C   UNL     1     -11.115   8.423  72.725  1.00  0.00    -0.131 C  
ENDBRANCH   5  21
BRANCH   5  23
HETATM   23  N   UNL     1      -9.238   7.058  70.579  1.00  0.00    -0.159 N  
HETATM   24  C   UNL     1      -7.887   5.002  70.647  1.00  0.00    -0.078 C  
HETATM   25  C   UNL     1      -8.090   6.456  71.052  1.00  0.00    -0.121 C  
HETATM   26  O   UNL     1      -7.294   7.030  71.797  1.00  0.00    -0.083 OA 
HETATM   27  H   UNL     1      -9.899   6.509  70.030  1.00  0.00     0.000 HD 
HETATM   28  C   UNL     1      -6.433   4.551  70.663  1.00  0.00    -0.030 C  
HETATM   29  C   UNL     1      -8.775   4.038  71.432  1.00  0.00    -0.134 A  
HETATM   30  C   UNL     1      -9.165   2.820  70.844  1.00  0.00    -0.206 A  
HETATM   31  O   UNL     1      -6.033   3.620  69.973  1.00  0.00    -0.018 OA 
HETATM   32  O   UNL     1      -5.597   5.200  71.504  1.00  0.00    -0.005 OA 
HETATM   33  C   UNL     1     -10.025   1.942  71.511  1.00  0.00    -0.172 A  
HETATM   34  C   UNL     1     -10.494   2.274  72.775  1.00  0.00    -0.151 A  
HETATM   35  C   UNL     1     -10.075   3.441  73.401  1.00  0.00    -0.192 A  
HETATM   36  O   UNL     1     -11.377   1.479  73.442  1.00  0.00    -0.151 OA 
HETATM   37  H   UNL     1     -11.697   1.706  74.307  1.00  0.00     0.000 HD 
HETATM   38  C   UNL     1      -9.209   4.314  72.740  1.00  0.00    -0.135 A  
ENDBRANCH   5  23
TORSDOF 5
ENDMDL
MODEL      158
REMARK 921   NORMALIZED FREE ENERGY PREDICTED BY IDOCK:   -2.98 KCAL/MOL
REMARK 922        TOTAL FREE ENERGY PREDICTED BY IDOCK:   -5.19 KCAL/MOL
REMARK 923 INTER-LIGAND FREE ENERGY PREDICTED BY IDOCK:   -4.94 KCAL/MOL
REMARK 924 INTRA-LIGAND FREE ENERGY PREDICTED BY IDOCK:   -0.26 KCAL/MOL
REMARK 927      BINDING AFFINITY PREDICTED BY RF-SCORE:    0.00 PKD
ROOT
HETATM    1  C   UNL     1      -8.658   9.273  67.226  1.00  0.00    -0.125 C  
HETATM    2  O   UNL     1      -7.426   9.423  67.950  1.00  0.00    -0.083 OA 
HETATM    3  C   UNL     1      -6.961   8.180  68.478  1.00  0.00    -0.072 C  
HETATM    4  C   UNL     1      -8.064   7.458  69.241  1.00  0.00    -0.123 C  
HETATM    5  C   UNL     1      -9.611  10.532  67.056  1.00  0.00    -0.173 C  
HETATM    6  C   UNL     1      -9.372   7.795  69.064  1.00  0.00    -0.150 C  
HETATM    7  N   UNL     1      -9.697   8.649  68.033  1.00  0.00    -0.153 N  
HETATM    8  C   UNL     1     -10.440   7.267  69.995  1.00  0.00    -0.224 C  
HETATM    9  O   UNL     1     -10.199   6.705  71.054  1.00  0.00    -0.190 OA 
HETATM   10  O   UNL     1     -11.714   7.411  69.581  1.00  0.00     0.128 OA 
HETATM   11  O   UNL     1     -11.684   9.756  68.466  1.00  0.00     0.204 OA 
HETATM   12  C   UNL     1     -10.599   9.650  67.940  1.00  0.00    -0.255 C  
ENDROOT
BRANCH   4  13
HETATM   13  C   UNL     1      -7.500   6.473  70.251  1.00  0.00    -0.094 C  
BRANCH  13  14
HETATM   14  S   UNL     1      -7.656   4.725  69.792  1.00  0.00    -0.055 SA 
BRANCH  14  15
HETATM   15  C   UNL     1      -7.104   3.880  71.182  1.00  0.00    -0.033 A  
HETATM   16  N   UNL     1      -6.846   4.367  72.374  1.00  0.00    -0.052 NA 
HETATM   17  C   UNL     1      -6.977   1.565  70.151  1.00  0.00    -0.033 C  
HETATM   18  N   UNL     1      -6.392   3.306  73.121  1.00  0.00    -0.012 NA 
HETATM   19  N   UNL     1      -6.381   2.189  72.406  1.00  0.00    -0.013 NA 
HETATM   20  N   UNL     1      -6.835   2.542  71.193  1.00  0.00    -0.031 NA 
ENDBRANCH  14  15
ENDBRANCH  13  14
ENDBRANCH   4  13
BRANCH   5  21
HETATM   21  O   UNL     1     -10.102  10.767  65.708  1.00  0.00    -0.240 OA 
HETATM   22  C   UNL     1      -9.493  10.024  64.662  1.00  0.00    -0.305 C  
ENDBRANCH   5  21
BRANCH   5  23
HETATM   23  N   UNL     1      -9.101  11.753  67.762  1.00  0.00    -0.171 N  
HETATM   24  C   UNL     1      -7.468  13.525  68.258  1.00  0.00    -0.122 C  
HETATM   25  C   UNL     1      -7.894  12.327  67.421  1.00  0.00    -0.171 C  
HETATM   26  O   UNL     1      -7.215  11.938  66.470  1.00  0.00     0.008 OA 
HETATM   27  H   UNL     1      -9.656  12.166  68.510  1.00  0.00     0.000 HD 
HETATM   28  C   UNL     1      -5.965  13.768  68.273  1.00  0.00    -0.108 C  
HETATM   29  C   UNL     1      -8.231  14.800  67.901  1.00  0.00    -0.154 A  
HETATM   30  C   UNL     1      -8.420  15.792  68.882  1.00  0.00    -0.218 A  
HETATM   31  O   UNL     1      -5.411  14.359  69.194  1.00  0.00    -0.081 OA 
HETATM   32  O   UNL     1      -5.260  13.335  67.204  1.00  0.00    -0.330 OA 
HETATM   33  C   UNL     1      -9.164  16.943  68.606  1.00  0.00    -0.265 A  
HETATM   34  C   UNL     1      -9.719  17.112  67.344  1.00  0.00    -0.253 A  
HETATM   35  C   UNL     1      -9.495  16.177  66.342  1.00  0.00    -0.323 A  
HETATM   36  O   UNL     1     -10.498  18.189  67.044  1.00  0.00    -0.372 OA 
HETATM   37  H   UNL     1     -10.877  18.304  66.180  1.00  0.00     0.000 HD 
HETATM   38  C   UNL     1      -8.744  15.031  66.614  1.00  0.00    -0.289 A  
ENDBRANCH   5  23
TORSDOF 5
ENDMDL
MODEL      159
REMARK 921   NORMALIZED FREE ENERGY PREDICTED BY IDOCK:   -2.95 KCAL/MOL
REMARK 922        TOTAL FREE ENERGY PREDICTED BY IDOCK:   -5.16 KCAL/MOL
REMARK 923 INTER-LIGAND FREE ENERGY PREDICTED BY IDOCK:   -5.91 KCAL/MOL
REMARK 924 INTRA-LIGAND FREE ENERGY PREDICTED BY IDOCK:    0.75 KCAL/MOL
REMARK 927      BINDING AFFINITY PREDICTED BY RF-SCORE:    0.00 PKD
ROOT
HETATM    1  C   UNL     1      -6.231   9.405  66.222  1.00  0.00    -0.064 C  
HETATM    2  O   UNL     1      -6.537  10.043  67.472  1.00  0.00    -0.067 OA 
HETATM    3  C   UNL     1      -6.367   9.158  68.581  1.00  0.00    -0.049 C  
HETATM    4  C   UNL     1      -7.089   7.837  68.348  1.00  0.00    -0.077 C  
HETATM    5  C   UNL     1      -6.868   9.979  64.885  1.00  0.00    -0.133 C  
HETATM    6  C   UNL     1      -7.470   7.461  67.094  1.00  0.00    -0.106 C  
HETATM    7  N   UNL     1      -7.008   8.190  66.021  1.00  0.00    -0.057 N  
HETATM    8  C   UNL     1      -8.401   6.288  66.888  1.00  0.00    -0.109 C  
HETATM    9  O   UNL     1      -9.027   5.751  67.793  1.00  0.00    -0.110 OA 
HETATM   10  O   UNL     1      -8.492   5.813  65.631  1.00  0.00    -0.137 OA 
HETATM   11  O   UNL     1      -8.429   7.982  64.204  1.00  0.00    -0.035 OA 
HETATM   12  C   UNL     1      -7.596   8.563  64.863  1.00  0.00    -0.098 C  
ENDROOT
BRANCH   4  13
HETATM   13  C   UNL     1      -7.407   7.129  69.653  1.00  0.00    -0.085 C  
BRANCH  13  14
HETATM   14  S   UNL     1      -6.895   8.011  71.153  1.00  0.00    -0.049 SA 
BRANCH  14  15
HETATM   15  C   UNL     1      -8.022   7.496  72.343  1.00  0.00    -0.103 A  
HETATM   16  N   UNL     1      -7.845   6.608  73.293  1.00  0.00    -0.097 NA 
HETATM   17  C   UNL     1      -9.971   8.953  71.624  1.00  0.00    -0.327 C  
HETATM   18  N   UNL     1      -9.049   6.516  73.949  1.00  0.00    -0.140 NA 
HETATM   19  N   UNL     1      -9.945   7.339  73.419  1.00  0.00    -0.263 NA 
HETATM   20  N   UNL     1      -9.303   7.962  72.418  1.00  0.00    -0.168 NA 
ENDBRANCH  14  15
ENDBRANCH  13  14
ENDBRANCH   4  13
BRANCH   5  21
HETATM   21  O   UNL     1      -5.942  10.165  63.782  1.00  0.00    -0.123 OA 
HETATM   22  C   UNL     1      -6.487  10.616  62.550  1.00  0.00    -0.102 C  
ENDBRANCH   5  21
BRANCH   5  23
HETATM   23  N   UNL     1      -7.799  11.129  65.129  1.00  0.00    -0.279 N  
HETATM   24  C   UNL     1      -9.825  12.213  66.008  1.00  0.00    -0.260 C  
HETATM   25  C   UNL     1      -8.939  10.981  65.892  1.00  0.00    -0.195 C  
HETATM   26  O   UNL     1      -9.211   9.938  66.489  1.00  0.00    -0.149 OA 
HETATM   27  H   UNL     1      -7.586  12.039  64.722  1.00  0.00     0.000 HD 
HETATM   28  C   UNL     1     -11.281  11.901  66.327  1.00  0.00    -0.337 C  
HETATM   29  C   UNL     1      -9.261  13.261  66.966  1.00  0.00    -0.237 A  
HETATM   30  C   UNL     1      -9.576  14.620  66.770  1.00  0.00    -0.266 A  
HETATM   31  O   UNL     1     -12.191  12.667  66.026  1.00  0.00    -0.564 OA 
HETATM   32  O   UNL     1     -11.533  10.753  66.993  1.00  0.00    -0.349 OA 
HETATM   33  C   UNL     1      -9.028  15.610  67.592  1.00  0.00    -0.183 A  
HETATM   34  C   UNL     1      -8.168  15.246  68.620  1.00  0.00    -0.159 A  
HETATM   35  C   UNL     1      -7.891  13.909  68.871  1.00  0.00    -0.022 A  
HETATM   36  O   UNL     1      -7.567  16.178  69.412  1.00  0.00    -0.234 OA 
HETATM   37  H   UNL     1      -6.979  15.929  70.116  1.00  0.00     0.000 HD 
HETATM   38  C   UNL     1      -8.444  12.918  68.057  1.00  0.00    -0.178 A  
ENDBRANCH   5  23
TORSDOF 5
ENDMDL
MODEL      160
REMARK 921   NORMALIZED FREE ENERGY PREDICTED BY IDOCK:   -2.93 KCAL/MOL
REMARK 922        TOTAL FREE ENERGY PREDICTED BY IDOCK:   -5.14 KCAL/MOL
REMARK 923 INTER-LIGAND FREE ENERGY PREDICTED BY IDOCK:   -4.94 KCAL/MOL
REMARK 924 INTRA-LIGAND FREE ENERGY PREDICTED BY IDOCK:   -0.20 KCAL/MOL
REMARK 927      BINDING AFFINITY PREDICTED BY RF-SCORE:    0.00 PKD
ROOT
HETATM    1  C   UNL     1      -6.873   7.386  66.412  1.00  0.00    -0.061 C  
HETATM    2  O   UNL     1      -7.519   7.273  67.690  1.00  0.00    -0.096 OA 
HETATM    3  C   UNL     1      -7.555   5.922  68.155  1.00  0.00    -0.089 C  
HETATM    4  C   UNL     1      -8.095   4.984  67.083  1.00  0.00    -0.107 C  
HETATM    5  C   UNL     1      -7.212   8.630  65.483  1.00  0.00    -0.084 C  
HETATM    6  C   UNL     1      -8.133   5.366  65.775  1.00  0.00    -0.110 C  
HETATM    7  N   UNL     1      -7.484   6.525  65.409  1.00  0.00    -0.077 N  
HETATM    8  C   UNL     1      -8.894   4.553  64.754  1.00  0.00    -0.149 C  
HETATM    9  O   UNL     1      -9.677   3.658  65.045  1.00  0.00    -0.164 OA 
HETATM   10  O   UNL     1      -8.643   4.834  63.460  1.00  0.00    -0.126 OA 
HETATM   11  O   UNL     1      -8.405   7.420  63.482  1.00  0.00     0.011 OA 
HETATM   12  C   UNL     1      -7.802   7.499  64.530  1.00  0.00    -0.130 C  
ENDROOT
BRANCH   4  13
HETATM   13  C   UNL     1      -8.663   3.709  67.682  1.00  0.00    -0.107 C  
BRANCH  13  14
HETATM   14  S   UNL     1      -7.480   2.707  68.624  1.00  0.00    -0.047 SA 
BRANCH  14  15
HETATM   15  C   UNL     1      -7.862   3.046  70.264  1.00  0.00    -0.043 A  
HETATM   16  N   UNL     1      -9.044   3.038  70.836  1.00  0.00    -0.101 NA 
HETATM   17  C   UNL     1      -5.508   3.533  71.073  1.00  0.00    -0.008 C  
HETATM   18  N   UNL     1      -8.831   3.418  72.139  1.00  0.00    -0.092 NA 
HETATM   19  N   UNL     1      -7.544   3.646  72.366  1.00  0.00    -0.061 NA 
HETATM   20  N   UNL     1      -6.932   3.405  71.195  1.00  0.00    -0.032 NA 
ENDBRANCH  14  15
ENDBRANCH  13  14
ENDBRANCH   4  13
BRANCH   5  21
HETATM   21  O   UNL     1      -6.064   9.316  64.916  1.00  0.00    -0.064 OA 
HETATM   22  C   UNL     1      -6.188   9.787  63.582  1.00  0.00    -0.116 C  
ENDBRANCH   5  21
BRANCH   5  23
HETATM   23  N   UNL     1      -8.260   9.529  66.069  1.00  0.00    -0.114 N  
HETATM   24  C   UNL     1      -9.094  11.577  67.147  1.00  0.00    -0.167 C  
HETATM   25  C   UNL     1      -7.948  10.794  66.522  1.00  0.00    -0.144 C  
HETATM   26  O   UNL     1      -6.828  11.292  66.392  1.00  0.00    -0.124 OA 
HETATM   27  H   UNL     1      -9.222   9.199  66.133  1.00  0.00     0.000 HD 
HETATM   28  C   UNL     1      -8.647  12.657  68.122  1.00  0.00    -0.188 C  
HETATM   29  C   UNL     1     -10.066  12.135  66.109  1.00  0.00    -0.251 A  
HETATM   30  C   UNL     1     -11.412  12.347  66.463  1.00  0.00    -0.427 A  
HETATM   31  O   UNL     1      -9.376  13.063  69.022  1.00  0.00     0.209 OA 
HETATM   32  O   UNL     1      -7.417  13.185  67.935  1.00  0.00    -0.106 OA 
HETATM   33  C   UNL     1     -12.341  12.800  65.521  1.00  0.00    -0.495 A  
HETATM   34  C   UNL     1     -11.926  13.052  64.220  1.00  0.00    -0.402 A  
HETATM   35  C   UNL     1     -10.592  12.910  63.862  1.00  0.00    -0.367 A  
HETATM   36  O   UNL     1     -12.804  13.442  63.253  1.00  0.00    -0.508 OA 
HETATM   37  H   UNL     1     -12.520  13.615  62.363  1.00  0.00     0.000 HD 
HETATM   38  C   UNL     1      -9.662  12.466  64.804  1.00  0.00     0.001 A  
ENDBRANCH   5  23
TORSDOF 5
ENDMDL
MODEL      161
REMARK 921   NORMALIZED FREE ENERGY PREDICTED BY IDOCK:   -2.92 KCAL/MOL
REMARK 922        TOTAL FREE ENERGY PREDICTED BY IDOCK:   -5.12 KCAL/MOL
REMARK 923 INTER-LIGAND FREE ENERGY PREDICTED BY IDOCK:   -5.48 KCAL/MOL
REMARK 924 INTRA-LIGAND FREE ENERGY PREDICTED BY IDOCK:    0.36 KCAL/MOL
REMARK 927      BINDING AFFINITY PREDICTED BY RF-SCORE:    0.00 PKD
ROOT
HETATM    1  C   UNL     1     -10.753   8.573  68.953  1.00  0.00    -0.073 C  
HETATM    2  O   UNL     1     -10.441   8.861  67.582  1.00  0.00    -0.246 OA 
HETATM    3  C   UNL     1      -9.779   7.768  66.942  1.00  0.00    -0.216 C  
HETATM    4  C   UNL     1      -8.601   7.275  67.772  1.00  0.00    -0.120 C  
HETATM    5  C   UNL     1     -10.954   9.777  69.969  1.00  0.00    -0.277 C  
HETATM    6  C   UNL     1      -8.497   7.592  69.094  1.00  0.00    -0.138 C  
HETATM    7  N   UNL     1      -9.574   8.183  69.715  1.00  0.00    -0.170 N  
HETATM    8  C   UNL     1      -7.217   7.327  69.854  1.00  0.00    -0.081 C  
HETATM    9  O   UNL     1      -6.159   7.027  69.318  1.00  0.00    -0.031 OA 
HETATM   10  O   UNL     1      -7.297   7.398  71.197  1.00  0.00    -0.071 OA 
HETATM   11  O   UNL     1      -8.899   9.410  71.560  1.00  0.00    -0.268 OA 
HETATM   12  C   UNL     1      -9.657   9.155  70.650  1.00  0.00    -0.255 C  
ENDROOT
BRANCH   4  13
HETATM   13  C   UNL     1      -7.575   6.546  66.921  1.00  0.00    -0.095 C  
BRANCH  13  14
HETATM   14  S   UNL     1      -6.569   7.608  65.849  1.00  0.00    -0.046 SA 
BRANCH  14  15
HETATM   15  C   UNL     1      -7.560   8.985  65.580  1.00  0.00    -0.090 A  
HETATM   16  N   UNL     1      -7.591  10.104  66.265  1.00  0.00    -0.106 NA 
HETATM   17  C   UNL     1      -8.826   8.110  63.563  1.00  0.00     0.647 C  
HETATM   18  N   UNL     1      -8.576  10.869  65.688  1.00  0.00    -0.178 NA 
HETATM   19  N   UNL     1      -9.133  10.237  64.663  1.00  0.00    -0.207 NA 
HETATM   20  N   UNL     1      -8.492   9.059  64.586  1.00  0.00    -0.173 NA 
ENDBRANCH  14  15
ENDBRANCH  13  14
ENDBRANCH   4  13
BRANCH   5  21
HETATM   21  O   UNL     1     -12.137   9.696  70.808  1.00  0.00    -0.279 OA 
HETATM   22  C   UNL     1     -12.036   8.919  71.993  1.00  0.00    -0.369 C  
ENDBRANCH   5  21
BRANCH   5  23
HETATM   23  N   UNL     1     -10.718  11.118  69.340  1.00  0.00    -0.361 N  
HETATM   24  C   UNL     1     -11.237  13.008  67.852  1.00  0.00    -0.304 C  
HETATM   25  C   UNL     1     -11.629  11.670  68.463  1.00  0.00    -0.317 C  
HETATM   26  O   UNL     1     -12.718  11.149  68.218  1.00  0.00     0.419 OA 
HETATM   27  H   UNL     1      -9.867  11.633  69.564  1.00  0.00     0.000 HD 
HETATM   28  C   UNL     1     -11.916  13.305  66.522  1.00  0.00    -0.391 C  
HETATM   29  C   UNL     1     -11.394  14.174  68.827  1.00  0.00    -0.308 A  
HETATM   30  C   UNL     1     -10.576  15.312  68.684  1.00  0.00    -0.236 A  
HETATM   31  O   UNL     1     -11.422  14.064  65.695  1.00  0.00    -0.309 OA 
HETATM   32  O   UNL     1     -13.115  12.722  66.299  1.00  0.00     0.500 OA 
HETATM   33  C   UNL     1     -10.653  16.370  69.594  1.00  0.00    -0.307 A  
HETATM   34  C   UNL     1     -11.554  16.301  70.649  1.00  0.00    -0.226 A  
HETATM   35  C   UNL     1     -12.414  15.218  70.775  1.00  0.00    -0.457 A  
HETATM   36  O   UNL     1     -11.627  17.282  71.592  1.00  0.00     0.045 OA 
HETATM   37  H   UNL     1     -12.244  17.235  72.313  1.00  0.00     0.000 HD 
HETATM   38  C   UNL     1     -12.344  14.164  69.862  1.00  0.00    -0.382 A  
ENDBRANCH   5  23
TORSDOF 5
ENDMDL
MODEL      162
REMARK 921   NORMALIZED FREE ENERGY PREDICTED BY IDOCK:   -2.87 KCAL/MOL
REMARK 922        TOTAL FREE ENERGY PREDICTED BY IDOCK:   -5.06 KCAL/MOL
REMARK 923 INTER-LIGAND FREE ENERGY PREDICTED BY IDOCK:   -6.56 KCAL/MOL
REMARK 924 INTRA-LIGAND FREE ENERGY PREDICTED BY IDOCK:    1.50 KCAL/MOL
REMARK 927      BINDING AFFINITY PREDICTED BY RF-SCORE:    0.00 PKD
ROOT
HETATM    1  C   UNL     1      -7.708  10.044  69.145  1.00  0.00    -0.104 C  
HETATM    2  O   UNL     1      -7.878   9.516  67.821  1.00  0.00    -0.094 OA 
HETATM    3  C   UNL     1      -8.738  10.333  67.024  1.00  0.00    -0.129 C  
HETATM    4  C   UNL     1     -10.036  10.646  67.757  1.00  0.00    -0.203 C  
HETATM    5  C   UNL     1      -7.290   9.061  70.321  1.00  0.00    -0.076 C  
HETATM    6  C   UNL     1     -10.131  10.489  69.107  1.00  0.00    -0.224 C  
HETATM    7  N   UNL     1      -8.980  10.248  69.824  1.00  0.00    -0.125 N  
HETATM    8  C   UNL     1     -11.473  10.550  69.800  1.00  0.00    -0.294 C  
HETATM    9  O   UNL     1     -12.544  10.525  69.209  1.00  0.00    -0.195 OA 
HETATM   10  O   UNL     1     -11.446  10.675  71.141  1.00  0.00    -0.196 OA 
HETATM   11  O   UNL     1      -9.451   9.151  71.808  1.00  0.00    -0.312 OA 
HETATM   12  C   UNL     1      -8.727   9.452  70.885  1.00  0.00    -0.081 C  
ENDROOT
BRANCH   4  13
HETATM   13  C   UNL     1     -11.156  11.002  66.795  1.00  0.00    -0.172 C  
BRANCH  13  14
HETATM   14  S   UNL     1     -11.649  12.749  66.799  1.00  0.00    -0.388 SA 
BRANCH  14  15
HETATM   15  C   UNL     1     -12.036  13.074  65.157  1.00  0.00    -0.433 A  
HETATM   16  N   UNL     1     -12.857  13.983  64.686  1.00  0.00    -0.648 NA 
HETATM   17  C   UNL     1     -10.573  11.293  64.097  1.00  0.00    -0.373 C  
HETATM   18  N   UNL     1     -12.860  13.815  63.322  1.00  0.00    -0.318 NA 
HETATM   19  N   UNL     1     -12.050  12.828  62.961  1.00  0.00    -0.252 NA 
HETATM   20  N   UNL     1     -11.524  12.367  64.108  1.00  0.00    -0.352 NA 
ENDBRANCH  14  15
ENDBRANCH  13  14
ENDBRANCH   4  13
BRANCH   5  21
HETATM   21  O   UNL     1      -6.199   9.522  71.162  1.00  0.00    -0.080 OA 
HETATM   22  C   UNL     1      -5.648  10.797  70.864  1.00  0.00    -0.092 C  
ENDBRANCH   5  21
BRANCH   5  23
HETATM   23  N   UNL     1      -7.187   7.632  69.879  1.00  0.00    -0.070 N  
HETATM   24  C   UNL     1      -8.048   5.381  69.383  1.00  0.00    -0.093 C  
HETATM   25  C   UNL     1      -8.303   6.827  69.786  1.00  0.00    -0.132 C  
HETATM   26  O   UNL     1      -9.446   7.249  69.966  1.00  0.00    -0.161 OA 
HETATM   27  H   UNL     1      -6.273   7.247  69.643  1.00  0.00     0.000 HD 
HETATM   28  C   UNL     1      -9.132   4.412  69.834  1.00  0.00    -0.111 C  
HETATM   29  C   UNL     1      -7.750   5.225  67.892  1.00  0.00    -0.088 A  
HETATM   30  C   UNL     1      -6.948   4.153  67.455  1.00  0.00    -0.056 A  
HETATM   31  O   UNL     1      -8.907   3.218  70.004  1.00  0.00    -0.071 OA 
HETATM   32  O   UNL     1     -10.375   4.915  70.008  1.00  0.00    -0.268 OA 
HETATM   33  C   UNL     1      -6.608   4.015  66.106  1.00  0.00    -0.041 A  
HETATM   34  C   UNL     1      -7.074   4.944  65.185  1.00  0.00    -0.063 A  
HETATM   35  C   UNL     1      -7.916   5.973  65.583  1.00  0.00    -0.116 A  
HETATM   36  O   UNL     1      -6.724   4.883  63.869  1.00  0.00    -0.040 OA 
HETATM   37  H   UNL     1      -7.043   5.518  63.239  1.00  0.00     0.000 HD 
HETATM   38  C   UNL     1      -8.264   6.108  66.928  1.00  0.00    -0.106 A  
ENDBRANCH   5  23
TORSDOF 5
ENDMDL
MODEL      163
REMARK 921   NORMALIZED FREE ENERGY PREDICTED BY IDOCK:   -2.61 KCAL/MOL
REMARK 922        TOTAL FREE ENERGY PREDICTED BY IDOCK:   -4.72 KCAL/MOL
REMARK 923 INTER-LIGAND FREE ENERGY PREDICTED BY IDOCK:   -5.46 KCAL/MOL
REMARK 924 INTRA-LIGAND FREE ENERGY PREDICTED BY IDOCK:    0.74 KCAL/MOL
REMARK 927      BINDING AFFINITY PREDICTED BY RF-SCORE:    0.00 PKD
ROOT
HETATM    1  C   UNL     1     -11.456  11.878  66.759  1.00  0.00    -0.316 C  
HETATM    2  O   UNL     1     -11.555  11.364  68.096  1.00  0.00    -0.341 OA 
HETATM    3  C   UNL     1     -12.217  12.276  68.974  1.00  0.00     0.004 C  
HETATM    4  C   UNL     1     -11.616  13.673  68.872  1.00  0.00    -0.362 C  
HETATM    5  C   UNL     1     -10.314  11.326  65.802  1.00  0.00    -0.258 C  
HETATM    6  C   UNL     1     -10.850  14.027  67.801  1.00  0.00    -0.247 C  
HETATM    7  N   UNL     1     -10.803  13.179  66.717  1.00  0.00    -0.274 N  
HETATM    8  C   UNL     1     -10.048  15.308  67.815  1.00  0.00    -0.230 C  
HETATM    9  O   UNL     1      -9.860  15.981  68.820  1.00  0.00    -0.206 OA 
HETATM   10  O   UNL     1      -9.561  15.718  66.628  1.00  0.00    -0.224 OA 
HETATM   11  O   UNL     1      -8.851  13.485  65.508  1.00  0.00     0.852 OA 
HETATM   12  C   UNL     1      -9.795  12.828  65.889  1.00  0.00    -0.238 C  
ENDROOT
BRANCH   4  13
HETATM   13  C   UNL     1     -11.878  14.493  70.123  1.00  0.00    -0.308 C  
BRANCH  13  14
HETATM   14  S   UNL     1     -12.805  13.637  71.426  1.00  0.00    -0.332 SA 
BRANCH  14  15
HETATM   15  C   UNL     1     -13.292  14.898  72.486  1.00  0.00    -0.428 A  
HETATM   16  N   UNL     1     -14.323  15.702  72.364  1.00  0.00    -0.482 NA 
HETATM   17  C   UNL     1     -11.435  14.648  74.197  1.00  0.00     1.191 C  
HETATM   18  N   UNL     1     -14.256  16.561  73.435  1.00  0.00     0.305 NA 
HETATM   19  N   UNL     1     -13.211  16.285  74.204  1.00  0.00    -0.477 NA 
HETATM   20  N   UNL     1     -12.609  15.237  73.618  1.00  0.00    -0.532 NA 
ENDBRANCH  14  15
ENDBRANCH  13  14
ENDBRANCH   4  13
BRANCH   5  21
HETATM   21  O   UNL     1     -10.748  10.944  64.469  1.00  0.00    -0.327 OA 
HETATM   22  C   UNL     1     -10.164  11.640  63.377  1.00  0.00    -0.433 C  
ENDBRANCH   5  21
BRANCH   5  23
HETATM   23  N   UNL     1      -9.411  10.338  66.479  1.00  0.00    -0.166 N  
HETATM   24  C   UNL     1      -7.568   9.645  67.955  1.00  0.00    -0.083 C  
HETATM   25  C   UNL     1      -8.457  10.745  67.388  1.00  0.00    -0.119 C  
HETATM   26  O   UNL     1      -8.350  11.912  67.765  1.00  0.00    -0.134 OA 
HETATM   27  H   UNL     1      -9.504   9.346  66.263  1.00  0.00     0.000 HD 
HETATM   28  C   UNL     1      -6.220  10.139  68.461  1.00  0.00    -0.044 C  
HETATM   29  C   UNL     1      -8.277   8.793  69.006  1.00  0.00    -0.117 A  
HETATM   30  C   UNL     1      -7.880   7.455  69.196  1.00  0.00    -0.116 A  
HETATM   31  O   UNL     1      -5.240   9.403  68.525  1.00  0.00    -0.034 OA 
HETATM   32  O   UNL     1      -6.150  11.423  68.877  1.00  0.00    -0.047 OA 
HETATM   33  C   UNL     1      -8.546   6.631  70.107  1.00  0.00    -0.140 A  
HETATM   34  C   UNL     1      -9.610   7.141  70.840  1.00  0.00    -0.167 A  
HETATM   35  C   UNL     1      -9.980   8.474  70.715  1.00  0.00    -0.230 A  
HETATM   36  O   UNL     1     -10.325   6.362  71.698  1.00  0.00    -0.201 OA 
HETATM   37  H   UNL     1     -11.053   6.711  72.200  1.00  0.00     0.000 HD 
HETATM   38  C   UNL     1      -9.310   9.301  69.812  1.00  0.00    -0.199 A  
ENDBRANCH   5  23
TORSDOF 5
ENDMDL
MODEL      164
REMARK 921   NORMALIZED FREE ENERGY PREDICTED BY IDOCK:   -2.57 KCAL/MOL
REMARK 922        TOTAL FREE ENERGY PREDICTED BY IDOCK:   -4.66 KCAL/MOL
REMARK 923 INTER-LIGAND FREE ENERGY PREDICTED BY IDOCK:   -5.23 KCAL/MOL
REMARK 924 INTRA-LIGAND FREE ENERGY PREDICTED BY IDOCK:    0.57 KCAL/MOL
REMARK 927      BINDING AFFINITY PREDICTED BY RF-SCORE:    0.00 PKD
ROOT
HETATM    1  C   UNL     1      -7.233   7.078  71.064  1.00  0.00    -0.075 C  
HETATM    2  O   UNL     1      -7.223   7.788  69.817  1.00  0.00    -0.064 OA 
HETATM    3  C   UNL     1      -7.903   9.042  69.908  1.00  0.00    -0.090 C  
HETATM    4  C   UNL     1      -9.281   8.876  70.535  1.00  0.00    -0.239 C  
HETATM    5  C   UNL     1      -7.057   5.499  71.055  1.00  0.00    -0.069 C  
HETATM    6  C   UNL     1      -9.594   7.758  71.250  1.00  0.00    -0.157 C  
HETATM    7  N   UNL     1      -8.583   6.881  71.574  1.00  0.00    -0.122 N  
HETATM    8  C   UNL     1     -11.023   7.473  71.653  1.00  0.00    -0.232 C  
HETATM    9  O   UNL     1     -11.988   8.076  71.204  1.00  0.00    -0.293 OA 
HETATM   10  O   UNL     1     -11.199   6.519  72.588  1.00  0.00    -0.253 OA 
HETATM   11  O   UNL     1      -9.415   4.749  71.929  1.00  0.00    -0.136 OA 
HETATM   12  C   UNL     1      -8.541   5.532  71.629  1.00  0.00    -0.132 C  
ENDROOT
BRANCH   4  13
HETATM   13  C   UNL     1     -10.217  10.008  70.149  1.00  0.00    -0.242 C  
BRANCH  13  14
HETATM   14  S   UNL     1     -10.641  10.092  68.387  1.00  0.00    -0.232 SA 
BRANCH  14  15
HETATM   15  C   UNL     1     -10.098  11.648  67.903  1.00  0.00    -0.187 A  
HETATM   16  N   UNL     1      -9.094  11.942  67.109  1.00  0.00    -0.173 NA 
HETATM   17  C   UNL     1     -11.797  13.022  69.192  1.00  0.00    -0.310 C  
HETATM   18  N   UNL     1      -9.037  13.315  67.072  1.00  0.00    -0.226 NA 
HETATM   19  N   UNL     1      -9.992  13.853  67.819  1.00  0.00    -0.236 NA 
HETATM   20  N   UNL     1     -10.665  12.811  68.335  1.00  0.00    -0.243 NA 
ENDBRANCH  14  15
ENDBRANCH  13  14
ENDBRANCH   4  13
BRANCH   5  21
HETATM   21  O   UNL     1      -6.087   4.973  72.001  1.00  0.00    -0.023 OA 
HETATM   22  C   UNL     1      -6.173   3.590  72.312  1.00  0.00    -0.013 C  
ENDBRANCH   5  21
BRANCH   5  23
HETATM   23  N   UNL     1      -6.961   4.929  69.671  1.00  0.00    -0.052 N  
HETATM   24  C   UNL     1      -7.712   3.578  67.756  1.00  0.00    -0.069 C  
HETATM   25  C   UNL     1      -7.964   4.139  69.150  1.00  0.00    -0.060 C  
HETATM   26  O   UNL     1      -9.025   3.931  69.741  1.00  0.00    -0.084 OA 
HETATM   27  H   UNL     1      -6.138   5.130  69.103  1.00  0.00     0.000 HD 
HETATM   28  C   UNL     1      -8.493   2.308  67.449  1.00  0.00    -0.093 C  
HETATM   29  C   UNL     1      -7.894   4.621  66.655  1.00  0.00    -0.099 A  
HETATM   30  C   UNL     1      -7.174   4.491  65.452  1.00  0.00    -0.068 A  
HETATM   31  O   UNL     1      -8.110   1.495  66.615  1.00  0.00    -0.070 OA 
HETATM   32  O   UNL     1      -9.657   2.126  68.112  1.00  0.00    -0.212 OA 
HETATM   33  C   UNL     1      -7.272   5.459  64.448  1.00  0.00    -0.055 A  
HETATM   34  C   UNL     1      -8.097   6.560  64.638  1.00  0.00    -0.092 A  
HETATM   35  C   UNL     1      -8.864   6.679  65.790  1.00  0.00    -0.093 A  
HETATM   36  O   UNL     1      -8.184   7.557  63.713  1.00  0.00    -0.325 OA 
HETATM   37  H   UNL     1      -8.749   8.310  63.843  1.00  0.00     0.000 HD 
HETATM   38  C   UNL     1      -8.774   5.708  66.790  1.00  0.00    -0.115 A  
ENDBRANCH   5  23
TORSDOF 5
ENDMDL
MODEL      165
REMARK 921   NORMALIZED FREE ENERGY PREDICTED BY IDOCK:   -2.47 KCAL/MOL
REMARK 922        TOTAL FREE ENERGY PREDICTED BY IDOCK:   -4.53 KCAL/MOL
REMARK 923 INTER-LIGAND FREE ENERGY PREDICTED BY IDOCK:   -4.91 KCAL/MOL
REMARK 924 INTRA-LIGAND FREE ENERGY PREDICTED BY IDOCK:    0.37 KCAL/MOL
REMARK 927      BINDING AFFINITY PREDICTED BY RF-SCORE:    0.00 PKD
ROOT
HETATM    1  C   UNL     1     -11.198   9.293  67.208  1.00  0.00     0.582 C  
HETATM    2  O   UNL     1     -10.294   8.375  66.575  1.00  0.00    -0.285 OA 
HETATM    3  C   UNL     1     -10.437   7.047  67.083  1.00  0.00    -0.312 C  
HETATM    4  C   UNL     1     -10.397   7.032  68.606  1.00  0.00    -0.200 C  
HETATM    5  C   UNL     1     -10.842  10.841  67.223  1.00  0.00    -0.288 C  
HETATM    6  C   UNL     1     -10.606   8.173  69.321  1.00  0.00    -0.182 C  
HETATM    7  N   UNL     1     -11.060   9.291  68.658  1.00  0.00     0.021 N  
HETATM    8  C   UNL     1     -10.318   8.219  70.805  1.00  0.00    -0.193 C  
HETATM    9  O   UNL     1      -9.701   7.348  71.404  1.00  0.00    -0.167 OA 
HETATM   10  O   UNL     1     -10.819   9.274  71.476  1.00  0.00    -0.339 OA 
HETATM   11  O   UNL     1     -10.478  11.224  69.794  1.00  0.00     0.003 OA 
HETATM   12  C   UNL     1     -10.768  10.603  68.795  1.00  0.00    -0.215 C  
ENDROOT
BRANCH   4  13
HETATM   13  C   UNL     1      -9.987   5.673  69.147  1.00  0.00    -0.183 C  
BRANCH  13  14
HETATM   14  S   UNL     1      -8.319   5.131  68.684  1.00  0.00    -0.088 SA 
BRANCH  14  15
HETATM   15  C   UNL     1      -8.585   4.016  67.404  1.00  0.00    -0.101 A  
HETATM   16  N   UNL     1      -8.396   4.203  66.118  1.00  0.00    -0.108 NA 
HETATM   17  C   UNL     1      -9.414   2.072  68.806  1.00  0.00    -0.127 C  
HETATM   18  N   UNL     1      -8.795   3.038  65.508  1.00  0.00    -0.131 NA 
HETATM   19  N   UNL     1      -9.211   2.150  66.402  1.00  0.00    -0.039 NA 
HETATM   20  N   UNL     1      -9.073   2.756  67.592  1.00  0.00    -0.164 NA 
ENDBRANCH  14  15
ENDBRANCH  13  14
ENDBRANCH   4  13
BRANCH   5  21
HETATM   21  O   UNL     1     -11.919  11.734  66.828  1.00  0.00    -0.584 OA 
HETATM   22  C   UNL     1     -11.659  13.128  66.896  1.00  0.00    -0.368 C  
ENDBRANCH   5  21
BRANCH   5  23
HETATM   23  N   UNL     1      -9.513  11.141  66.597  1.00  0.00    -0.179 N  
HETATM   24  C   UNL     1      -7.087  11.555  66.600  1.00  0.00    -0.069 C  
HETATM   25  C   UNL     1      -8.358  11.180  67.351  1.00  0.00    -0.135 C  
HETATM   26  O   UNL     1      -8.331  10.885  68.546  1.00  0.00    -0.127 OA 
HETATM   27  H   UNL     1      -9.461  11.320  65.595  1.00  0.00     0.000 HD 
HETATM   28  C   UNL     1      -5.997  12.145  67.484  1.00  0.00    -0.124 C  
HETATM   29  C   UNL     1      -6.547  10.413  65.741  1.00  0.00    -0.126 A  
HETATM   30  C   UNL     1      -5.797  10.709  64.587  1.00  0.00    -0.020 A  
HETATM   31  O   UNL     1      -5.130  12.890  67.038  1.00  0.00    -0.328 OA 
HETATM   32  O   UNL     1      -5.998  11.785  68.787  1.00  0.00    -0.047 OA 
HETATM   33  C   UNL     1      -5.338   9.689  63.747  1.00  0.00    -0.073 A  
HETATM   34  C   UNL     1      -5.621   8.366  64.061  1.00  0.00    -0.061 A  
HETATM   35  C   UNL     1      -6.306   8.047  65.226  1.00  0.00    -0.045 A  
HETATM   36  O   UNL     1      -5.244   7.342  63.246  1.00  0.00    -0.033 OA 
HETATM   37  H   UNL     1      -5.437   6.437  63.461  1.00  0.00     0.000 HD 
HETATM   38  C   UNL     1      -6.756   9.063  66.071  1.00  0.00    -0.076 A  
ENDBRANCH   5  23
TORSDOF 5
ENDMDL
MODEL      166
REMARK 921   NORMALIZED FREE ENERGY PREDICTED BY IDOCK:   -2.43 KCAL/MOL
REMARK 922        TOTAL FREE ENERGY PREDICTED BY IDOCK:   -4.49 KCAL/MOL
REMARK 923 INTER-LIGAND FREE ENERGY PREDICTED BY IDOCK:   -5.02 KCAL/MOL
REMARK 924 INTRA-LIGAND FREE ENERGY PREDICTED BY IDOCK:    0.53 KCAL/MOL
REMARK 927      BINDING AFFINITY PREDICTED BY RF-SCORE:    0.00 PKD
ROOT
HETATM    1  C   UNL     1     -11.398  10.983  65.637  1.00  0.00     0.301 C  
HETATM    2  O   UNL     1     -10.898   9.806  66.290  1.00  0.00     0.037 OA 
HETATM    3  C   UNL     1     -10.903   9.940  67.712  1.00  0.00    -0.264 C  
HETATM    4  C   UNL     1     -10.236  11.240  68.145  1.00  0.00    -0.196 C  
HETATM    5  C   UNL     1     -10.969  11.274  64.135  1.00  0.00    -0.305 C  
HETATM    6  C   UNL     1     -10.055  12.261  67.261  1.00  0.00    -0.204 C  
HETATM    7  N   UNL     1     -10.671  12.182  66.031  1.00  0.00    -0.264 N  
HETATM    8  C   UNL     1      -9.176  13.440  67.610  1.00  0.00    -0.212 C  
HETATM    9  O   UNL     1      -8.423  13.463  68.575  1.00  0.00    -0.153 OA 
HETATM   10  O   UNL     1      -9.284  14.520  66.812  1.00  0.00    -0.243 OA 
HETATM   11  O   UNL     1      -9.547  13.456  64.457  1.00  0.00     0.119 OA 
HETATM   12  C   UNL     1     -10.265  12.540  64.794  1.00  0.00    -0.280 C  
ENDROOT
BRANCH   4  13
HETATM   13  C   UNL     1      -9.727  11.164  69.574  1.00  0.00     0.322 C  
BRANCH  13  14
HETATM   14  S   UNL     1      -9.427   9.487  70.198  1.00  0.00    -0.256 SA 
BRANCH  14  15
HETATM   15  C   UNL     1      -7.833   9.560  70.836  1.00  0.00     0.028 A  
HETATM   16  N   UNL     1      -6.790  10.179  70.333  1.00  0.00    -0.217 NA 
HETATM   17  C   UNL     1      -8.223   8.144  72.904  1.00  0.00    -0.175 C  
HETATM   18  N   UNL     1      -5.746   9.902  71.183  1.00  0.00    -0.077 NA 
HETATM   19  N   UNL     1      -6.141   9.136  72.191  1.00  0.00    -0.226 NA 
HETATM   20  N   UNL     1      -7.451   8.927  71.983  1.00  0.00    -0.335 NA 
ENDBRANCH  14  15
ENDBRANCH  13  14
ENDBRANCH   4  13
BRANCH   5  21
HETATM   21  O   UNL     1     -12.053  11.625  63.233  1.00  0.00    -0.409 OA 
HETATM   22  C   UNL     1     -12.749  12.833  63.500  1.00  0.00    -0.115 C  
ENDBRANCH   5  21
BRANCH   5  23
HETATM   23  N   UNL     1     -10.003  10.262  63.596  1.00  0.00    -0.486 N  
HETATM   24  C   UNL     1      -7.792   9.220  63.304  1.00  0.00    -0.133 C  
HETATM   25  C   UNL     1      -8.675  10.266  63.972  1.00  0.00    -0.202 C  
HETATM   26  O   UNL     1      -8.228  11.029  64.829  1.00  0.00     0.061 OA 
HETATM   27  H   UNL     1     -10.333   9.556  62.939  1.00  0.00     0.000 HD 
HETATM   28  C   UNL     1      -6.316   9.589  63.268  1.00  0.00    -0.100 C  
HETATM   29  C   UNL     1      -8.000   7.818  63.874  1.00  0.00    -0.103 A  
HETATM   30  C   UNL     1      -7.759   6.696  63.057  1.00  0.00    -0.102 A  
HETATM   31  O   UNL     1      -5.552   9.133  62.424  1.00  0.00    -0.085 OA 
HETATM   32  O   UNL     1      -5.864  10.419  64.235  1.00  0.00    -0.140 OA 
HETATM   33  C   UNL     1      -7.996   5.401  63.528  1.00  0.00    -0.100 A  
HETATM   34  C   UNL     1      -8.468   5.220  64.821  1.00  0.00    -0.149 A  
HETATM   35  C   UNL     1      -8.654   6.306  65.665  1.00  0.00    -0.143 A  
HETATM   36  O   UNL     1      -8.766   3.982  65.306  1.00  0.00    -0.116 OA 
HETATM   37  H   UNL     1      -9.089   3.857  66.191  1.00  0.00     0.000 HD 
HETATM   38  C   UNL     1      -8.410   7.600  65.200  1.00  0.00    -0.100 A  
ENDBRANCH   5  23
TORSDOF 5
ENDMDL
MODEL      167
REMARK 921   NORMALIZED FREE ENERGY PREDICTED BY IDOCK:   -2.39 KCAL/MOL
REMARK 922        TOTAL FREE ENERGY PREDICTED BY IDOCK:   -4.43 KCAL/MOL
REMARK 923 INTER-LIGAND FREE ENERGY PREDICTED BY IDOCK:   -4.22 KCAL/MOL
REMARK 924 INTRA-LIGAND FREE ENERGY PREDICTED BY IDOCK:   -0.21 KCAL/MOL
REMARK 927      BINDING AFFINITY PREDICTED BY RF-SCORE:    0.00 PKD
ROOT
HETATM    1  C   UNL     1     -11.451  11.877  66.761  1.00  0.00    -0.316 C  
HETATM    2  O   UNL     1     -11.523  11.358  68.098  1.00  0.00    -0.267 OA 
HETATM    3  C   UNL     1     -12.149  12.276  68.996  1.00  0.00    -0.145 C  
HETATM    4  C   UNL     1     -11.532  13.664  68.885  1.00  0.00    -0.344 C  
HETATM    5  C   UNL     1     -10.342  11.314  65.773  1.00  0.00    -0.258 C  
HETATM    6  C   UNL     1     -10.788  14.013  67.797  1.00  0.00    -0.247 C  
HETATM    7  N   UNL     1     -10.780  13.169  66.708  1.00  0.00    -0.266 N  
HETATM    8  C   UNL     1      -9.968  15.283  67.796  1.00  0.00    -0.224 C  
HETATM    9  O   UNL     1      -9.745  15.948  68.799  1.00  0.00    -0.198 OA 
HETATM   10  O   UNL     1      -9.505  15.692  66.598  1.00  0.00    -0.230 OA 
HETATM   11  O   UNL     1      -8.856  13.454  65.452  1.00  0.00     0.995 OA 
HETATM   12  C   UNL     1      -9.799  12.808  65.853  1.00  0.00    -0.238 C  
ENDROOT
BRANCH   4  13
HETATM   13  C   UNL     1     -11.750  14.482  70.146  1.00  0.00    -0.297 C  
BRANCH  13  14
HETATM   14  S   UNL     1     -12.648  13.630  71.472  1.00  0.00    -0.242 SA 
BRANCH  14  15
HETATM   15  C   UNL     1     -13.084  14.890  72.555  1.00  0.00    -0.389 A  
HETATM   16  N   UNL     1     -14.106  15.709  72.472  1.00  0.00    -0.549 NA 
HETATM   17  C   UNL     1     -11.178  14.601  74.204  1.00  0.00     2.041 C  
HETATM   18  N   UNL     1     -13.993  16.559  73.546  1.00  0.00     0.026 NA 
HETATM   19  N   UNL     1     -12.928  16.262  74.279  1.00  0.00    -0.625 NA 
HETATM   20  N   UNL     1     -12.360  15.210  73.667  1.00  0.00    -0.524 NA 
ENDBRANCH  14  15
ENDBRANCH  13  14
ENDBRANCH   4  13
BRANCH   5  21
HETATM   21  O   UNL     1     -10.814  10.945  64.449  1.00  0.00    -0.299 OA 
HETATM   22  C   UNL     1     -10.249  11.639  63.346  1.00  0.00    -0.433 C  
ENDBRANCH   5  21
BRANCH   5  23
HETATM   23  N   UNL     1      -9.435  10.311  66.422  1.00  0.00    -0.168 N  
HETATM   24  C   UNL     1      -8.896   8.194  67.554  1.00  0.00    -0.137 C  
HETATM   25  C   UNL     1      -9.911   9.092  66.860  1.00  0.00    -0.238 C  
HETATM   26  O   UNL     1     -11.069   8.719  66.666  1.00  0.00     0.276 OA 
HETATM   27  H   UNL     1      -8.448  10.533  66.542  1.00  0.00     0.000 HD 
HETATM   28  C   UNL     1      -9.516   7.179  68.505  1.00  0.00    -0.139 C  
HETATM   29  C   UNL     1      -7.933   7.522  66.577  1.00  0.00    -0.107 A  
HETATM   30  C   UNL     1      -6.641   7.167  67.011  1.00  0.00    -0.059 A  
HETATM   31  O   UNL     1      -8.890   6.704  69.447  1.00  0.00    -0.134 OA 
HETATM   32  O   UNL     1     -10.784   6.788  68.248  1.00  0.00    -0.214 OA 
HETATM   33  C   UNL     1      -5.715   6.605  66.126  1.00  0.00    -0.025 A  
HETATM   34  C   UNL     1      -6.079   6.387  64.804  1.00  0.00    -0.030 A  
HETATM   35  C   UNL     1      -7.366   6.672  64.368  1.00  0.00    -0.087 A  
HETATM   36  O   UNL     1      -5.195   5.894  63.892  1.00  0.00    -0.016 OA 
HETATM   37  H   UNL     1      -5.443   5.745  62.987  1.00  0.00     0.000 HD 
HETATM   38  C   UNL     1      -8.295   7.225  65.252  1.00  0.00    -0.110 A  
ENDBRANCH   5  23
TORSDOF 5
ENDMDL
MODEL      168
REMARK 921   NORMALIZED FREE ENERGY PREDICTED BY IDOCK:   -2.37 KCAL/MOL
REMARK 922        TOTAL FREE ENERGY PREDICTED BY IDOCK:   -4.40 KCAL/MOL
REMARK 923 INTER-LIGAND FREE ENERGY PREDICTED BY IDOCK:   -2.99 KCAL/MOL
REMARK 924 INTRA-LIGAND FREE ENERGY PREDICTED BY IDOCK:   -1.42 KCAL/MOL
REMARK 927      BINDING AFFINITY PREDICTED BY RF-SCORE:    0.00 PKD
ROOT
HETATM    1  C   UNL     1      -9.798   6.426  68.535  1.00  0.00    -0.138 C  
HETATM    2  O   UNL     1      -8.407   6.153  68.769  1.00  0.00    -0.110 OA 
HETATM    3  C   UNL     1      -8.161   5.739  70.114  1.00  0.00    -0.116 C  
HETATM    4  C   UNL     1      -8.798   6.698  71.112  1.00  0.00    -0.137 C  
HETATM    5  C   UNL     1     -10.205   7.401  67.350  1.00  0.00    -0.246 C  
HETATM    6  C   UNL     1      -9.779   7.561  70.722  1.00  0.00    -0.174 C  
HETATM    7  N   UNL     1     -10.330   7.408  69.470  1.00  0.00    -0.211 N  
HETATM    8  C   UNL     1     -10.231   8.680  71.633  1.00  0.00    -0.295 C  
HETATM    9  O   UNL     1      -9.632   9.015  72.646  1.00  0.00    -0.103 OA 
HETATM   10  O   UNL     1     -11.383   9.293  71.297  1.00  0.00    -0.293 OA 
HETATM   11  O   UNL     1     -11.226   9.403  68.706  1.00  0.00    -0.020 OA 
HETATM   12  C   UNL     1     -10.738   8.306  68.546  1.00  0.00    -0.017 C  
ENDROOT
BRANCH   4  13
HETATM   13  C   UNL     1      -8.121   6.633  72.470  1.00  0.00    -0.102 C  
BRANCH  13  14
HETATM   14  S   UNL     1      -6.316   6.807  72.440  1.00  0.00    -0.053 SA 
BRANCH  14  15
HETATM   15  C   UNL     1      -6.063   8.505  72.363  1.00  0.00    -0.071 A  
HETATM   16  N   UNL     1      -5.801   9.328  73.351  1.00  0.00    -0.298 NA 
HETATM   17  C   UNL     1      -6.375   8.787  69.861  1.00  0.00    -0.037 C  
HETATM   18  N   UNL     1      -5.733  10.579  72.788  1.00  0.00     0.189 NA 
HETATM   19  N   UNL     1      -5.939  10.526  71.478  1.00  0.00    -0.299 NA 
HETATM   20  N   UNL     1      -6.138   9.225  71.206  1.00  0.00    -0.073 NA 
ENDBRANCH  14  15
ENDBRANCH  13  14
ENDBRANCH   4  13
BRANCH   5  21
HETATM   21  O   UNL     1     -11.263   6.919  66.479  1.00  0.00     0.053 OA 
HETATM   22  C   UNL     1     -11.074   5.646  65.878  1.00  0.00     0.699 C  
ENDBRANCH   5  21
BRANCH   5  23
HETATM   23  N   UNL     1      -9.020   7.984  66.639  1.00  0.00    -0.142 N  
HETATM   24  C   UNL     1      -7.885   9.266  64.871  1.00  0.00    -0.116 C  
HETATM   25  C   UNL     1      -9.173   8.791  65.531  1.00  0.00    -0.137 C  
HETATM   26  O   UNL     1     -10.275   9.153  65.117  1.00  0.00     0.482 OA 
HETATM   27  H   UNL     1      -8.081   7.780  66.982  1.00  0.00     0.000 HD 
HETATM   28  C   UNL     1      -8.040   9.632  63.402  1.00  0.00    -0.151 C  
HETATM   29  C   UNL     1      -7.197  10.385  65.652  1.00  0.00    -0.146 A  
HETATM   30  C   UNL     1      -5.800  10.535  65.561  1.00  0.00    -0.131 A  
HETATM   31  O   UNL     1      -7.096   9.597  62.620  1.00  0.00    -0.102 OA 
HETATM   32  O   UNL     1      -9.264  10.036  62.993  1.00  0.00    -0.262 OA 
HETATM   33  C   UNL     1      -5.133  11.511  66.308  1.00  0.00    -0.031 A  
HETATM   34  C   UNL     1      -5.860  12.347  67.144  1.00  0.00    -0.070 A  
HETATM   35  C   UNL     1      -7.244  12.259  67.204  1.00  0.00    -0.100 A  
HETATM   36  O   UNL     1      -5.249  13.275  67.933  1.00  0.00    -0.100 OA 
HETATM   37  H   UNL     1      -5.747  13.848  68.505  1.00  0.00     0.000 HD 
HETATM   38  C   UNL     1      -7.913  11.291  66.452  1.00  0.00    -0.125 A  
ENDBRANCH   5  23
TORSDOF 5
ENDMDL
MODEL      169
REMARK 921   NORMALIZED FREE ENERGY PREDICTED BY IDOCK:   -2.17 KCAL/MOL
REMARK 922        TOTAL FREE ENERGY PREDICTED BY IDOCK:   -4.15 KCAL/MOL
REMARK 923 INTER-LIGAND FREE ENERGY PREDICTED BY IDOCK:   -4.16 KCAL/MOL
REMARK 924 INTRA-LIGAND FREE ENERGY PREDICTED BY IDOCK:    0.02 KCAL/MOL
REMARK 927      BINDING AFFINITY PREDICTED BY RF-SCORE:    0.00 PKD
ROOT
HETATM    1  C   UNL     1      -8.043  15.208  68.647  1.00  0.00    -0.154 C  
HETATM    2  O   UNL     1      -6.678  14.817  68.434  1.00  0.00    -0.091 OA 
HETATM    3  C   UNL     1      -5.812  15.945  68.297  1.00  0.00    -0.110 C  
HETATM    4  C   UNL     1      -6.357  16.937  67.277  1.00  0.00    -0.203 C  
HETATM    5  C   UNL     1      -9.205  14.193  68.269  1.00  0.00    -0.198 C  
HETATM    6  C   UNL     1      -7.665  16.899  66.895  1.00  0.00    -0.217 C  
HETATM    7  N   UNL     1      -8.532  16.092  67.598  1.00  0.00    -0.156 N  
HETATM    8  C   UNL     1      -8.149  17.702  65.709  1.00  0.00     0.168 C  
HETATM    9  O   UNL     1      -7.401  18.246  64.908  1.00  0.00     0.454 OA 
HETATM   10  O   UNL     1      -9.483  17.833  65.582  1.00  0.00    -0.440 OA 
HETATM   11  O   UNL     1     -10.349  15.490  66.295  1.00  0.00    -0.278 OA 
HETATM   12  C   UNL     1      -9.568  15.319  67.204  1.00  0.00    -0.217 C  
ENDROOT
BRANCH   4  13
HETATM   13  C   UNL     1      -5.260  17.816  66.701  1.00  0.00    -0.154 C  
BRANCH  13  14
HETATM   14  S   UNL     1      -5.347  19.565  67.176  1.00  0.00    -0.160 SA 
BRANCH  14  15
HETATM   15  C   UNL     1      -6.332  19.565  68.583  1.00  0.00    -0.254 A  
HETATM   16  N   UNL     1      -5.995  19.223  69.805  1.00  0.00    -0.256 NA 
HETATM   17  C   UNL     1      -8.477  20.382  67.502  1.00  0.00    -0.278 C  
HETATM   18  N   UNL     1      -7.138  19.349  70.558  1.00  0.00     0.555 NA 
HETATM   19  N   UNL     1      -8.154  19.770  69.816  1.00  0.00     0.352 NA 
HETATM   20  N   UNL     1      -7.651  19.915  68.579  1.00  0.00    -0.291 NA 
ENDBRANCH  14  15
ENDBRANCH  13  14
ENDBRANCH   4  13
BRANCH   5  21
HETATM   21  O   UNL     1     -10.230  14.010  69.283  1.00  0.00    -0.079 OA 
HETATM   22  C   UNL     1     -11.195  15.043  69.418  1.00  0.00    -0.284 C  
ENDBRANCH   5  21
BRANCH   5  23
HETATM   23  N   UNL     1      -8.696  12.924  67.651  1.00  0.00    -0.173 N  
HETATM   24  C   UNL     1      -7.390  10.840  67.589  1.00  0.00    -0.094 C  
HETATM   25  C   UNL     1      -7.883  12.059  68.355  1.00  0.00    -0.147 C  
HETATM   26  O   UNL     1      -7.606  12.224  69.544  1.00  0.00     0.334 OA 
HETATM   27  H   UNL     1      -8.954  12.696  66.692  1.00  0.00     0.000 HD 
HETATM   28  C   UNL     1      -6.100  10.244  68.136  1.00  0.00    -0.047 C  
HETATM   29  C   UNL     1      -8.467   9.769  67.420  1.00  0.00    -0.121 A  
HETATM   30  C   UNL     1      -8.416   8.905  66.310  1.00  0.00    -0.129 A  
HETATM   31  O   UNL     1      -5.338   9.587  67.435  1.00  0.00    -0.036 OA 
HETATM   32  O   UNL     1      -5.841  10.438  69.449  1.00  0.00    -0.037 OA 
HETATM   33  C   UNL     1      -9.418   7.954  66.094  1.00  0.00    -0.158 A  
HETATM   34  C   UNL     1     -10.473   7.857  66.992  1.00  0.00    -0.349 A  
HETATM   35  C   UNL     1     -10.513   8.656  68.126  1.00  0.00    -0.241 A  
HETATM   36  O   UNL     1     -11.501   6.984  66.795  1.00  0.00    -0.529 OA 
HETATM   37  H   UNL     1     -12.223   6.918  67.409  1.00  0.00     0.000 HD 
HETATM   38  C   UNL     1      -9.508   9.601  68.348  1.00  0.00    -0.143 A  
ENDBRANCH   5  23
TORSDOF 5
ENDMDL
MODEL      170
REMARK 921   NORMALIZED FREE ENERGY PREDICTED BY IDOCK:   -2.06 KCAL/MOL
REMARK 922        TOTAL FREE ENERGY PREDICTED BY IDOCK:   -4.00 KCAL/MOL
REMARK 923 INTER-LIGAND FREE ENERGY PREDICTED BY IDOCK:   -5.35 KCAL/MOL
REMARK 924 INTRA-LIGAND FREE ENERGY PREDICTED BY IDOCK:    1.35 KCAL/MOL
REMARK 927      BINDING AFFINITY PREDICTED BY RF-SCORE:    0.00 PKD
ROOT
HETATM    1  C   UNL     1      -7.450  11.931  67.618  1.00  0.00    -0.127 C  
HETATM    2  O   UNL     1      -7.314  11.251  68.875  1.00  0.00    -0.101 OA 
HETATM    3  C   UNL     1      -6.628  10.005  68.740  1.00  0.00    -0.049 C  
HETATM    4  C   UNL     1      -7.232   9.163  67.623  1.00  0.00    -0.083 C  
HETATM    5  C   UNL     1      -8.617  12.993  67.436  1.00  0.00    -0.199 C  
HETATM    6  C   UNL     1      -8.027   9.730  66.672  1.00  0.00    -0.112 C  
HETATM    7  N   UNL     1      -8.104  11.103  66.614  1.00  0.00    -0.154 N  
HETATM    8  C   UNL     1      -8.828   8.870  65.721  1.00  0.00    -0.186 C  
HETATM    9  O   UNL     1      -8.989   7.665  65.866  1.00  0.00    -0.166 OA 
HETATM   10  O   UNL     1      -9.348   9.495  64.647  1.00  0.00    -0.240 OA 
HETATM   11  O   UNL     1     -10.088  11.782  65.631  1.00  0.00    -0.227 OA 
HETATM   12  C   UNL     1      -9.134  11.940  66.360  1.00  0.00    -0.208 C  
ENDROOT
BRANCH   4  13
HETATM   13  C   UNL     1      -6.936   7.684  67.807  1.00  0.00    -0.077 C  
BRANCH  13  14
HETATM   14  S   UNL     1      -8.214   6.747  68.690  1.00  0.00    -0.121 SA 
BRANCH  14  15
HETATM   15  C   UNL     1      -8.467   7.647  70.132  1.00  0.00    -0.138 A  
HETATM   16  N   UNL     1      -7.573   8.272  70.861  1.00  0.00    -0.071 NA 
HETATM   17  C   UNL     1     -10.978   7.323  70.303  1.00  0.00    -0.260 C  
HETATM   18  N   UNL     1      -8.261   8.798  71.928  1.00  0.00    -0.344 NA 
HETATM   19  N   UNL     1      -9.554   8.510  71.851  1.00  0.00    -0.256 NA 
HETATM   20  N   UNL     1      -9.689   7.795  70.721  1.00  0.00    -0.173 NA 
ENDBRANCH  14  15
ENDBRANCH  13  14
ENDBRANCH   4  13
BRANCH   5  21
HETATM   21  O   UNL     1      -8.221  14.263  66.852  1.00  0.00    -0.145 OA 
HETATM   22  C   UNL     1      -9.259  15.099  66.361  1.00  0.00    -0.300 C  
ENDBRANCH   5  21
BRANCH   5  23
HETATM   23  N   UNL     1      -9.502  13.102  68.643  1.00  0.00    -0.401 N  
HETATM   24  C   UNL     1     -11.485  13.841  69.897  1.00  0.00    -0.230 C  
HETATM   25  C   UNL     1     -10.716  13.753  68.585  1.00  0.00    -0.256 C  
HETATM   26  O   UNL     1     -11.186  14.198  67.537  1.00  0.00    -0.285 OA 
HETATM   27  H   UNL     1      -9.200  12.686  69.523  1.00  0.00     0.000 HD 
HETATM   28  C   UNL     1     -12.470  15.000  69.960  1.00  0.00    -0.275 C  
HETATM   29  C   UNL     1     -12.155  12.523  70.281  1.00  0.00    -0.373 A  
HETATM   30  C   UNL     1     -12.382  12.232  71.640  1.00  0.00     0.181 A  
HETATM   31  O   UNL     1     -12.828  15.492  71.026  1.00  0.00    -0.437 OA 
HETATM   32  O   UNL     1     -12.970  15.449  68.787  1.00  0.00     0.779 OA 
HETATM   33  C   UNL     1     -12.938  11.010  72.030  1.00  0.00    -0.398 A  
HETATM   34  C   UNL     1     -13.278  10.074  71.061  1.00  0.00    -0.325 A  
HETATM   35  C   UNL     1     -13.121  10.363  69.712  1.00  0.00     0.591 A  
HETATM   36  O   UNL     1     -13.771   8.848  71.394  1.00  0.00    -0.481 OA 
HETATM   37  H   UNL     1     -14.004   8.208  70.732  1.00  0.00     0.000 HD 
HETATM   38  C   UNL     1     -12.574  11.587  69.321  1.00  0.00     0.295 A  
ENDBRANCH   5  23
TORSDOF 5
ENDMDL
MODEL      171
REMARK 921   NORMALIZED FREE ENERGY PREDICTED BY IDOCK:   -2.05 KCAL/MOL
REMARK 922        TOTAL FREE ENERGY PREDICTED BY IDOCK:   -4.00 KCAL/MOL
REMARK 923 INTER-LIGAND FREE ENERGY PREDICTED BY IDOCK:   -3.92 KCAL/MOL
REMARK 924 INTRA-LIGAND FREE ENERGY PREDICTED BY IDOCK:   -0.08 KCAL/MOL
REMARK 927      BINDING AFFINITY PREDICTED BY RF-SCORE:    0.00 PKD
ROOT
HETATM    1  C   UNL     1     -10.528   8.816  69.661  1.00  0.00    -0.220 C  
HETATM    2  O   UNL     1      -9.387   9.455  70.254  1.00  0.00    -0.215 OA 
HETATM    3  C   UNL     1      -9.155  10.753  69.705  1.00  0.00     0.288 C  
HETATM    4  C   UNL     1      -9.142  10.713  68.182  1.00  0.00    -0.148 C  
HETATM    5  C   UNL     1     -10.629   7.230  69.694  1.00  0.00    -0.235 C  
HETATM    6  C   UNL     1      -9.682   9.659  67.506  1.00  0.00    -0.158 C  
HETATM    7  N   UNL     1     -10.423   8.737  68.211  1.00  0.00    -0.210 N  
HETATM    8  C   UNL     1      -9.448   9.490  66.022  1.00  0.00    -0.233 C  
HETATM    9  O   UNL     1      -8.620  10.130  65.388  1.00  0.00    -0.141 OA 
HETATM   10  O   UNL     1     -10.242   8.603  65.392  1.00  0.00     0.758 OA 
HETATM   11  O   UNL     1     -10.439   6.687  67.133  1.00  0.00    -0.215 OA 
HETATM   12  C   UNL     1     -10.520   7.392  68.114  1.00  0.00    -0.193 C  
ENDROOT
BRANCH   4  13
HETATM   13  C   UNL     1      -8.372  11.882  67.592  1.00  0.00    -0.152 C  
BRANCH  13  14
HETATM   14  S   UNL     1      -9.119  13.513  67.864  1.00  0.00    -0.213 SA 
BRANCH  14  15
HETATM   15  C   UNL     1      -7.809  14.607  67.666  1.00  0.00    -0.181 A  
HETATM   16  N   UNL     1      -7.647  15.512  66.730  1.00  0.00    -0.120 NA 
HETATM   17  C   UNL     1      -6.436  13.866  69.667  1.00  0.00    -0.108 C  
HETATM   18  N   UNL     1      -6.428  16.095  66.979  1.00  0.00    -0.287 NA 
HETATM   19  N   UNL     1      -5.855  15.564  68.052  1.00  0.00    -0.126 NA 
HETATM   20  N   UNL     1      -6.722  14.637  68.491  1.00  0.00    -0.092 NA 
ENDBRANCH  14  15
ENDBRANCH  13  14
ENDBRANCH   4  13
BRANCH   5  21
HETATM   21  O   UNL     1     -11.908   6.695  70.129  1.00  0.00    -0.389 OA 
HETATM   22  C   UNL     1     -12.641   7.462  71.073  1.00  0.00    -0.226 C  
ENDBRANCH   5  21
BRANCH   5  23
HETATM   23  N   UNL     1      -9.429   6.581  70.315  1.00  0.00    -0.162 N  
HETATM   24  C   UNL     1      -8.262   4.992  71.788  1.00  0.00    -0.116 C  
HETATM   25  C   UNL     1      -9.558   5.517  71.184  1.00  0.00    -0.162 C  
HETATM   26  O   UNL     1     -10.640   4.983  71.429  1.00  0.00    -0.183 OA 
HETATM   27  H   UNL     1      -8.498   6.932  70.091  1.00  0.00     0.000 HD 
HETATM   28  C   UNL     1      -8.446   4.266  73.113  1.00  0.00    -0.090 C  
HETATM   29  C   UNL     1      -7.447   4.153  70.805  1.00  0.00    -0.047 A  
HETATM   30  C   UNL     1      -6.047   4.089  70.943  1.00  0.00    -0.015 A  
HETATM   31  O   UNL     1      -7.542   4.177  73.937  1.00  0.00    -0.077 OA 
HETATM   32  O   UNL     1      -9.646   3.684  73.335  1.00  0.00    -0.106 OA 
HETATM   33  C   UNL     1      -5.266   3.380  70.025  1.00  0.00    -0.008 A  
HETATM   34  C   UNL     1      -5.882   2.723  68.968  1.00  0.00    -0.023 A  
HETATM   35  C   UNL     1      -7.265   2.720  68.846  1.00  0.00    -0.048 A  
HETATM   36  O   UNL     1      -5.160   2.065  68.018  1.00  0.00    -0.010 OA 
HETATM   37  H   UNL     1      -5.581   1.615  67.295  1.00  0.00     0.000 HD 
HETATM   38  C   UNL     1      -8.047   3.421  69.766  1.00  0.00    -0.060 A  
ENDBRANCH   5  23
TORSDOF 5
ENDMDL
MODEL      172
REMARK 921   NORMALIZED FREE ENERGY PREDICTED BY IDOCK:   -1.97 KCAL/MOL
REMARK 922        TOTAL FREE ENERGY PREDICTED BY IDOCK:   -3.89 KCAL/MOL
REMARK 923 INTER-LIGAND FREE ENERGY PREDICTED BY IDOCK:   -4.04 KCAL/MOL
REMARK 924 INTRA-LIGAND FREE ENERGY PREDICTED BY IDOCK:    0.16 KCAL/MOL
REMARK 927      BINDING AFFINITY PREDICTED BY RF-SCORE:    0.00 PKD
ROOT
HETATM    1  C   UNL     1     -11.326   9.592  67.435  1.00  0.00     0.714 C  
HETATM    2  O   UNL     1     -10.437   8.652  66.813  1.00  0.00    -0.291 OA 
HETATM    3  C   UNL     1     -10.608   7.330  67.327  1.00  0.00    -0.325 C  
HETATM    4  C   UNL     1     -10.577   7.323  68.850  1.00  0.00    -0.207 C  
HETATM    5  C   UNL     1     -10.939  11.133  67.443  1.00  0.00    -0.290 C  
HETATM    6  C   UNL     1     -10.767   8.472  69.558  1.00  0.00    -0.174 C  
HETATM    7  N   UNL     1     -11.195   9.595  68.886  1.00  0.00    -0.051 N  
HETATM    8  C   UNL     1     -10.486   8.521  71.043  1.00  0.00    -0.212 C  
HETATM    9  O   UNL     1      -9.889   7.642  71.650  1.00  0.00    -0.161 OA 
HETATM   10  O   UNL     1     -10.969   9.590  71.705  1.00  0.00    -0.333 OA 
HETATM   11  O   UNL     1     -10.581  11.523  70.014  1.00  0.00     0.305 OA 
HETATM   12  C   UNL     1     -10.878  10.902  69.017  1.00  0.00    -0.230 C  
ENDROOT
BRANCH   4  13
HETATM   13  C   UNL     1     -10.197   5.959  69.401  1.00  0.00    -0.221 C  
BRANCH  13  14
HETATM   14  S   UNL     1      -8.693   5.234  68.691  1.00  0.00    -0.093 SA 
BRANCH  14  15
HETATM   15  C   UNL     1      -7.512   5.441  69.922  1.00  0.00    -0.069 A  
HETATM   16  N   UNL     1      -7.498   4.915  71.125  1.00  0.00    -0.071 NA 
HETATM   17  C   UNL     1      -5.968   7.009  68.659  1.00  0.00    -0.022 C  
HETATM   18  N   UNL     1      -6.377   5.417  71.740  1.00  0.00    -0.037 NA 
HETATM   19  N   UNL     1      -5.710   6.229  70.930  1.00  0.00    -0.022 NA 
HETATM   20  N   UNL     1      -6.414   6.239  69.785  1.00  0.00    -0.041 NA 
ENDBRANCH  14  15
ENDBRANCH  13  14
ENDBRANCH   4  13
BRANCH   5  21
HETATM   21  O   UNL     1     -11.996  12.044  67.038  1.00  0.00    -0.609 OA 
HETATM   22  C   UNL     1     -11.605  13.207  66.322  1.00  0.00    -0.356 C  
ENDBRANCH   5  21
BRANCH   5  23
HETATM   23  N   UNL     1      -9.601  11.403  66.823  1.00  0.00    -0.185 N  
HETATM   24  C   UNL     1      -7.156  11.685  66.824  1.00  0.00    -0.083 C  
HETATM   25  C   UNL     1      -8.439  11.329  67.563  1.00  0.00    -0.131 C  
HETATM   26  O   UNL     1      -8.418  10.953  68.736  1.00  0.00    -0.142 OA 
HETATM   27  H   UNL     1      -9.548  11.646  65.834  1.00  0.00     0.000 HD 
HETATM   28  C   UNL     1      -6.028  12.156  67.732  1.00  0.00    -0.090 C  
HETATM   29  C   UNL     1      -6.686  10.576  65.884  1.00  0.00    -0.130 A  
HETATM   30  C   UNL     1      -5.931  10.909  64.743  1.00  0.00     0.219 A  
HETATM   31  O   UNL     1      -5.127  12.881  67.326  1.00  0.00    -0.307 OA 
HETATM   32  O   UNL     1      -6.038  11.709  69.008  1.00  0.00    -0.050 OA 
HETATM   33  C   UNL     1      -5.536   9.925  63.832  1.00  0.00    -0.093 A  
HETATM   34  C   UNL     1      -5.886   8.601  64.061  1.00  0.00    -0.070 A  
HETATM   35  C   UNL     1      -6.578   8.240  65.210  1.00  0.00    -0.052 A  
HETATM   36  O   UNL     1      -5.572   7.615  63.174  1.00  0.00    -0.048 OA 
HETATM   37  H   UNL     1      -5.812   6.709  63.331  1.00  0.00     0.000 HD 
HETATM   38  C   UNL     1      -6.965   9.220  66.125  1.00  0.00    -0.086 A  
ENDBRANCH   5  23
TORSDOF 5
ENDMDL
MODEL      173
REMARK 921   NORMALIZED FREE ENERGY PREDICTED BY IDOCK:   -1.93 KCAL/MOL
REMARK 922        TOTAL FREE ENERGY PREDICTED BY IDOCK:   -3.84 KCAL/MOL
REMARK 923 INTER-LIGAND FREE ENERGY PREDICTED BY IDOCK:   -5.53 KCAL/MOL
REMARK 924 INTRA-LIGAND FREE ENERGY PREDICTED BY IDOCK:    1.69 KCAL/MOL
REMARK 927      BINDING AFFINITY PREDICTED BY RF-SCORE:    0.00 PKD
ROOT
HETATM    1  C   UNL     1      -8.420   6.453  68.144  1.00  0.00    -0.115 C  
HETATM    2  O   UNL     1      -8.390   7.355  69.261  1.00  0.00    -0.129 OA 
HETATM    3  C   UNL     1      -7.058   7.601  69.715  1.00  0.00    -0.067 C  
HETATM    4  C   UNL     1      -6.298   6.298  69.928  1.00  0.00    -0.035 C  
HETATM    5  C   UNL     1      -9.744   5.624  67.856  1.00  0.00    -0.125 C  
HETATM    6  C   UNL     1      -6.734   5.136  69.366  1.00  0.00    -0.052 C  
HETATM    7  N   UNL     1      -7.746   5.195  68.435  1.00  0.00    -0.079 N  
HETATM    8  C   UNL     1      -6.139   3.808  69.777  1.00  0.00    -0.023 C  
HETATM    9  O   UNL     1      -5.414   3.661  70.752  1.00  0.00    -0.011 OA 
HETATM   10  O   UNL     1      -6.416   2.759  68.978  1.00  0.00    -0.029 OA 
HETATM   11  O   UNL     1      -8.893   3.186  68.326  1.00  0.00    -0.097 OA 
HETATM   12  C   UNL     1      -8.802   4.387  68.196  1.00  0.00    -0.109 C  
ENDROOT
BRANCH   4  13
HETATM   13  C   UNL     1      -5.144   6.469  70.902  1.00  0.00    -0.018 C  
BRANCH  13  14
HETATM   14  S   UNL     1      -5.449   5.838  72.575  1.00  0.00    -0.027 SA 
BRANCH  14  15
HETATM   15  C   UNL     1      -6.670   6.876  73.194  1.00  0.00    -0.070 A  
HETATM   16  N   UNL     1      -7.893   6.561  73.551  1.00  0.00    -0.092 NA 
HETATM   17  C   UNL     1      -5.343   9.038  73.144  1.00  0.00    -0.084 C  
HETATM   18  N   UNL     1      -8.487   7.740  73.932  1.00  0.00    -0.221 NA 
HETATM   19  N   UNL     1      -7.644   8.758  73.821  1.00  0.00    -0.401 NA 
HETATM   20  N   UNL     1      -6.500   8.219  73.367  1.00  0.00    -0.107 NA 
ENDBRANCH  14  15
ENDBRANCH  13  14
ENDBRANCH   4  13
BRANCH   5  21
HETATM   21  O   UNL     1     -10.201   5.636  66.477  1.00  0.00    -0.193 OA 
HETATM   22  C   UNL     1      -9.203   5.649  65.467  1.00  0.00    -0.006 C  
ENDBRANCH   5  21
BRANCH   5  23
HETATM   23  N   UNL     1     -10.816   5.861  68.878  1.00  0.00    -0.311 N  
HETATM   24  C   UNL     1     -11.773   5.883  71.145  1.00  0.00     0.068 C  
HETATM   25  C   UNL     1     -10.581   5.663  70.223  1.00  0.00    -0.300 C  
HETATM   26  O   UNL     1      -9.470   5.375  70.671  1.00  0.00    -0.156 OA 
HETATM   27  H   UNL     1     -11.737   6.174  68.573  1.00  0.00     0.000 HD 
HETATM   28  C   UNL     1     -11.680   5.133  72.467  1.00  0.00     0.041 C  
HETATM   29  C   UNL     1     -12.086   7.361  71.367  1.00  0.00    -0.357 A  
HETATM   30  C   UNL     1     -13.406   7.753  71.661  1.00  0.00    -0.386 A  
HETATM   31  O   UNL     1     -12.677   4.826  73.112  1.00  0.00     0.263 OA 
HETATM   32  O   UNL     1     -10.441   4.848  72.927  1.00  0.00    -0.183 OA 
HETATM   33  C   UNL     1     -13.739   9.103  71.811  1.00  0.00    -0.465 A  
HETATM   34  C   UNL     1     -12.750  10.069  71.676  1.00  0.00    -0.435 A  
HETATM   35  C   UNL     1     -11.430   9.704  71.447  1.00  0.00    -0.455 A  
HETATM   36  O   UNL     1     -13.035  11.399  71.758  1.00  0.00    -0.459 OA 
HETATM   37  H   UNL     1     -12.359  12.060  71.665  1.00  0.00     0.000 HD 
HETATM   38  C   UNL     1     -11.095   8.356  71.305  1.00  0.00    -0.307 A  
ENDBRANCH   5  23
TORSDOF 5
ENDMDL
MODEL      174
REMARK 921   NORMALIZED FREE ENERGY PREDICTED BY IDOCK:   -1.83 KCAL/MOL
REMARK 922        TOTAL FREE ENERGY PREDICTED BY IDOCK:   -3.70 KCAL/MOL
REMARK 923 INTER-LIGAND FREE ENERGY PREDICTED BY IDOCK:   -2.82 KCAL/MOL
REMARK 924 INTRA-LIGAND FREE ENERGY PREDICTED BY IDOCK:   -0.89 KCAL/MOL
REMARK 927      BINDING AFFINITY PREDICTED BY RF-SCORE:    0.00 PKD
ROOT
HETATM    1  C   UNL     1      -9.078   4.050  69.225  1.00  0.00    -0.131 C  
HETATM    2  O   UNL     1      -9.806   4.281  68.009  1.00  0.00    -0.131 OA 
HETATM    3  C   UNL     1      -9.095   3.814  66.861  1.00  0.00    -0.161 C  
HETATM    4  C   UNL     1      -7.662   4.330  66.853  1.00  0.00    -0.093 C  
HETATM    5  C   UNL     1      -9.388   4.954  70.494  1.00  0.00    -0.154 C  
HETATM    6  C   UNL     1      -7.087   4.813  67.991  1.00  0.00    -0.062 C  
HETATM    7  N   UNL     1      -7.745   4.634  69.187  1.00  0.00    -0.066 N  
HETATM    8  C   UNL     1      -5.771   5.555  67.937  1.00  0.00    -0.013 C  
HETATM    9  O   UNL     1      -5.256   5.951  66.899  1.00  0.00    -0.005 OA 
HETATM   10  O   UNL     1      -5.142   5.739  69.114  1.00  0.00    -0.003 OA 
HETATM   11  O   UNL     1      -7.111   6.239  70.732  1.00  0.00    -0.065 OA 
HETATM   12  C   UNL     1      -7.886   5.431  70.268  1.00  0.00    -0.084 C  
ENDROOT
BRANCH   4  13
HETATM   13  C   UNL     1      -7.073   4.341  65.453  1.00  0.00    -0.063 C  
BRANCH  13  14
HETATM   14  S   UNL     1      -8.202   4.898  64.147  1.00  0.00    -0.127 SA 
BRANCH  14  15
HETATM   15  C   UNL     1      -8.777   3.439  63.445  1.00  0.00    -0.093 A  
HETATM   16  N   UNL     1      -8.076   2.402  63.050  1.00  0.00    -0.068 NA 
HETATM   17  C   UNL     1     -11.250   4.006  63.448  1.00  0.00     0.445 C  
HETATM   18  N   UNL     1      -8.983   1.517  62.519  1.00  0.00    -0.071 NA 
HETATM   19  N   UNL     1     -10.218   1.996  62.595  1.00  0.00    -0.097 NA 
HETATM   20  N   UNL     1     -10.094   3.197  63.183  1.00  0.00    -0.123 NA 
ENDBRANCH  14  15
ENDBRANCH  13  14
ENDBRANCH   4  13
BRANCH   5  21
HETATM   21  O   UNL     1      -9.580   4.234  71.741  1.00  0.00    -0.137 OA 
HETATM   22  C   UNL     1      -9.807   2.835  71.650  1.00  0.00    -0.141 C  
ENDBRANCH   5  21
BRANCH   5  23
HETATM   23  N   UNL     1     -10.404   6.021  70.218  1.00  0.00    -0.206 N  
HETATM   24  C   UNL     1     -11.925   7.863  70.811  1.00  0.00    -0.146 C  
HETATM   25  C   UNL     1     -10.848   6.864  71.216  1.00  0.00    -0.234 C  
HETATM   26  O   UNL     1     -10.377   6.857  72.354  1.00  0.00    -0.196 OA 
HETATM   27  H   UNL     1     -10.776   6.125  69.275  1.00  0.00     0.000 HD 
HETATM   28  C   UNL     1     -12.783   8.351  71.970  1.00  0.00    -0.360 C  
HETATM   29  C   UNL     1     -11.374   9.033  69.999  1.00  0.00    -0.072 A  
HETATM   30  C   UNL     1     -12.210   9.691  69.077  1.00  0.00     1.396 A  
HETATM   31  O   UNL     1     -13.923   8.772  71.803  1.00  0.00    -0.397 OA 
HETATM   32  O   UNL     1     -12.223   8.336  73.200  1.00  0.00    -0.123 OA 
HETATM   33  C   UNL     1     -11.721  10.727  68.275  1.00  0.00    -0.205 A  
HETATM   34  C   UNL     1     -10.393  11.116  68.395  1.00  0.00    -0.186 A  
HETATM   35  C   UNL     1      -9.565  10.523  69.340  1.00  0.00    -0.170 A  
HETATM   36  O   UNL     1      -9.856  12.081  67.598  1.00  0.00    -0.184 OA 
HETATM   37  H   UNL     1      -8.948  12.347  67.680  1.00  0.00     0.000 HD 
HETATM   38  C   UNL     1     -10.055   9.494  70.147  1.00  0.00    -0.293 A  
ENDBRANCH   5  23
TORSDOF 5
ENDMDL
MODEL      175
REMARK 921   NORMALIZED FREE ENERGY PREDICTED BY IDOCK:   -1.68 KCAL/MOL
REMARK 922        TOTAL FREE ENERGY PREDICTED BY IDOCK:   -3.52 KCAL/MOL
REMARK 923 INTER-LIGAND FREE ENERGY PREDICTED BY IDOCK:   -3.36 KCAL/MOL
REMARK 924 INTRA-LIGAND FREE ENERGY PREDICTED BY IDOCK:   -0.16 KCAL/MOL
REMARK 927      BINDING AFFINITY PREDICTED BY RF-SCORE:    0.00 PKD
ROOT
HETATM    1  C   UNL     1      -8.146  13.000  69.327  1.00  0.00     0.688 C  
HETATM    2  O   UNL     1      -9.425  12.422  69.024  1.00  0.00     0.152 OA 
HETATM    3  C   UNL     1      -9.359  10.998  68.924  1.00  0.00    -0.145 C  
HETATM    4  C   UNL     1      -8.229  10.561  68.001  1.00  0.00    -0.112 C  
HETATM    5  C   UNL     1      -7.870  14.514  68.935  1.00  0.00    -0.134 C  
HETATM    6  C   UNL     1      -7.220  11.419  67.679  1.00  0.00    -0.097 C  
HETATM    7  N   UNL     1      -7.124  12.609  68.365  1.00  0.00    -0.093 N  
HETATM    8  C   UNL     1      -6.243  11.084  66.574  1.00  0.00    -0.133 C  
HETATM    9  O   UNL     1      -6.407  10.169  65.778  1.00  0.00    -0.086 OA 
HETATM   10  O   UNL     1      -5.126  11.834  66.519  1.00  0.00    -0.260 OA 
HETATM   11  O   UNL     1      -6.010  14.204  67.109  1.00  0.00    -0.195 OA 
HETATM   12  C   UNL     1      -6.790  13.856  67.967  1.00  0.00    -0.144 C  
ENDROOT
BRANCH   4  13
HETATM   13  C   UNL     1      -8.465   9.171  67.436  1.00  0.00    -0.115 C  
BRANCH  13  14
HETATM   14  S   UNL     1      -9.150   7.969  68.610  1.00  0.00    -0.139 SA 
BRANCH  14  15
HETATM   15  C   UNL     1      -8.311   6.514  68.250  1.00  0.00    -0.117 A  
HETATM   16  N   UNL     1      -7.168   6.375  67.620  1.00  0.00    -0.084 NA 
HETATM   17  C   UNL     1      -9.968   4.895  69.284  1.00  0.00    -0.199 C  
HETATM   18  N   UNL     1      -6.944   5.021  67.543  1.00  0.00    -0.060 NA 
HETATM   19  N   UNL     1      -7.926   4.342  68.122  1.00  0.00    -0.078 NA 
HETATM   20  N   UNL     1      -8.780   5.274  68.575  1.00  0.00    -0.098 NA 
ENDBRANCH  14  15
ENDBRANCH  13  14
ENDBRANCH   4  13
BRANCH   5  21
HETATM   21  O   UNL     1      -7.281  15.333  69.980  1.00  0.00    -0.140 OA 
HETATM   22  C   UNL     1      -6.013  15.912  69.709  1.00  0.00    -0.163 C  
ENDBRANCH   5  21
BRANCH   5  23
HETATM   23  N   UNL     1      -9.019  15.148  68.209  1.00  0.00    -0.170 N  
HETATM   24  C   UNL     1     -10.067  16.688  66.600  1.00  0.00    -0.305 C  
HETATM   25  C   UNL     1      -8.812  16.080  67.213  1.00  0.00    -0.190 C  
HETATM   26  O   UNL     1      -7.690  16.376  66.799  1.00  0.00    -0.209 OA 
HETATM   27  H   UNL     1      -9.972  14.886  68.456  1.00  0.00     0.000 HD 
HETATM   28  C   UNL     1      -9.848  18.056  65.970  1.00  0.00    -0.169 C  
HETATM   29  C   UNL     1     -10.774  15.739  65.634  1.00  0.00    -0.360 A  
HETATM   30  C   UNL     1     -12.165  15.854  65.445  1.00  0.00     1.160 A  
HETATM   31  O   UNL     1     -10.760  18.866  65.841  1.00  0.00    -0.448 OA 
HETATM   32  O   UNL     1      -8.604  18.335  65.518  1.00  0.00    -0.078 OA 
HETATM   33  C   UNL     1     -12.852  14.964  64.613  1.00  0.00     0.337 A  
HETATM   34  C   UNL     1     -12.152  13.958  63.960  1.00  0.00    -0.396 A  
HETATM   35  C   UNL     1     -10.772  13.863  64.083  1.00  0.00     0.046 A  
HETATM   36  O   UNL     1     -12.785  13.034  63.185  1.00  0.00    -0.611 OA 
HETATM   37  H   UNL     1     -12.305  12.346  62.738  1.00  0.00     0.000 HD 
HETATM   38  C   UNL     1     -10.082  14.756  64.906  1.00  0.00    -0.213 A  
ENDBRANCH   5  23
TORSDOF 5
ENDMDL
MODEL      176
REMARK 921   NORMALIZED FREE ENERGY PREDICTED BY IDOCK:   -1.66 KCAL/MOL
REMARK 922        TOTAL FREE ENERGY PREDICTED BY IDOCK:   -3.49 KCAL/MOL
REMARK 923 INTER-LIGAND FREE ENERGY PREDICTED BY IDOCK:   -2.95 KCAL/MOL
REMARK 924 INTRA-LIGAND FREE ENERGY PREDICTED BY IDOCK:   -0.54 KCAL/MOL
REMARK 927      BINDING AFFINITY PREDICTED BY RF-SCORE:    0.00 PKD
ROOT
HETATM    1  C   UNL     1      -8.769   8.778  69.581  1.00  0.00    -0.136 C  
HETATM    2  O   UNL     1      -7.435   8.267  69.723  1.00  0.00    -0.073 OA 
HETATM    3  C   UNL     1      -6.667   8.434  68.530  1.00  0.00    -0.063 C  
HETATM    4  C   UNL     1      -7.420   7.914  67.313  1.00  0.00    -0.093 C  
HETATM    5  C   UNL     1      -9.917   8.212  70.522  1.00  0.00    -0.187 C  
HETATM    6  C   UNL     1      -8.768   7.714  67.358  1.00  0.00    -0.124 C  
HETATM    7  N   UNL     1      -9.466   8.186  68.447  1.00  0.00    -0.141 N  
HETATM    8  C   UNL     1      -9.476   6.965  66.252  1.00  0.00    -0.070 C  
HETATM    9  O   UNL     1      -8.895   6.323  65.387  1.00  0.00    -0.104 OA 
HETATM   10  O   UNL     1     -10.819   7.064  66.231  1.00  0.00     0.315 OA 
HETATM   11  O   UNL     1     -11.428   6.995  68.755  1.00  0.00     0.080 OA 
HETATM   12  C   UNL     1     -10.505   7.676  69.144  1.00  0.00    -0.214 C  
ENDROOT
BRANCH   4  13
HETATM   13  C   UNL     1      -6.479   7.557  66.175  1.00  0.00    -0.045 C  
BRANCH  13  14
HETATM   14  S   UNL     1      -5.344   6.183  66.517  1.00  0.00    -0.013 SA 
BRANCH  14  15
HETATM   15  C   UNL     1      -5.564   5.121  65.185  1.00  0.00    -0.014 A  
HETATM   16  N   UNL     1      -5.198   5.304  63.938  1.00  0.00    -0.009 NA 
HETATM   17  C   UNL     1      -6.764   3.260  66.423  1.00  0.00    -0.048 C  
HETATM   18  N   UNL     1      -5.638   4.197  63.253  1.00  0.00    -0.013 NA 
HETATM   19  N   UNL     1      -6.255   3.347  64.064  1.00  0.00    -0.022 NA 
HETATM   20  N   UNL     1      -6.202   3.919  65.278  1.00  0.00    -0.027 NA 
ENDBRANCH  14  15
ENDBRANCH  13  14
ENDBRANCH   4  13
BRANCH   5  21
HETATM   21  O   UNL     1     -10.757   9.215  71.154  1.00  0.00    -0.256 OA 
HETATM   22  C   UNL     1     -11.273  10.243  70.320  1.00  0.00    -0.323 C  
ENDBRANCH   5  21
BRANCH   5  23
HETATM   23  N   UNL     1      -9.440   7.123  71.436  1.00  0.00    -0.162 N  
HETATM   24  C   UNL     1      -9.651   5.034  72.720  1.00  0.00    -0.164 C  
HETATM   25  C   UNL     1     -10.236   6.036  71.732  1.00  0.00    -0.202 C  
HETATM   26  O   UNL     1     -11.332   5.847  71.203  1.00  0.00    -0.262 OA 
HETATM   27  H   UNL     1      -8.509   7.186  71.846  1.00  0.00     0.000 HD 
HETATM   28  C   UNL     1     -10.697   4.209  73.456  1.00  0.00    -0.227 C  
HETATM   29  C   UNL     1      -8.580   4.142  72.095  1.00  0.00    -0.115 A  
HETATM   30  C   UNL     1      -7.561   3.610  72.908  1.00  0.00    -0.061 A  
HETATM   31  O   UNL     1     -10.475   3.707  74.553  1.00  0.00    -0.193 OA 
HETATM   32  O   UNL     1     -11.881   4.016  72.834  1.00  0.00     0.222 OA 
HETATM   33  C   UNL     1      -6.532   2.839  72.358  1.00  0.00    -0.014 A  
HETATM   34  C   UNL     1      -6.521   2.588  70.993  1.00  0.00    -0.023 A  
HETATM   35  C   UNL     1      -7.548   3.050  70.180  1.00  0.00    -0.043 A  
HETATM   36  O   UNL     1      -5.511   1.890  70.403  1.00  0.00    -0.013 OA 
HETATM   37  H   UNL     1      -5.504   1.718  69.468  1.00  0.00     0.000 HD 
HETATM   38  C   UNL     1      -8.581   3.813  70.729  1.00  0.00    -0.110 A  
ENDBRANCH   5  23
TORSDOF 5
ENDMDL
MODEL      177
REMARK 921   NORMALIZED FREE ENERGY PREDICTED BY IDOCK:   -1.64 KCAL/MOL
REMARK 922        TOTAL FREE ENERGY PREDICTED BY IDOCK:   -3.46 KCAL/MOL
REMARK 923 INTER-LIGAND FREE ENERGY PREDICTED BY IDOCK:   -3.22 KCAL/MOL
REMARK 924 INTRA-LIGAND FREE ENERGY PREDICTED BY IDOCK:   -0.24 KCAL/MOL
REMARK 927      BINDING AFFINITY PREDICTED BY RF-SCORE:    0.00 PKD
ROOT
HETATM    1  C   UNL     1     -11.082   9.668  69.667  1.00  0.00    -0.193 C  
HETATM    2  O   UNL     1     -10.043  10.478  70.238  1.00  0.00     0.027 OA 
HETATM    3  C   UNL     1      -9.921  11.738  69.575  1.00  0.00     0.707 C  
HETATM    4  C   UNL     1      -9.832  11.561  68.065  1.00  0.00    -0.192 C  
HETATM    5  C   UNL     1     -11.019   8.091  69.848  1.00  0.00    -0.172 C  
HETATM    6  C   UNL     1     -10.226  10.397  67.474  1.00  0.00    -0.210 C  
HETATM    7  N   UNL     1     -10.900   9.468  68.236  1.00  0.00    -0.186 N  
HETATM    8  C   UNL     1      -9.906  10.120  66.023  1.00  0.00    -0.246 C  
HETATM    9  O   UNL     1      -9.119  10.785  65.362  1.00  0.00    -0.183 OA 
HETATM   10  O   UNL     1     -10.572   9.098  65.451  1.00  0.00     0.990 OA 
HETATM   11  O   UNL     1     -10.651   7.339  67.360  1.00  0.00    -0.251 OA 
HETATM   12  C   UNL     1     -10.852   8.118  68.265  1.00  0.00     0.089 C  
ENDROOT
BRANCH   4  13
HETATM   13  C   UNL     1      -9.160  12.747  67.395  1.00  0.00    -0.192 C  
BRANCH  13  14
HETATM   14  S   UNL     1     -10.116  14.289  67.419  1.00  0.00    -0.248 SA 
BRANCH  14  15
HETATM   15  C   UNL     1     -11.519  13.922  66.497  1.00  0.00    -0.348 A  
HETATM   16  N   UNL     1     -12.762  13.851  66.912  1.00  0.00     0.032 NA 
HETATM   17  C   UNL     1     -10.379  13.590  64.255  1.00  0.00    -0.143 C  
HETATM   18  N   UNL     1     -13.502  13.483  65.814  1.00  0.00    -0.138 NA 
HETATM   19  N   UNL     1     -12.731  13.341  64.744  1.00  0.00    -0.689 NA 
HETATM   20  N   UNL     1     -11.487  13.624  65.166  1.00  0.00    -0.309 NA 
ENDBRANCH  14  15
ENDBRANCH  13  14
ENDBRANCH   4  13
BRANCH   5  21
HETATM   21  O   UNL     1     -12.254   7.462  70.284  1.00  0.00     0.021 OA 
HETATM   22  C   UNL     1     -13.109   8.230  71.118  1.00  0.00    -0.024 C  
ENDBRANCH   5  21
BRANCH   5  23
HETATM   23  N   UNL     1      -9.788   7.635  70.573  1.00  0.00    -0.183 N  
HETATM   24  C   UNL     1      -8.543   6.391  72.293  1.00  0.00    -0.117 C  
HETATM   25  C   UNL     1      -9.860   6.722  71.605  1.00  0.00    -0.165 C  
HETATM   26  O   UNL     1     -10.909   6.163  71.928  1.00  0.00    -0.230 OA 
HETATM   27  H   UNL     1      -8.879   8.006  70.299  1.00  0.00     0.000 HD 
HETATM   28  C   UNL     1      -8.700   5.881  73.719  1.00  0.00    -0.124 C  
HETATM   29  C   UNL     1      -7.658   5.460  71.465  1.00  0.00    -0.103 A  
HETATM   30  C   UNL     1      -6.260   5.515  71.619  1.00  0.00    -0.038 A  
HETATM   31  O   UNL     1      -7.805   5.990  74.551  1.00  0.00    -0.096 OA 
HETATM   32  O   UNL     1      -9.862   5.263  74.028  1.00  0.00    -0.153 OA 
HETATM   33  C   UNL     1      -5.419   4.719  70.835  1.00  0.00    -0.008 A  
HETATM   34  C   UNL     1      -5.973   3.857  69.897  1.00  0.00    -0.019 A  
HETATM   35  C   UNL     1      -7.351   3.741  69.770  1.00  0.00    -0.042 A  
HETATM   36  O   UNL     1      -5.194   3.103  69.072  1.00  0.00    -0.011 OA 
HETATM   37  H   UNL     1      -5.573   2.514  68.430  1.00  0.00     0.000 HD 
HETATM   38  C   UNL     1      -8.192   4.529  70.558  1.00  0.00    -0.072 A  
ENDBRANCH   5  23
TORSDOF 5
ENDMDL
MODEL      178
REMARK 921   NORMALIZED FREE ENERGY PREDICTED BY IDOCK:   -1.54 KCAL/MOL
REMARK 922        TOTAL FREE ENERGY PREDICTED BY IDOCK:   -3.33 KCAL/MOL
REMARK 923 INTER-LIGAND FREE ENERGY PREDICTED BY IDOCK:   -7.40 KCAL/MOL
REMARK 924 INTRA-LIGAND FREE ENERGY PREDICTED BY IDOCK:    4.06 KCAL/MOL
REMARK 927      BINDING AFFINITY PREDICTED BY RF-SCORE:    0.00 PKD
ROOT
HETATM    1  C   UNL     1     -10.016  12.494  68.531  1.00  0.00    -0.165 C  
HETATM    2  O   UNL     1      -8.658  12.150  68.215  1.00  0.00    -0.173 OA 
HETATM    3  C   UNL     1      -7.759  13.231  68.469  1.00  0.00    -0.120 C  
HETATM    4  C   UNL     1      -8.254  14.521  67.829  1.00  0.00    -0.171 C  
HETATM    5  C   UNL     1     -11.198  11.701  67.825  1.00  0.00    -0.268 C  
HETATM    6  C   UNL     1      -9.554  14.655  67.442  1.00  0.00    -0.215 C  
HETATM    7  N   UNL     1     -10.458  13.691  67.829  1.00  0.00    -0.237 N  
HETATM    8  C   UNL     1      -9.989  15.822  66.584  1.00  0.00    -0.257 C  
HETATM    9  O   UNL     1      -9.209  16.575  66.016  1.00  0.00    -0.369 OA 
HETATM   10  O   UNL     1     -11.316  16.032  66.493  1.00  0.00     0.044 OA 
HETATM   11  O   UNL     1     -12.263  13.616  66.380  1.00  0.00    -0.425 OA 
HETATM   12  C   UNL     1     -11.506  13.128  67.190  1.00  0.00    -0.334 C  
ENDROOT
BRANCH   4  13
HETATM   13  C   UNL     1      -7.120  15.504  67.589  1.00  0.00    -0.174 C  
BRANCH  13  14
HETATM   14  S   UNL     1      -7.639  17.194  67.181  1.00  0.00    -0.188 SA 
BRANCH  14  15
HETATM   15  C   UNL     1      -6.513  18.187  68.016  1.00  0.00    -0.189 A  
HETATM   16  N   UNL     1      -5.867  17.917  69.127  1.00  0.00    -0.204 NA 
HETATM   17  C   UNL     1      -6.580  20.180  66.447  1.00  0.00    -0.211 C  
HETATM   18  N   UNL     1      -5.127  19.040  69.411  1.00  0.00    -0.181 NA 
HETATM   19  N   UNL     1      -5.306  19.976  68.488  1.00  0.00    -0.199 NA 
HETATM   20  N   UNL     1      -6.168  19.442  67.607  1.00  0.00    -0.202 NA 
ENDBRANCH  14  15
ENDBRANCH  13  14
ENDBRANCH   4  13
BRANCH   5  21
HETATM   21  O   UNL     1     -12.249  11.228  68.710  1.00  0.00    -0.532 OA 
HETATM   22  C   UNL     1     -11.964  11.217  70.102  1.00  0.00    -0.365 C  
ENDBRANCH   5  21
BRANCH   5  23
HETATM   23  N   UNL     1     -10.711  10.692  66.828  1.00  0.00    -0.238 N  
HETATM   24  C   UNL     1      -9.673   9.956  64.722  1.00  0.00    -0.305 C  
HETATM   25  C   UNL     1     -10.060  11.079  65.675  1.00  0.00    -0.256 C  
HETATM   26  O   UNL     1      -9.759  12.250  65.441  1.00  0.00    -0.224 OA 
HETATM   27  H   UNL     1     -10.864   9.700  67.005  1.00  0.00     0.000 HD 
HETATM   28  C   UNL     1      -9.506  10.402  63.276  1.00  0.00    -0.323 C  
HETATM   29  C   UNL     1      -8.457   9.164  65.201  1.00  0.00    -0.182 A  
HETATM   30  C   UNL     1      -8.316   7.816  64.822  1.00  0.00    -0.051 A  
HETATM   31  O   UNL     1      -9.642   9.625  62.336  1.00  0.00    -0.119 OA 
HETATM   32  O   UNL     1      -9.165  11.692  63.064  1.00  0.00    -0.268 OA 
HETATM   33  C   UNL     1      -7.247   7.046  65.291  1.00  0.00    -0.074 A  
HETATM   34  C   UNL     1      -6.309   7.623  66.137  1.00  0.00    -0.042 A  
HETATM   35  C   UNL     1      -6.393   8.967  66.476  1.00  0.00    -0.062 A  
HETATM   36  O   UNL     1      -5.282   6.899  66.664  1.00  0.00    -0.016 OA 
HETATM   37  H   UNL     1      -4.640   7.294  67.243  1.00  0.00     0.000 HD 
HETATM   38  C   UNL     1      -7.455   9.739  66.001  1.00  0.00    -0.102 A  
ENDBRANCH   5  23
TORSDOF 5
ENDMDL
MODEL      179
REMARK 921   NORMALIZED FREE ENERGY PREDICTED BY IDOCK:   -1.38 KCAL/MOL
REMARK 922        TOTAL FREE ENERGY PREDICTED BY IDOCK:   -3.12 KCAL/MOL
REMARK 923 INTER-LIGAND FREE ENERGY PREDICTED BY IDOCK:   -4.38 KCAL/MOL
REMARK 924 INTRA-LIGAND FREE ENERGY PREDICTED BY IDOCK:    1.26 KCAL/MOL
REMARK 927      BINDING AFFINITY PREDICTED BY RF-SCORE:    0.00 PKD
ROOT
HETATM    1  C   UNL     1      -9.418   4.860  69.282  1.00  0.00    -0.142 C  
HETATM    2  O   UNL     1      -9.992   4.947  67.969  1.00  0.00    -0.154 OA 
HETATM    3  C   UNL     1      -9.310   4.113  67.030  1.00  0.00    -0.175 C  
HETATM    4  C   UNL     1      -7.805   4.340  67.083  1.00  0.00    -0.096 C  
HETATM    5  C   UNL     1      -9.626   6.065  70.297  1.00  0.00    -0.163 C  
HETATM    6  C   UNL     1      -7.228   4.949  68.157  1.00  0.00    -0.062 C  
HETATM    7  N   UNL     1      -7.993   5.164  69.281  1.00  0.00    -0.080 N  
HETATM    8  C   UNL     1      -5.787   5.404  68.105  1.00  0.00    -0.017 C  
HETATM    9  O   UNL     1      -5.128   5.457  67.075  1.00  0.00    -0.004 OA 
HETATM   10  O   UNL     1      -5.221   5.725  69.285  1.00  0.00    -0.004 OA 
HETATM   11  O   UNL     1      -7.158   6.927  70.529  1.00  0.00    -0.064 OA 
HETATM   12  C   UNL     1      -8.046   6.194  70.154  1.00  0.00    -0.116 C  
ENDROOT
BRANCH   4  13
HETATM   13  C   UNL     1      -7.126   3.930  65.787  1.00  0.00    -0.067 C  
BRANCH  13  14
HETATM   14  S   UNL     1      -6.085   5.207  65.026  1.00  0.00    -0.026 SA 
BRANCH  14  15
HETATM   15  C   UNL     1      -7.185   6.133  64.085  1.00  0.00    -0.058 A  
HETATM   16  N   UNL     1      -7.996   5.711  63.144  1.00  0.00    -0.096 NA 
HETATM   17  C   UNL     1      -6.681   8.403  65.101  1.00  0.00    -0.063 C  
HETATM   18  N   UNL     1      -8.629   6.833  62.665  1.00  0.00     0.175 NA 
HETATM   19  N   UNL     1      -8.223   7.921  63.306  1.00  0.00    -0.084 NA 
HETATM   20  N   UNL     1      -7.324   7.485  64.204  1.00  0.00    -0.084 NA 
ENDBRANCH  14  15
ENDBRANCH  13  14
ENDBRANCH   4  13
BRANCH   5  21
HETATM   21  O   UNL     1     -10.052   5.688  71.634  1.00  0.00    -0.183 OA 
HETATM   22  C   UNL     1      -9.041   5.567  72.623  1.00  0.00    -0.138 C  
ENDBRANCH   5  21
BRANCH   5  23
HETATM   23  N   UNL     1     -10.379   7.213  69.695  1.00  0.00    -0.209 N  
HETATM   24  C   UNL     1     -11.574   9.364  69.732  1.00  0.00     0.094 C  
HETATM   25  C   UNL     1     -10.764   8.297  70.456  1.00  0.00    -0.225 C  
HETATM   26  O   UNL     1     -10.438   8.433  71.636  1.00  0.00    -0.216 OA 
HETATM   27  H   UNL     1     -10.612   7.193  68.702  1.00  0.00     0.000 HD 
HETATM   28  C   UNL     1     -12.450  10.206  70.649  1.00  0.00    -0.284 C  
HETATM   29  C   UNL     1     -10.718  10.244  68.823  1.00  0.00    -0.247 A  
HETATM   30  C   UNL     1     -11.300  10.841  67.688  1.00  0.00    -0.328 A  
HETATM   31  O   UNL     1     -13.460  10.772  70.244  1.00  0.00     0.135 OA 
HETATM   32  O   UNL     1     -12.049  10.338  71.933  1.00  0.00    -0.229 OA 
HETATM   33  C   UNL     1     -10.530  11.603  66.803  1.00  0.00    -0.265 A  
HETATM   34  C   UNL     1      -9.175  11.779  67.052  1.00  0.00    -0.187 A  
HETATM   35  C   UNL     1      -8.592  11.251  68.196  1.00  0.00    -0.150 A  
HETATM   36  O   UNL     1      -8.374  12.466  66.191  1.00  0.00    -0.367 OA 
HETATM   37  H   UNL     1      -7.447  12.586  66.361  1.00  0.00     0.000 HD 
HETATM   38  C   UNL     1      -9.361  10.497  69.086  1.00  0.00    -0.200 A  
ENDBRANCH   5  23
TORSDOF 5
ENDMDL
MODEL      180
REMARK 921   NORMALIZED FREE ENERGY PREDICTED BY IDOCK:   -1.04 KCAL/MOL
REMARK 922        TOTAL FREE ENERGY PREDICTED BY IDOCK:   -2.69 KCAL/MOL
REMARK 923 INTER-LIGAND FREE ENERGY PREDICTED BY IDOCK:   -3.89 KCAL/MOL
REMARK 924 INTRA-LIGAND FREE ENERGY PREDICTED BY IDOCK:    1.20 KCAL/MOL
REMARK 927      BINDING AFFINITY PREDICTED BY RF-SCORE:    0.00 PKD
ROOT
HETATM    1  C   UNL     1      -6.986   9.289  67.649  1.00  0.00    -0.078 C  
HETATM    2  O   UNL     1      -6.310   8.611  68.719  1.00  0.00    -0.047 OA 
HETATM    3  C   UNL     1      -5.354   7.666  68.236  1.00  0.00    -0.027 C  
HETATM    4  C   UNL     1      -5.968   6.747  67.188  1.00  0.00    -0.021 C  
HETATM    5  C   UNL     1      -8.416   9.925  67.918  1.00  0.00    -0.121 C  
HETATM    6  C   UNL     1      -7.127   7.086  66.555  1.00  0.00    -0.077 C  
HETATM    7  N   UNL     1      -7.619   8.361  66.723  1.00  0.00    -0.090 N  
HETATM    8  C   UNL     1      -7.871   6.076  65.711  1.00  0.00    -0.104 C  
HETATM    9  O   UNL     1      -7.622   4.877  65.710  1.00  0.00    -0.084 OA 
HETATM   10  O   UNL     1      -8.830   6.566  64.903  1.00  0.00     0.124 OA 
HETATM   11  O   UNL     1      -9.907   8.422  66.367  1.00  0.00    -0.253 OA 
HETATM   12  C   UNL     1      -8.878   8.833  66.856  1.00  0.00    -0.127 C  
ENDROOT
BRANCH   4  13
HETATM   13  C   UNL     1      -5.210   5.436  67.071  1.00  0.00    -0.005 C  
BRANCH  13  14
HETATM   14  S   UNL     1      -5.186   4.423  68.577  1.00  0.00    -0.008 SA 
BRANCH  14  15
HETATM   15  C   UNL     1      -6.825   3.949  68.783  1.00  0.00    -0.046 A  
HETATM   16  N   UNL     1      -7.884   4.414  68.164  1.00  0.00    -0.079 NA 
HETATM   17  C   UNL     1      -6.451   2.191  70.574  1.00  0.00    -0.024 C  
HETATM   18  N   UNL     1      -8.958   3.751  68.709  1.00  0.00    -0.112 NA 
HETATM   19  N   UNL     1      -8.565   2.889  69.637  1.00  0.00    -0.062 NA 
HETATM   20  N   UNL     1      -7.227   3.003  69.681  1.00  0.00    -0.044 NA 
ENDBRANCH  14  15
ENDBRANCH  13  14
ENDBRANCH   4  13
BRANCH   5  21
HETATM   21  O   UNL     1      -8.592  11.290  67.452  1.00  0.00    -0.132 OA 
HETATM   22  C   UNL     1      -9.402  11.479  66.301  1.00  0.00    -0.213 C  
ENDBRANCH   5  21
BRANCH   5  23
HETATM   23  N   UNL     1      -8.920   9.663  69.306  1.00  0.00    -0.160 N  
HETATM   24  C   UNL     1     -10.638   9.211  71.009  1.00  0.00    -0.362 C  
HETATM   25  C   UNL     1     -10.253   9.399  69.548  1.00  0.00    -0.209 C  
HETATM   26  O   UNL     1     -11.082   9.272  68.646  1.00  0.00    -0.054 OA 
HETATM   27  H   UNL     1      -8.266   9.680  70.088  1.00  0.00     0.000 HD 
HETATM   28  C   UNL     1     -12.104   9.499  71.305  1.00  0.00    -0.360 C  
HETATM   29  C   UNL     1     -10.218   7.851  71.563  1.00  0.00    -0.232 A  
HETATM   30  C   UNL     1      -9.948   7.716  72.938  1.00  0.00    -0.319 A  
HETATM   31  O   UNL     1     -12.488   9.834  72.421  1.00  0.00    -0.209 OA 
HETATM   32  O   UNL     1     -12.981   9.335  70.290  1.00  0.00     0.446 OA 
HETATM   33  C   UNL     1      -9.504   6.500  73.467  1.00  0.00    -0.161 A  
HETATM   34  C   UNL     1      -9.335   5.409  72.625  1.00  0.00    -0.140 A  
HETATM   35  C   UNL     1      -9.653   5.501  71.276  1.00  0.00    -0.198 A  
HETATM   36  O   UNL     1      -8.852   4.221  73.083  1.00  0.00    -0.099 OA 
HETATM   37  H   UNL     1      -8.736   3.474  72.507  1.00  0.00     0.000 HD 
HETATM   38  C   UNL     1     -10.105   6.712  70.748  1.00  0.00    -0.205 A  
ENDBRANCH   5  23
TORSDOF 5
ENDMDL
MODEL      181
REMARK 921   NORMALIZED FREE ENERGY PREDICTED BY IDOCK:   -0.67 KCAL/MOL
REMARK 922        TOTAL FREE ENERGY PREDICTED BY IDOCK:   -2.22 KCAL/MOL
REMARK 923 INTER-LIGAND FREE ENERGY PREDICTED BY IDOCK:   -1.95 KCAL/MOL
REMARK 924 INTRA-LIGAND FREE ENERGY PREDICTED BY IDOCK:   -0.27 KCAL/MOL
REMARK 927      BINDING AFFINITY PREDICTED BY RF-SCORE:    0.00 PKD
ROOT
HETATM    1  C   UNL     1      -9.491  13.776  67.071  1.00  0.00    -0.255 C  
HETATM    2  O   UNL     1      -8.862  12.494  67.226  1.00  0.00    -0.178 OA 
HETATM    3  C   UNL     1      -8.486  11.927  65.970  1.00  0.00     0.198 C  
HETATM    4  C   UNL     1      -9.647  11.951  64.984  1.00  0.00    -0.110 C  
HETATM    5  C   UNL     1     -10.461  14.303  68.214  1.00  0.00    -0.247 C  
HETATM    6  C   UNL     1     -10.720  12.767  65.188  1.00  0.00    -0.294 C  
HETATM    7  N   UNL     1     -10.642  13.719  66.180  1.00  0.00    -0.287 N  
HETATM    8  C   UNL     1     -11.977  12.612  64.363  1.00  0.00    -0.400 C  
HETATM    9  O   UNL     1     -12.200  11.651  63.639  1.00  0.00    -0.404 OA 
HETATM   10  O   UNL     1     -12.861  13.626  64.429  1.00  0.00    -0.638 OA 
HETATM   11  O   UNL     1     -12.751  14.309  66.932  1.00  0.00    -0.076 OA 
HETATM   12  C   UNL     1     -11.554  14.179  67.064  1.00  0.00    -0.382 C  
ENDROOT
BRANCH   4  13
HETATM   13  C   UNL     1      -9.488  10.901  63.898  1.00  0.00    -0.261 C  
BRANCH  13  14
HETATM   14  S   UNL     1      -7.996   9.877  64.029  1.00  0.00    -0.156 SA 
BRANCH  14  15
HETATM   15  C   UNL     1      -8.314   8.851  65.370  1.00  0.00    -0.148 A  
HETATM   16  N   UNL     1      -9.394   8.144  65.607  1.00  0.00     0.006 NA 
HETATM   17  C   UNL     1      -6.124   9.202  66.600  1.00  0.00    -0.064 C  
HETATM   18  N   UNL     1      -9.183   7.533  66.820  1.00  0.00    -0.149 NA 
HETATM   19  N   UNL     1      -7.993   7.851  67.313  1.00  0.00    -0.116 NA 
HETATM   20  N   UNL     1      -7.441   8.670  66.403  1.00  0.00    -0.086 NA 
ENDBRANCH  14  15
ENDBRANCH  13  14
ENDBRANCH   4  13
BRANCH   5  21
HETATM   21  O   UNL     1     -10.233  15.672  68.644  1.00  0.00    -0.205 OA 
HETATM   22  C   UNL     1      -9.005  15.944  69.305  1.00  0.00    -0.251 C  
ENDBRANCH   5  21
BRANCH   5  23
HETATM   23  N   UNL     1     -10.645  13.314  69.326  1.00  0.00    -0.434 N  
HETATM   24  C   UNL     1     -11.933  12.055  71.003  1.00  0.00     0.129 C  
HETATM   25  C   UNL     1     -11.896  13.033  69.836  1.00  0.00    -0.307 C  
HETATM   26  O   UNL     1     -12.931  13.497  69.356  1.00  0.00     0.524 OA 
HETATM   27  H   UNL     1      -9.830  12.840  69.714  1.00  0.00     0.000 HD 
HETATM   28  C   UNL     1     -13.161  12.198  71.892  1.00  0.00    -0.369 C  
HETATM   29  C   UNL     1     -11.730  10.604  70.567  1.00  0.00    -0.451 A  
HETATM   30  C   UNL     1     -11.162   9.684  71.469  1.00  0.00    -0.377 A  
HETATM   31  O   UNL     1     -13.157  11.845  73.067  1.00  0.00     1.172 OA 
HETATM   32  O   UNL     1     -14.279  12.700  71.322  1.00  0.00     1.360 OA 
HETATM   33  C   UNL     1     -10.908   8.364  71.083  1.00  0.00    -0.286 A  
HETATM   34  C   UNL     1     -11.227   7.955  69.795  1.00  0.00     0.011 A  
HETATM   35  C   UNL     1     -11.845   8.827  68.908  1.00  0.00     1.643 A  
HETATM   36  O   UNL     1     -10.948   6.696  69.355  1.00  0.00    -0.265 OA 
HETATM   37  H   UNL     1     -11.167   6.416  68.474  1.00  0.00     0.000 HD 
HETATM   38  C   UNL     1     -12.107  10.143  69.295  1.00  0.00     0.209 A  
ENDBRANCH   5  23
TORSDOF 5
ENDMDL
MODEL      182
REMARK 921   NORMALIZED FREE ENERGY PREDICTED BY IDOCK:   -0.33 KCAL/MOL
REMARK 922        TOTAL FREE ENERGY PREDICTED BY IDOCK:   -1.77 KCAL/MOL
REMARK 923 INTER-LIGAND FREE ENERGY PREDICTED BY IDOCK:   -5.28 KCAL/MOL
REMARK 924 INTRA-LIGAND FREE ENERGY PREDICTED BY IDOCK:    3.51 KCAL/MOL
REMARK 927      BINDING AFFINITY PREDICTED BY RF-SCORE:    0.00 PKD
ROOT
HETATM    1  C   UNL     1     -10.233   8.749  69.037  1.00  0.00    -0.207 C  
HETATM    2  O   UNL     1      -8.950   8.512  68.438  1.00  0.00    -0.139 OA 
HETATM    3  C   UNL     1      -8.528   7.155  68.592  1.00  0.00    -0.125 C  
HETATM    4  C   UNL     1      -8.646   6.703  70.042  1.00  0.00    -0.140 C  
HETATM    5  C   UNL     1     -10.619  10.226  69.475  1.00  0.00    -0.245 C  
HETATM    6  C   UNL     1      -9.423   7.391  70.927  1.00  0.00    -0.165 C  
HETATM    7  N   UNL     1     -10.261   8.370  70.443  1.00  0.00    -0.194 N  
HETATM    8  C   UNL     1      -9.344   7.104  72.409  1.00  0.00    -0.134 C  
HETATM    9  O   UNL     1      -8.466   6.424  72.924  1.00  0.00    -0.118 OA 
HETATM   10  O   UNL     1     -10.335   7.612  73.167  1.00  0.00    -0.300 OA 
HETATM   11  O   UNL     1     -10.739   9.937  72.081  1.00  0.00     0.923 OA 
HETATM   12  C   UNL     1     -10.610   9.581  70.930  1.00  0.00    -0.325 C  
ENDROOT
BRANCH   4  13
HETATM   13  C   UNL     1      -7.725   5.534  70.347  1.00  0.00    -0.085 C  
BRANCH  13  14
HETATM   14  S   UNL     1      -8.491   3.895  70.216  1.00  0.00    -0.061 SA 
BRANCH  14  15
HETATM   15  C   UNL     1      -9.593   3.846  71.533  1.00  0.00    -0.166 A  
HETATM   16  N   UNL     1     -10.397   4.796  71.949  1.00  0.00    -0.194 NA 
HETATM   17  C   UNL     1      -9.109   1.476  72.299  1.00  0.00    -0.069 C  
HETATM   18  N   UNL     1     -11.036   4.289  73.055  1.00  0.00    -0.191 NA 
HETATM   19  N   UNL     1     -10.640   3.048  73.308  1.00  0.00    -0.162 NA 
HETATM   20  N   UNL     1      -9.742   2.763  72.350  1.00  0.00    -0.133 NA 
ENDBRANCH  14  15
ENDBRANCH  13  14
ENDBRANCH   4  13
BRANCH   5  21
HETATM   21  O   UNL     1     -11.935  10.677  69.055  1.00  0.00    -0.287 OA 
HETATM   22  C   UNL     1     -12.035  12.006  68.563  1.00  0.00    -0.214 C  
ENDBRANCH   5  21
BRANCH   5  23
HETATM   23  N   UNL     1      -9.512  11.212  69.248  1.00  0.00    -0.413 N  
HETATM   24  C   UNL     1      -7.672  12.251  67.988  1.00  0.00    -0.132 C  
HETATM   25  C   UNL     1      -8.809  11.240  68.062  1.00  0.00    -0.148 C  
HETATM   26  O   UNL     1      -9.101  10.534  67.096  1.00  0.00    -0.143 OA 
HETATM   27  H   UNL     1      -9.274  11.874  69.986  1.00  0.00     0.000 HD 
HETATM   28  C   UNL     1      -6.590  11.893  66.979  1.00  0.00    -0.128 C  
HETATM   29  C   UNL     1      -8.164  13.683  67.788  1.00  0.00    -0.179 A  
HETATM   30  C   UNL     1      -7.387  14.756  68.268  1.00  0.00    -0.115 A  
HETATM   31  O   UNL     1      -5.439  12.303  67.086  1.00  0.00    -0.192 OA 
HETATM   32  O   UNL     1      -6.957  11.126  65.928  1.00  0.00    -0.027 OA 
HETATM   33  C   UNL     1      -7.837  16.075  68.154  1.00  0.00    -0.142 A  
HETATM   34  C   UNL     1      -9.062  16.330  67.553  1.00  0.00    -0.192 A  
HETATM   35  C   UNL     1      -9.817  15.295  67.017  1.00  0.00    -0.233 A  
HETATM   36  O   UNL     1      -9.567  17.593  67.469  1.00  0.00    -0.260 OA 
HETATM   37  H   UNL     1     -10.406  17.768  67.057  1.00  0.00     0.000 HD 
HETATM   38  C   UNL     1      -9.366  13.978  67.122  1.00  0.00    -0.244 A  
ENDBRANCH   5  23
TORSDOF 5
ENDMDL
MODEL      183
REMARK 921   NORMALIZED FREE ENERGY PREDICTED BY IDOCK:    0.65 KCAL/MOL
REMARK 922        TOTAL FREE ENERGY PREDICTED BY IDOCK:   -0.50 KCAL/MOL
REMARK 923 INTER-LIGAND FREE ENERGY PREDICTED BY IDOCK:   -2.60 KCAL/MOL
REMARK 924 INTRA-LIGAND FREE ENERGY PREDICTED BY IDOCK:    2.10 KCAL/MOL
REMARK 927      BINDING AFFINITY PREDICTED BY RF-SCORE:    0.00 PKD
ROOT
HETATM    1  C   UNL     1     -10.304   8.686  69.380  1.00  0.00    -0.218 C  
HETATM    2  O   UNL     1     -10.297   9.430  68.152  1.00  0.00    -0.191 OA 
HETATM    3  C   UNL     1     -10.402   8.579  67.009  1.00  0.00    -0.309 C  
HETATM    4  C   UNL     1      -9.386   7.445  67.072  1.00  0.00    -0.183 C  
HETATM    5  C   UNL     1      -9.651   9.330  70.677  1.00  0.00    -0.273 C  
HETATM    6  C   UNL     1      -8.784   7.111  68.248  1.00  0.00    -0.128 C  
HETATM    7  N   UNL     1      -9.261   7.669  69.413  1.00  0.00    -0.149 N  
HETATM    8  C   UNL     1      -7.600   6.170  68.270  1.00  0.00    -0.098 C  
HETATM    9  O   UNL     1      -6.986   5.828  67.269  1.00  0.00    -0.062 OA 
HETATM   10  O   UNL     1      -7.257   5.674  69.475  1.00  0.00    -0.062 OA 
HETATM   11  O   UNL     1      -7.620   7.709  71.047  1.00  0.00    -0.080 OA 
HETATM   12  C   UNL     1      -8.634   8.116  70.523  1.00  0.00    -0.130 C  
ENDROOT
BRANCH   4  13
HETATM   13  C   UNL     1      -9.080   6.884  65.694  1.00  0.00     0.136 C  
BRANCH  13  14
HETATM   14  S   UNL     1      -7.900   7.852  64.712  1.00  0.00    -0.129 SA 
BRANCH  14  15
HETATM   15  C   UNL     1      -8.772   9.274  64.299  1.00  0.00    -0.175 A  
HETATM   16  N   UNL     1      -9.823   9.378  63.520  1.00  0.00     1.148 NA 
HETATM   17  C   UNL     1      -7.380  10.929  65.625  1.00  0.00     0.052 C  
HETATM   18  N   UNL     1     -10.119  10.720  63.470  1.00  0.00    -0.334 NA 
HETATM   19  N   UNL     1      -9.272  11.424  64.210  1.00  0.00    -0.054 NA 
HETATM   20  N   UNL     1      -8.432  10.520  64.739  1.00  0.00    -0.170 NA 
ENDBRANCH  14  15
ENDBRANCH  13  14
ENDBRANCH   4  13
BRANCH   5  21
HETATM   21  O   UNL     1     -10.456   9.255  71.885  1.00  0.00    -0.305 OA 
HETATM   22  C   UNL     1     -11.770   8.734  71.752  1.00  0.00    -0.346 C  
ENDBRANCH   5  21
BRANCH   5  23
HETATM   23  N   UNL     1      -9.030  10.670  70.415  1.00  0.00     0.601 N  
HETATM   24  C   UNL     1      -7.515  12.246  69.286  1.00  0.00     0.248 C  
HETATM   25  C   UNL     1      -8.109  10.849  69.404  1.00  0.00     0.013 C  
HETATM   26  O   UNL     1      -7.813   9.958  68.606  1.00  0.00    -0.083 OA 
HETATM   27  H   UNL     1      -9.294  11.465  70.996  1.00  0.00     0.000 HD 
HETATM   28  C   UNL     1      -6.153  12.283  68.607  1.00  0.00    -0.057 C  
HETATM   29  C   UNL     1      -8.477  13.249  68.653  1.00  0.00     0.017 A  
HETATM   30  C   UNL     1      -8.371  14.614  68.983  1.00  0.00    -0.102 A  
HETATM   31  O   UNL     1      -5.348  13.186  68.813  1.00  0.00    -0.070 OA 
HETATM   32  O   UNL     1      -5.873  11.293  67.730  1.00  0.00    -0.046 OA 
HETATM   33  C   UNL     1      -9.274  15.550  68.469  1.00  0.00    -0.197 A  
HETATM   34  C   UNL     1     -10.283  15.127  67.614  1.00  0.00    -0.241 A  
HETATM   35  C   UNL     1     -10.371  13.797  67.226  1.00  0.00    -0.253 A  
HETATM   36  O   UNL     1     -11.219  15.991  67.131  1.00  0.00    -0.171 OA 
HETATM   37  H   UNL     1     -11.910  15.702  66.546  1.00  0.00     0.000 HD 
HETATM   38  C   UNL     1      -9.465  12.862  67.732  1.00  0.00    -0.202 A  
ENDBRANCH   5  23
TORSDOF 5
ENDMDL
MODEL      184
REMARK 921   NORMALIZED FREE ENERGY PREDICTED BY IDOCK:    0.69 KCAL/MOL
REMARK 922        TOTAL FREE ENERGY PREDICTED BY IDOCK:   -0.45 KCAL/MOL
REMARK 923 INTER-LIGAND FREE ENERGY PREDICTED BY IDOCK:   -4.44 KCAL/MOL
REMARK 924 INTRA-LIGAND FREE ENERGY PREDICTED BY IDOCK:    3.99 KCAL/MOL
REMARK 927      BINDING AFFINITY PREDICTED BY RF-SCORE:    0.00 PKD
ROOT
HETATM    1  C   UNL     1     -10.452  10.852  67.986  1.00  0.00    -0.191 C  
HETATM    2  O   UNL     1     -10.037  11.428  66.738  1.00  0.00    -0.207 OA 
HETATM    3  C   UNL     1      -9.714  10.429  65.768  1.00  0.00    -0.228 C  
HETATM    4  C   UNL     1      -8.754   9.395  66.342  1.00  0.00    -0.149 C  
HETATM    5  C   UNL     1     -10.310  11.709  69.316  1.00  0.00     0.069 C  
HETATM    6  C   UNL     1      -8.591   9.264  67.689  1.00  0.00    -0.116 C  
HETATM    7  N   UNL     1      -9.459   9.932  68.524  1.00  0.00    -0.144 N  
HETATM    8  C   UNL     1      -7.465   8.428  68.254  1.00  0.00    -0.096 C  
HETATM    9  O   UNL     1      -6.531   8.006  67.586  1.00  0.00    -0.054 OA 
HETATM   10  O   UNL     1      -7.551   8.121  69.563  1.00  0.00    -0.094 OA 
HETATM   11  O   UNL     1      -8.493  10.311  70.595  1.00  0.00     0.261 OA 
HETATM   12  C   UNL     1      -9.271  10.566  69.702  1.00  0.00     0.039 C  
ENDROOT
BRANCH   4  13
HETATM   13  C   UNL     1      -7.972   8.684  65.251  1.00  0.00    -0.114 C  
BRANCH  13  14
HETATM   14  S   UNL     1      -7.908   6.877  65.402  1.00  0.00    -0.121 SA 
BRANCH  14  15
HETATM   15  C   UNL     1      -9.444   6.460  66.049  1.00  0.00     0.038 A  
HETATM   16  N   UNL     1     -10.429   7.265  66.374  1.00  0.00     0.055 NA 
HETATM   17  C   UNL     1      -9.110   3.947  66.142  1.00  0.00    -0.146 C  
HETATM   18  N   UNL     1     -11.417   6.460  66.887  1.00  0.00     0.025 NA 
HETATM   19  N   UNL     1     -11.051   5.185  66.869  1.00  0.00     0.342 NA 
HETATM   20  N   UNL     1      -9.818   5.180  66.336  1.00  0.00    -0.174 NA 
ENDBRANCH  14  15
ENDBRANCH  13  14
ENDBRANCH   4  13
BRANCH   5  21
HETATM   21  O   UNL     1     -11.483  11.731  70.173  1.00  0.00    -0.225 OA 
HETATM   22  C   UNL     1     -12.416  10.671  70.017  1.00  0.00    -0.225 C  
ENDBRANCH   5  21
BRANCH   5  23
HETATM   23  N   UNL     1      -9.673  13.047  69.085  1.00  0.00    -0.219 N  
HETATM   24  C   UNL     1      -7.920  14.575  68.280  1.00  0.00    -0.137 C  
HETATM   25  C   UNL     1      -8.487  13.166  68.391  1.00  0.00    -0.126 C  
HETATM   26  O   UNL     1      -7.934  12.210  67.846  1.00  0.00    -0.129 OA 
HETATM   27  H   UNL     1     -10.125  13.885  69.448  1.00  0.00     0.000 HD 
HETATM   28  C   UNL     1      -6.416  14.622  68.053  1.00  0.00    -0.152 C  
HETATM   29  C   UNL     1      -8.662  15.434  67.258  1.00  0.00    -0.215 A  
HETATM   30  C   UNL     1      -8.699  16.832  67.424  1.00  0.00    -0.202 A  
HETATM   31  O   UNL     1      -5.739  15.593  68.376  1.00  0.00    -0.097 OA 
HETATM   32  O   UNL     1      -5.852  13.557  67.441  1.00  0.00    -0.348 OA 
HETATM   33  C   UNL     1      -9.419  17.642  66.540  1.00  0.00    -0.294 A  
HETATM   34  C   UNL     1     -10.100  17.059  65.479  1.00  0.00    -0.010 A  
HETATM   35  C   UNL     1     -10.029  15.689  65.260  1.00  0.00    -0.229 A  
HETATM   36  O   UNL     1     -10.860  17.799  64.625  1.00  0.00    -0.519 OA 
HETATM   37  H   UNL     1     -11.326  17.400  63.899  1.00  0.00     0.000 HD 
HETATM   38  C   UNL     1      -9.303  14.881  66.137  1.00  0.00    -0.307 A  
ENDBRANCH   5  23
TORSDOF 5
ENDMDL
MODEL      185
REMARK 921   NORMALIZED FREE ENERGY PREDICTED BY IDOCK:    0.74 KCAL/MOL
REMARK 922        TOTAL FREE ENERGY PREDICTED BY IDOCK:   -0.39 KCAL/MOL
REMARK 923 INTER-LIGAND FREE ENERGY PREDICTED BY IDOCK:   -2.38 KCAL/MOL
REMARK 924 INTRA-LIGAND FREE ENERGY PREDICTED BY IDOCK:    1.99 KCAL/MOL
REMARK 927      BINDING AFFINITY PREDICTED BY RF-SCORE:    0.00 PKD
ROOT
HETATM    1  C   UNL     1      -9.229  15.802  66.313  1.00  0.00    -0.333 C  
HETATM    2  O   UNL     1      -9.546  14.495  65.809  1.00  0.00    -0.289 OA 
HETATM    3  C   UNL     1     -10.953  14.248  65.808  1.00  0.00    -0.305 C  
HETATM    4  C   UNL     1     -11.572  14.575  67.161  1.00  0.00    -0.406 C  
HETATM    5  C   UNL     1      -7.785  16.067  66.918  1.00  0.00    -0.244 C  
HETATM    6  C   UNL     1     -10.913  15.363  68.058  1.00  0.00    -0.307 C  
HETATM    7  N   UNL     1      -9.781  16.027  67.642  1.00  0.00    -0.223 N  
HETATM    8  C   UNL     1     -11.398  15.481  69.485  1.00  0.00    -0.313 C  
HETATM    9  O   UNL     1     -12.244  14.747  69.978  1.00  0.00    -0.310 OA 
HETATM   10  O   UNL     1     -10.871  16.487  70.211  1.00  0.00    -0.294 OA 
HETATM   11  O   UNL     1      -8.393  16.505  69.434  1.00  0.00    -0.141 OA 
HETATM   12  C   UNL     1      -8.609  16.291  68.261  1.00  0.00    -0.196 C  
ENDROOT
BRANCH   4  13
HETATM   13  C   UNL     1     -12.877  13.830  67.381  1.00  0.00     1.124 C  
BRANCH  13  14
HETATM   14  S   UNL     1     -12.910  12.748  68.838  1.00  0.00     1.916 SA 
BRANCH  14  15
HETATM   15  C   UNL     1     -11.968  11.390  68.367  1.00  0.00    -0.200 A  
HETATM   16  N   UNL     1     -11.499  11.108  67.174  1.00  0.00    -0.473 NA 
HETATM   17  C   UNL     1     -11.858  10.246  70.629  1.00  0.00    -0.347 C  
HETATM   18  N   UNL     1     -10.855   9.900  67.302  1.00  0.00    -0.246 NA 
HETATM   19  N   UNL     1     -10.920   9.454  68.550  1.00  0.00    -0.096 NA 
HETATM   20  N   UNL     1     -11.609  10.390  69.223  1.00  0.00    -0.212 NA 
ENDBRANCH  14  15
ENDBRANCH  13  14
ENDBRANCH   4  13
BRANCH   5  21
HETATM   21  O   UNL     1      -7.120  17.269  66.445  1.00  0.00    -0.227 OA 
HETATM   22  C   UNL     1      -5.712  17.338  66.616  1.00  0.00    -0.200 C  
ENDBRANCH   5  21
BRANCH   5  23
HETATM   23  N   UNL     1      -6.925  14.838  66.940  1.00  0.00     0.140 N  
HETATM   24  C   UNL     1      -6.202  12.634  67.760  1.00  0.00    -0.131 C  
HETATM   25  C   UNL     1      -7.188  13.794  67.802  1.00  0.00    -0.163 C  
HETATM   26  O   UNL     1      -8.181  13.764  68.530  1.00  0.00    -0.150 OA 
HETATM   27  H   UNL     1      -6.131  14.773  66.304  1.00  0.00     0.000 HD 
HETATM   28  C   UNL     1      -6.154  11.816  69.043  1.00  0.00    -0.066 C  
HETATM   29  C   UNL     1      -6.392  11.737  66.538  1.00  0.00     0.083 A  
HETATM   30  C   UNL     1      -5.291  11.027  66.022  1.00  0.00    -0.142 A  
HETATM   31  O   UNL     1      -5.163  11.167  69.364  1.00  0.00    -0.044 OA 
HETATM   32  O   UNL     1      -7.269  11.801  69.807  1.00  0.00     0.141 OA 
HETATM   33  C   UNL     1      -5.417  10.245  64.870  1.00  0.00    -0.120 A  
HETATM   34  C   UNL     1      -6.647  10.162  64.231  1.00  0.00    -0.114 A  
HETATM   35  C   UNL     1      -7.761  10.804  64.756  1.00  0.00     0.209 A  
HETATM   36  O   UNL     1      -6.806   9.458  63.076  1.00  0.00    -0.097 OA 
HETATM   37  H   UNL     1      -7.648   9.401  62.639  1.00  0.00     0.000 HD 
HETATM   38  C   UNL     1      -7.639  11.578  65.911  1.00  0.00     0.390 A  
ENDBRANCH   5  23
TORSDOF 5
ENDMDL
MODEL      186
REMARK 921   NORMALIZED FREE ENERGY PREDICTED BY IDOCK:    2.74 KCAL/MOL
REMARK 922        TOTAL FREE ENERGY PREDICTED BY IDOCK:    2.20 KCAL/MOL
REMARK 923 INTER-LIGAND FREE ENERGY PREDICTED BY IDOCK:    0.48 KCAL/MOL
REMARK 924 INTRA-LIGAND FREE ENERGY PREDICTED BY IDOCK:    1.72 KCAL/MOL
REMARK 927      BINDING AFFINITY PREDICTED BY RF-SCORE:    0.00 PKD
ROOT
HETATM    1  C   UNL     1      -8.921  10.780  69.856  1.00  0.00     0.664 C  
HETATM    2  O   UNL     1      -9.209  11.617  68.725  1.00  0.00    -0.143 OA 
HETATM    3  C   UNL     1     -10.060  12.711  69.071  1.00  0.00     0.186 C  
HETATM    4  C   UNL     1     -11.286  12.234  69.839  1.00  0.00    -0.084 C  
HETATM    5  C   UNL     1      -8.497   9.269  69.610  1.00  0.00    -0.140 C  
HETATM    6  C   UNL     1     -11.307  11.006  70.429  1.00  0.00    -0.132 C  
HETATM    7  N   UNL     1     -10.132  10.292  70.501  1.00  0.00     0.106 N  
HETATM    8  C   UNL     1     -12.596  10.428  70.967  1.00  0.00    -0.393 C  
HETATM    9  O   UNL     1     -13.701  10.897  70.730  1.00  0.00     0.463 OA 
HETATM   10  O   UNL     1     -12.476   9.360  71.779  1.00  0.00    -0.342 OA 
HETATM   11  O   UNL     1     -10.550   8.020  70.666  1.00  0.00    -0.212 OA 
HETATM   12  C   UNL     1      -9.866   8.974  70.367  1.00  0.00    -0.202 C  
ENDROOT
BRANCH   4  13
HETATM   13  C   UNL     1     -12.438  13.219  69.732  1.00  0.00    -0.013 C  
BRANCH  13  14
HETATM   14  S   UNL     1     -12.538  14.120  68.160  1.00  0.00     0.885 SA 
BRANCH  14  15
HETATM   15  C   UNL     1     -12.079  12.955  66.984  1.00  0.00    -0.230 A  
HETATM   16  N   UNL     1     -12.059  11.648  67.107  1.00  0.00    -0.383 NA 
HETATM   17  C   UNL     1     -11.499  14.565  65.111  1.00  0.00    -0.368 C  
HETATM   18  N   UNL     1     -11.577  11.168  65.913  1.00  0.00     0.055 NA 
HETATM   19  N   UNL     1     -11.315  12.158  65.070  1.00  0.00    -0.325 NA 
HETATM   20  N   UNL     1     -11.637  13.280  65.735  1.00  0.00    -0.325 NA 
ENDBRANCH  14  15
ENDBRANCH  13  14
ENDBRANCH   4  13
BRANCH   5  21
HETATM   21  O   UNL     1      -7.327   8.821  70.345  1.00  0.00    -0.051 OA 
HETATM   22  C   UNL     1      -7.287   7.452  70.722  1.00  0.00    -0.069 C  
ENDBRANCH   5  21
BRANCH   5  23
HETATM   23  N   UNL     1      -8.517   8.884  68.161  1.00  0.00    -0.129 N  
HETATM   24  C   UNL     1      -7.551   8.037  66.063  1.00  0.00    -0.085 C  
HETATM   25  C   UNL     1      -7.413   8.324  67.552  1.00  0.00    -0.094 C  
HETATM   26  O   UNL     1      -6.391   8.024  68.170  1.00  0.00    -0.051 OA 
HETATM   27  H   UNL     1      -9.363   9.040  67.614  1.00  0.00     0.000 HD 
HETATM   28  C   UNL     1      -6.224   7.983  65.318  1.00  0.00    -0.045 C  
HETATM   29  C   UNL     1      -8.399   6.800  65.773  1.00  0.00    -0.143 A  
HETATM   30  C   UNL     1      -9.106   6.714  64.558  1.00  0.00     0.997 A  
HETATM   31  O   UNL     1      -6.144   8.210  64.115  1.00  0.00    -0.063 OA 
HETATM   32  O   UNL     1      -5.130   7.638  66.032  1.00  0.00    -0.024 OA 
HETATM   33  C   UNL     1      -9.938   5.623  64.287  1.00  0.00     1.855 A  
HETATM   34  C   UNL     1     -10.063   4.608  65.227  1.00  0.00    -0.101 A  
HETATM   35  C   UNL     1      -9.329   4.641  66.405  1.00  0.00    -0.149 A  
HETATM   36  O   UNL     1     -10.904   3.554  65.033  1.00  0.00    -0.321 OA 
HETATM   37  H   UNL     1     -10.989   2.860  65.676  1.00  0.00     0.000 HD 
HETATM   38  C   UNL     1      -8.490   5.725  66.673  1.00  0.00    -0.113 A  
ENDBRANCH   5  23
TORSDOF 5
ENDMDL
MODEL      187
REMARK 921   NORMALIZED FREE ENERGY PREDICTED BY IDOCK:    3.46 KCAL/MOL
REMARK 922        TOTAL FREE ENERGY PREDICTED BY IDOCK:    3.13 KCAL/MOL
REMARK 923 INTER-LIGAND FREE ENERGY PREDICTED BY IDOCK:    3.96 KCAL/MOL
REMARK 924 INTRA-LIGAND FREE ENERGY PREDICTED BY IDOCK:   -0.83 KCAL/MOL
REMARK 927      BINDING AFFINITY PREDICTED BY RF-SCORE:    0.00 PKD
ROOT
HETATM    1  C   UNL     1     -10.261  14.411  64.714  1.00  0.00    -0.224 C  
HETATM    2  O   UNL     1      -9.237  13.493  65.124  1.00  0.00     0.507 OA 
HETATM    3  C   UNL     1      -8.932  12.540  64.104  1.00  0.00     1.530 C  
HETATM    4  C   UNL     1     -10.197  11.883  63.566  1.00  0.00    -0.485 C  
HETATM    5  C   UNL     1     -11.126  15.150  65.823  1.00  0.00    -0.330 C  
HETATM    6  C   UNL     1     -11.420  12.451  63.771  1.00  0.00    -0.467 C  
HETATM    7  N   UNL     1     -11.474  13.727  64.285  1.00  0.00    -0.365 N  
HETATM    8  C   UNL     1     -12.688  11.686  63.469  1.00  0.00    -0.156 C  
HETATM    9  O   UNL     1     -12.717  10.484  63.238  1.00  0.00     2.859 OA 
HETATM   10  O   UNL     1     -13.823  12.409  63.424  1.00  0.00     0.996 OA 
HETATM   11  O   UNL     1     -13.489  14.103  65.364  1.00  0.00    -0.648 OA 
HETATM   12  C   UNL     1     -12.311  14.309  65.172  1.00  0.00    -0.424 C  
ENDROOT
BRANCH   4  13
HETATM   13  C   UNL     1      -9.909  10.533  62.933  1.00  0.00    -0.178 C  
BRANCH  13  14
HETATM   14  S   UNL     1      -8.464   9.662  63.602  1.00  0.00    -0.205 SA 
BRANCH  14  15
HETATM   15  C   UNL     1      -8.836   9.460  65.267  1.00  0.00    -0.190 A  
HETATM   16  N   UNL     1     -10.019   9.326  65.820  1.00  0.00    -0.250 NA 
HETATM   17  C   UNL     1      -6.462   9.529  66.161  1.00  0.00    -0.070 C  
HETATM   18  N   UNL     1      -9.792   9.243  67.173  1.00  0.00    -0.181 NA 
HETATM   19  N   UNL     1      -8.496   9.315  67.445  1.00  0.00    -0.121 NA 
HETATM   20  N   UNL     1      -7.892   9.442  66.252  1.00  0.00    -0.100 NA 
ENDBRANCH  14  15
ENDBRANCH  13  14
ENDBRANCH   4  13
BRANCH   5  21
HETATM   21  O   UNL     1     -11.275  16.584  65.646  1.00  0.00     0.027 OA 
HETATM   22  C   UNL     1     -10.921  17.118  64.378  1.00  0.00     1.278 C  
ENDBRANCH   5  21
BRANCH   5  23
HETATM   23  N   UNL     1     -10.779  14.719  67.217  1.00  0.00    -0.288 N  
HETATM   24  C   UNL     1      -9.516  14.794  69.328  1.00  0.00    -0.061 C  
HETATM   25  C   UNL     1      -9.810  15.372  67.950  1.00  0.00    -0.219 C  
HETATM   26  O   UNL     1      -9.244  16.390  67.549  1.00  0.00    -0.198 OA 
HETATM   27  H   UNL     1     -11.269  13.927  67.632  1.00  0.00     0.000 HD 
HETATM   28  C   UNL     1      -8.126  15.123  69.854  1.00  0.00     0.139 C  
HETATM   29  C   UNL     1     -10.593  15.135  70.356  1.00  0.00    -0.166 A  
HETATM   30  C   UNL     1     -10.818  14.264  71.439  1.00  0.00     1.735 A  
HETATM   31  O   UNL     1      -7.560  14.417  70.682  1.00  0.00     0.878 OA 
HETATM   32  O   UNL     1      -7.546  16.255  69.397  1.00  0.00    -0.230 OA 
HETATM   33  C   UNL     1     -11.835  14.516  72.365  1.00  0.00     0.004 A  
HETATM   34  C   UNL     1     -12.630  15.646  72.217  1.00  0.00    -0.423 A  
HETATM   35  C   UNL     1     -12.388  16.551  71.192  1.00  0.00     0.875 A  
HETATM   36  O   UNL     1     -13.668  15.904  73.060  1.00  0.00    -0.591 OA 
HETATM   37  H   UNL     1     -14.212  16.677  72.959  1.00  0.00     0.000 HD 
HETATM   38  C   UNL     1     -11.367  16.305  70.272  1.00  0.00    -0.299 A  
ENDBRANCH   5  23
TORSDOF 5
ENDMDL
MODEL      188
REMARK 921   NORMALIZED FREE ENERGY PREDICTED BY IDOCK:    5.17 KCAL/MOL
REMARK 922        TOTAL FREE ENERGY PREDICTED BY IDOCK:    5.34 KCAL/MOL
REMARK 923 INTER-LIGAND FREE ENERGY PREDICTED BY IDOCK:    0.54 KCAL/MOL
REMARK 924 INTRA-LIGAND FREE ENERGY PREDICTED BY IDOCK:    4.80 KCAL/MOL
REMARK 927      BINDING AFFINITY PREDICTED BY RF-SCORE:    0.00 PKD
ROOT
HETATM    1  C   UNL     1      -9.936   5.131  67.756  1.00  0.00    -0.156 C  
HETATM    2  O   UNL     1      -8.524   5.375  67.842  1.00  0.00    -0.099 OA 
HETATM    3  C   UNL     1      -7.875   4.460  68.728  1.00  0.00    -0.070 C  
HETATM    4  C   UNL     1      -8.592   4.391  70.070  1.00  0.00    -0.099 C  
HETATM    5  C   UNL     1     -10.898   6.315  67.313  1.00  0.00    -0.375 C  
HETATM    6  C   UNL     1      -9.873   4.838  70.202  1.00  0.00    -0.238 C  
HETATM    7  N   UNL     1     -10.579   5.155  69.063  1.00  0.00    -0.092 N  
HETATM    8  C   UNL     1     -10.495   5.009  71.569  1.00  0.00    -0.155 C  
HETATM    9  O   UNL     1      -9.859   4.973  72.614  1.00  0.00    -0.153 OA 
HETATM   10  O   UNL     1     -11.832   5.172  71.599  1.00  0.00     0.637 OA 
HETATM   11  O   UNL     1     -12.262   6.678  69.526  1.00  0.00     0.190 OA 
HETATM   12  C   UNL     1     -11.460   6.143  68.793  1.00  0.00     0.152 C  
ENDROOT
BRANCH   4  13
HETATM   13  C   UNL     1      -7.671   3.907  71.178  1.00  0.00    -0.055 C  
BRANCH  13  14
HETATM   14  S   UNL     1      -7.957   4.664  72.802  1.00  0.00    -0.097 SA 
BRANCH  14  15
HETATM   15  C   UNL     1      -6.823   5.953  72.864  1.00  0.00    -0.075 A  
HETATM   16  N   UNL     1      -6.748   6.920  73.748  1.00  0.00    -0.071 NA 
HETATM   17  C   UNL     1      -5.493   5.343  70.791  1.00  0.00    -0.008 C  
HETATM   18  N   UNL     1      -5.708   7.721  73.339  1.00  0.00    -0.048 NA 
HETATM   19  N   UNL     1      -5.150   7.250  72.232  1.00  0.00    -0.035 NA 
HETATM   20  N   UNL     1      -5.840   6.137  71.935  1.00  0.00    -0.031 NA 
ENDBRANCH  14  15
ENDBRANCH  13  14
ENDBRANCH   4  13
BRANCH   5  21
HETATM   21  O   UNL     1     -11.871   5.978  66.287  1.00  0.00     1.093 OA 
HETATM   22  C   UNL     1     -11.454   5.074  65.275  1.00  0.00     1.000 C  
ENDBRANCH   5  21
BRANCH   5  23
HETATM   23  N   UNL     1     -10.171   7.608  67.093  1.00  0.00    -0.259 N  
HETATM   24  C   UNL     1      -8.583   9.112  65.967  1.00  0.00    -0.162 C  
HETATM   25  C   UNL     1      -9.298   7.770  66.037  1.00  0.00    -0.037 C  
HETATM   26  O   UNL     1      -9.134   6.911  65.170  1.00  0.00     0.261 OA 
HETATM   27  H   UNL     1     -10.325   8.384  67.737  1.00  0.00     0.000 HD 
HETATM   28  C   UNL     1      -7.266   9.073  65.205  1.00  0.00    -0.088 C  
HETATM   29  C   UNL     1      -9.483  10.238  65.459  1.00  0.00    -0.277 A  
HETATM   30  C   UNL     1      -9.230  11.563  65.864  1.00  0.00    -0.223 A  
HETATM   31  O   UNL     1      -6.369   9.884  65.413  1.00  0.00    -0.076 OA 
HETATM   32  O   UNL     1      -7.132   8.121  64.254  1.00  0.00    -0.074 OA 
HETATM   33  C   UNL     1     -10.069  12.608  65.466  1.00  0.00    -0.279 A  
HETATM   34  C   UNL     1     -11.163  12.335  64.654  1.00  0.00    -0.315 A  
HETATM   35  C   UNL     1     -11.397  11.047  64.192  1.00  0.00     0.299 A  
HETATM   36  O   UNL     1     -12.040  13.310  64.286  1.00  0.00    -0.388 OA 
HETATM   37  H   UNL     1     -12.788  13.124  63.730  1.00  0.00     0.000 HD 
HETATM   38  C   UNL     1     -10.555  10.003  64.582  1.00  0.00     0.943 A  
ENDBRANCH   5  23
TORSDOF 5
ENDMDL
MODEL      189
REMARK 921   NORMALIZED FREE ENERGY PREDICTED BY IDOCK:    5.18 KCAL/MOL
REMARK 922        TOTAL FREE ENERGY PREDICTED BY IDOCK:    5.35 KCAL/MOL
REMARK 923 INTER-LIGAND FREE ENERGY PREDICTED BY IDOCK:    2.25 KCAL/MOL
REMARK 924 INTRA-LIGAND FREE ENERGY PREDICTED BY IDOCK:    3.10 KCAL/MOL
REMARK 927      BINDING AFFINITY PREDICTED BY RF-SCORE:    0.00 PKD
ROOT
HETATM    1  C   UNL     1      -8.713   8.834  70.535  1.00  0.00    -0.174 C  
HETATM    2  O   UNL     1      -7.646   7.888  70.705  1.00  0.00    -0.074 OA 
HETATM    3  C   UNL     1      -6.746   7.890  69.596  1.00  0.00    -0.042 C  
HETATM    4  C   UNL     1      -7.497   7.771  68.276  1.00  0.00    -0.104 C  
HETATM    5  C   UNL     1     -10.075   8.611  71.321  1.00  0.00    -0.242 C  
HETATM    6  C   UNL     1      -8.832   8.039  68.206  1.00  0.00    -0.133 C  
HETATM    7  N   UNL     1      -9.444   8.620  69.293  1.00  0.00    -0.157 N  
HETATM    8  C   UNL     1      -9.628   7.680  66.972  1.00  0.00    -0.175 C  
HETATM    9  O   UNL     1      -9.206   6.960  66.077  1.00  0.00    -0.125 OA 
HETATM   10  O   UNL     1     -10.853   8.233  66.872  1.00  0.00    -0.228 OA 
HETATM   11  O   UNL     1     -11.711   8.148  69.321  1.00  0.00     0.678 OA 
HETATM   12  C   UNL     1     -10.661   8.435  69.851  1.00  0.00    -0.228 C  
ENDROOT
BRANCH   4  13
HETATM   13  C   UNL     1      -6.614   7.218  67.171  1.00  0.00    -0.063 C  
BRANCH  13  14
HETATM   14  S   UNL     1      -7.177   5.654  66.444  1.00  0.00    -0.078 SA 
BRANCH  14  15
HETATM   15  C   UNL     1      -6.676   4.465  67.578  1.00  0.00    -0.047 A  
HETATM   16  N   UNL     1      -5.516   4.365  68.183  1.00  0.00    -0.015 NA 
HETATM   17  C   UNL     1      -8.817   3.104  67.619  1.00  0.00    -0.135 C  
HETATM   18  N   UNL     1      -5.591   3.228  68.951  1.00  0.00    -0.020 NA 
HETATM   19  N   UNL     1      -6.777   2.646  68.828  1.00  0.00    -0.036 NA 
HETATM   20  N   UNL     1      -7.464   3.424  67.975  1.00  0.00    -0.054 NA 
ENDBRANCH  14  15
ENDBRANCH  13  14
ENDBRANCH   4  13
BRANCH   5  21
HETATM   21  O   UNL     1     -10.597   9.779  72.010  1.00  0.00     0.449 OA 
HETATM   22  C   UNL     1     -11.958  10.111  71.778  1.00  0.00    -0.091 C  
ENDBRANCH   5  21
BRANCH   5  23
HETATM   23  N   UNL     1     -10.086   7.346  72.127  1.00  0.00    -0.186 N  
HETATM   24  C   UNL     1     -10.985   5.179  72.868  1.00  0.00    -0.345 C  
HETATM   25  C   UNL     1     -11.059   6.386  71.943  1.00  0.00    -0.268 C  
HETATM   26  O   UNL     1     -11.912   6.463  71.058  1.00  0.00    -0.333 OA 
HETATM   27  H   UNL     1      -9.359   7.192  72.824  1.00  0.00     0.000 HD 
HETATM   28  C   UNL     1     -12.315   4.462  73.058  1.00  0.00     0.636 C  
HETATM   29  C   UNL     1      -9.878   4.201  72.479  1.00  0.00    -0.213 A  
HETATM   30  C   UNL     1      -9.283   3.399  73.471  1.00  0.00    -0.106 A  
HETATM   31  O   UNL     1     -12.555   3.792  74.057  1.00  0.00     1.199 OA 
HETATM   32  O   UNL     1     -13.217   4.562  72.057  1.00  0.00     3.417 OA 
HETATM   33  C   UNL     1      -8.227   2.537  73.160  1.00  0.00    -0.069 A  
HETATM   34  C   UNL     1      -7.765   2.466  71.852  1.00  0.00    -0.045 A  
HETATM   35  C   UNL     1      -8.377   3.201  70.845  1.00  0.00    -0.091 A  
HETATM   36  O   UNL     1      -6.704   1.683  71.510  1.00  0.00    -0.022 OA 
HETATM   37  H   UNL     1      -6.388   1.634  70.615  1.00  0.00     0.000 HD 
HETATM   38  C   UNL     1      -9.437   4.056  71.153  1.00  0.00    -0.230 A  
ENDBRANCH   5  23
TORSDOF 5
ENDMDL
MODEL      190
REMARK 921   NORMALIZED FREE ENERGY PREDICTED BY IDOCK:    5.74 KCAL/MOL
REMARK 922        TOTAL FREE ENERGY PREDICTED BY IDOCK:    6.07 KCAL/MOL
REMARK 923 INTER-LIGAND FREE ENERGY PREDICTED BY IDOCK:    4.88 KCAL/MOL
REMARK 924 INTRA-LIGAND FREE ENERGY PREDICTED BY IDOCK:    1.20 KCAL/MOL
REMARK 927      BINDING AFFINITY PREDICTED BY RF-SCORE:    0.00 PKD
ROOT
HETATM    1  C   UNL     1      -9.897  12.784  65.831  1.00  0.00    -0.238 C  
HETATM    2  O   UNL     1      -8.592  12.863  66.425  1.00  0.00     0.031 OA 
HETATM    3  C   UNL     1      -7.931  11.596  66.437  1.00  0.00     0.005 C  
HETATM    4  C   UNL     1      -8.829  10.510  67.015  1.00  0.00    -0.142 C  
HETATM    5  C   UNL     1     -10.986  13.875  66.211  1.00  0.00    -0.298 C  
HETATM    6  C   UNL     1     -10.176  10.694  67.107  1.00  0.00    -0.216 C  
HETATM    7  N   UNL     1     -10.736  11.783  66.477  1.00  0.00    -0.254 N  
HETATM    8  C   UNL     1     -11.034   9.738  67.905  1.00  0.00    -0.188 C  
HETATM    9  O   UNL     1     -10.582   8.898  68.671  1.00  0.00    -0.209 OA 
HETATM   10  O   UNL     1     -12.364   9.824  67.706  1.00  0.00     2.568 OA 
HETATM   11  O   UNL     1     -12.736  12.384  67.478  1.00  0.00     0.534 OA 
HETATM   12  C   UNL     1     -11.737  12.617  66.835  1.00  0.00    -0.383 C  
ENDROOT
BRANCH   4  13
HETATM   13  C   UNL     1      -8.025   9.340  67.554  1.00  0.00    -0.099 C  
BRANCH  13  14
HETATM   14  S   UNL     1      -8.496   7.715  66.899  1.00  0.00    -0.129 SA 
BRANCH  14  15
HETATM   15  C   UNL     1      -8.123   6.628  68.177  1.00  0.00    -0.111 A  
HETATM   16  N   UNL     1      -7.147   6.715  69.051  1.00  0.00    -0.086 NA 
HETATM   17  C   UNL     1      -9.982   4.953  67.760  1.00  0.00    -0.131 C  
HETATM   18  N   UNL     1      -7.243   5.587  69.830  1.00  0.00    -0.066 NA 
HETATM   19  N   UNL     1      -8.262   4.828  69.450  1.00  0.00    -0.076 NA 
HETATM   20  N   UNL     1      -8.822   5.482  68.419  1.00  0.00    -0.108 NA 
ENDBRANCH  14  15
ENDBRANCH  13  14
ENDBRANCH   4  13
BRANCH   5  21
HETATM   21  O   UNL     1     -11.694  14.468  65.090  1.00  0.00    -0.354 OA 
HETATM   22  C   UNL     1     -10.934  15.269  64.197  1.00  0.00     0.461 C  
ENDBRANCH   5  21
BRANCH   5  23
HETATM   23  N   UNL     1     -10.500  14.854  67.239  1.00  0.00    -0.259 N  
HETATM   24  C   UNL     1     -10.324  17.061  68.312  1.00  0.00    -0.347 C  
HETATM   25  C   UNL     1     -10.943  16.160  67.252  1.00  0.00    -0.175 C  
HETATM   26  O   UNL     1     -11.821  16.574  66.494  1.00  0.00     1.084 OA 
HETATM   27  H   UNL     1      -9.828  14.548  67.941  1.00  0.00     0.000 HD 
HETATM   28  C   UNL     1     -10.362  18.543  67.964  1.00  0.00    -0.383 C  
HETATM   29  C   UNL     1     -10.884  16.805  69.710  1.00  0.00    -0.156 A  
HETATM   30  C   UNL     1     -10.083  17.071  70.837  1.00  0.00     2.563 A  
HETATM   31  O   UNL     1      -9.559  19.342  68.433  1.00  0.00    -0.339 OA 
HETATM   32  O   UNL     1     -11.349  18.956  67.138  1.00  0.00     0.015 OA 
HETATM   33  C   UNL     1     -10.543  16.792  72.127  1.00  0.00     3.193 A  
HETATM   34  C   UNL     1     -11.811  16.252  72.299  1.00  0.00    -0.511 A  
HETATM   35  C   UNL     1     -12.642  16.038  71.208  1.00  0.00    -0.239 A  
HETATM   36  O   UNL     1     -12.281  15.911  73.531  1.00  0.00    -0.448 OA 
HETATM   37  H   UNL     1     -13.149  15.542  73.649  1.00  0.00     0.000 HD 
HETATM   38  C   UNL     1     -12.188  16.324  69.919  1.00  0.00     0.367 A  
ENDBRANCH   5  23
TORSDOF 5
ENDMDL
MODEL      191
REMARK 921   NORMALIZED FREE ENERGY PREDICTED BY IDOCK:    7.29 KCAL/MOL
REMARK 922        TOTAL FREE ENERGY PREDICTED BY IDOCK:    8.07 KCAL/MOL
REMARK 923 INTER-LIGAND FREE ENERGY PREDICTED BY IDOCK:   -2.81 KCAL/MOL
REMARK 924 INTRA-LIGAND FREE ENERGY PREDICTED BY IDOCK:   10.88 KCAL/MOL
REMARK 927      BINDING AFFINITY PREDICTED BY RF-SCORE:    0.00 PKD
ROOT
HETATM    1  C   UNL     1      -9.981  10.569  65.574  1.00  0.00    -0.279 C  
HETATM    2  O   UNL     1      -8.633  11.054  65.680  1.00  0.00    -0.181 OA 
HETATM    3  C   UNL     1      -7.674  10.000  65.568  1.00  0.00    -0.135 C  
HETATM    4  C   UNL     1      -8.011   8.846  66.504  1.00  0.00    -0.103 C  
HETATM    5  C   UNL     1     -11.160  11.420  66.212  1.00  0.00    -0.221 C  
HETATM    6  C   UNL     1      -9.261   8.719  67.033  1.00  0.00    -0.142 C  
HETATM    7  N   UNL     1     -10.267   9.523  66.546  1.00  0.00    -0.253 N  
HETATM    8  C   UNL     1      -9.530   7.736  68.151  1.00  0.00    -0.146 C  
HETATM    9  O   UNL     1      -8.649   7.169  68.783  1.00  0.00    -0.125 OA 
HETATM   10  O   UNL     1     -10.825   7.470  68.410  1.00  0.00    -0.114 OA 
HETATM   11  O   UNL     1     -11.948   9.793  68.115  1.00  0.00     0.616 OA 
HETATM   12  C   UNL     1     -11.301  10.144  67.154  1.00  0.00     0.381 C  
ENDROOT
BRANCH   4  13
HETATM   13  C   UNL     1      -6.788   8.007  66.830  1.00  0.00    -0.073 C  
BRANCH  13  14
HETATM   14  S   UNL     1      -7.074   6.649  67.998  1.00  0.00    -0.092 SA 
BRANCH  14  15
HETATM   15  C   UNL     1      -7.353   5.286  66.990  1.00  0.00    -0.083 A  
HETATM   16  N   UNL     1      -6.622   4.202  66.878  1.00  0.00    -0.045 NA 
HETATM   17  C   UNL     1      -9.493   6.099  65.896  1.00  0.00     0.063 C  
HETATM   18  N   UNL     1      -7.234   3.435  65.916  1.00  0.00    -0.066 NA 
HETATM   19  N   UNL     1      -8.324   4.033  65.451  1.00  0.00    -0.108 NA 
HETATM   20  N   UNL     1      -8.407   5.190  66.129  1.00  0.00    -0.113 NA 
ENDBRANCH  14  15
ENDBRANCH  13  14
ENDBRANCH   4  13
BRANCH   5  21
HETATM   21  O   UNL     1     -12.314  11.631  65.354  1.00  0.00    -0.041 OA 
HETATM   22  C   UNL     1     -12.058  11.899  63.984  1.00  0.00    -0.342 C  
ENDBRANCH   5  21
BRANCH   5  23
HETATM   23  N   UNL     1     -10.676  12.645  66.930  1.00  0.00    -0.240 N  
HETATM   24  C   UNL     1      -9.013  14.335  67.588  1.00  0.00    -0.194 C  
HETATM   25  C   UNL     1      -9.392  13.119  66.753  1.00  0.00    -0.244 C  
HETATM   26  O   UNL     1      -8.607  12.631  65.940  1.00  0.00     0.400 OA 
HETATM   27  H   UNL     1     -11.307  13.137  67.561  1.00  0.00     0.000 HD 
HETATM   28  C   UNL     1      -7.516  14.481  67.825  1.00  0.00    -0.169 C  
HETATM   29  C   UNL     1      -9.618  15.632  67.054  1.00  0.00    -0.233 A  
HETATM   30  C   UNL     1      -9.881  16.691  67.945  1.00  0.00    -0.248 A  
HETATM   31  O   UNL     1      -7.067  15.088  68.792  1.00  0.00    -0.103 OA 
HETATM   32  O   UNL     1      -6.691  13.940  66.901  1.00  0.00     0.186 OA 
HETATM   33  C   UNL     1     -10.489  17.869  67.500  1.00  0.00    -0.398 A  
HETATM   34  C   UNL     1     -10.831  17.998  66.160  1.00  0.00     0.050 A  
HETATM   35  C   UNL     1     -10.526  16.993  65.252  1.00  0.00    -0.056 A  
HETATM   36  O   UNL     1     -11.475  19.103  65.690  1.00  0.00     0.415 OA 
HETATM   37  H   UNL     1     -11.709  19.192  64.773  1.00  0.00     0.000 HD 
HETATM   38  C   UNL     1      -9.911  15.819  65.693  1.00  0.00    -0.378 A  
ENDBRANCH   5  23
TORSDOF 5
ENDMDL
MODEL      192
REMARK 921   NORMALIZED FREE ENERGY PREDICTED BY IDOCK:    8.62 KCAL/MOL
REMARK 922        TOTAL FREE ENERGY PREDICTED BY IDOCK:    9.80 KCAL/MOL
REMARK 923 INTER-LIGAND FREE ENERGY PREDICTED BY IDOCK:    8.77 KCAL/MOL
REMARK 924 INTRA-LIGAND FREE ENERGY PREDICTED BY IDOCK:    1.03 KCAL/MOL
REMARK 927      BINDING AFFINITY PREDICTED BY RF-SCORE:    0.00 PKD
ROOT
HETATM    1  C   UNL     1      -6.691  11.941  66.587  1.00  0.00     0.088 C  
HETATM    2  O   UNL     1      -6.077  11.476  67.799  1.00  0.00    -0.047 OA 
HETATM    3  C   UNL     1      -5.366  10.252  67.604  1.00  0.00    -0.037 C  
HETATM    4  C   UNL     1      -6.231   9.219  66.892  1.00  0.00    -0.065 C  
HETATM    5  C   UNL     1      -7.943  12.914  66.679  1.00  0.00     0.374 C  
HETATM    6  C   UNL     1      -7.349   9.596  66.209  1.00  0.00    -0.094 C  
HETATM    7  N   UNL     1      -7.567  10.939  65.995  1.00  0.00    -0.129 N  
HETATM    8  C   UNL     1      -8.342   8.565  65.722  1.00  0.00    -0.140 C  
HETATM    9  O   UNL     1      -8.333   7.394  66.076  1.00  0.00    -0.128 OA 
HETATM   10  O   UNL     1      -9.248   8.991  64.821  1.00  0.00    -0.123 OA 
HETATM   11  O   UNL     1      -9.820  11.375  65.680  1.00  0.00    -0.217 OA 
HETATM   12  C   UNL     1      -8.694  11.684  66.003  1.00  0.00    -0.055 C  
ENDROOT
BRANCH   4  13
HETATM   13  C   UNL     1      -5.756   7.802  67.161  1.00  0.00    -0.036 C  
BRANCH  13  14
HETATM   14  S   UNL     1      -6.432   7.034  68.660  1.00  0.00    -0.037 SA 
BRANCH  14  15
HETATM   15  C   UNL     1      -7.060   8.358  69.557  1.00  0.00    -0.053 A  
HETATM   16  N   UNL     1      -8.140   9.061  69.310  1.00  0.00    -0.103 NA 
HETATM   17  C   UNL     1      -5.270   8.437  71.354  1.00  0.00    -0.033 C  
HETATM   18  N   UNL     1      -8.186  10.031  70.282  1.00  0.00    -0.133 NA 
HETATM   19  N   UNL     1      -7.160   9.921  71.116  1.00  0.00    -0.280 NA 
HETATM   20  N   UNL     1      -6.456   8.867  70.670  1.00  0.00    -0.042 NA 
ENDBRANCH  14  15
ENDBRANCH  13  14
ENDBRANCH   4  13
BRANCH   5  21
HETATM   21  O   UNL     1      -7.885  14.089  65.827  1.00  0.00     2.467 OA 
HETATM   22  C   UNL     1      -8.763  15.160  66.144  1.00  0.00     0.049 C  
ENDBRANCH   5  21
BRANCH   5  23
HETATM   23  N   UNL     1      -8.375  13.179  68.091  1.00  0.00    -0.155 N  
HETATM   24  C   UNL     1      -8.395  14.400  70.227  1.00  0.00     1.536 C  
HETATM   25  C   UNL     1      -7.926  14.285  68.783  1.00  0.00    -0.119 C  
HETATM   26  O   UNL     1      -7.230  15.158  68.264  1.00  0.00    -0.102 OA 
HETATM   27  H   UNL     1      -9.013  12.528  68.549  1.00  0.00     0.000 HD 
HETATM   28  C   UNL     1      -7.482  15.238  71.110  1.00  0.00     2.256 C  
HETATM   29  C   UNL     1      -9.849  14.855  70.344  1.00  0.00     0.590 A  
HETATM   30  C   UNL     1     -10.608  14.469  71.465  1.00  0.00     1.815 A  
HETATM   31  O   UNL     1      -7.432  15.085  72.326  1.00  0.00     3.168 OA 
HETATM   32  O   UNL     1      -6.744  16.194  70.502  1.00  0.00     0.452 OA 
HETATM   33  C   UNL     1     -11.958  14.818  71.574  1.00  0.00    -0.415 A  
HETATM   34  C   UNL     1     -12.554  15.564  70.565  1.00  0.00    -0.416 A  
HETATM   35  C   UNL     1     -11.811  16.009  69.480  1.00  0.00    -0.243 A  
HETATM   36  O   UNL     1     -13.879  15.881  70.599  1.00  0.00    -0.573 OA 
HETATM   37  H   UNL     1     -14.287  16.391  69.909  1.00  0.00     0.000 HD 
HETATM   38  C   UNL     1     -10.461  15.668  69.374  1.00  0.00    -0.253 A  
ENDBRANCH   5  23
TORSDOF 5
ENDMDL
MODEL      193
REMARK 921   NORMALIZED FREE ENERGY PREDICTED BY IDOCK:    9.30 KCAL/MOL
REMARK 922        TOTAL FREE ENERGY PREDICTED BY IDOCK:   10.68 KCAL/MOL
REMARK 923 INTER-LIGAND FREE ENERGY PREDICTED BY IDOCK:    1.46 KCAL/MOL
REMARK 924 INTRA-LIGAND FREE ENERGY PREDICTED BY IDOCK:    9.22 KCAL/MOL
REMARK 927      BINDING AFFINITY PREDICTED BY RF-SCORE:    0.00 PKD
ROOT
HETATM    1  C   UNL     1     -10.959   8.542  69.861  1.00  0.00    -0.165 C  
HETATM    2  O   UNL     1      -9.833   8.765  70.724  1.00  0.00    -0.179 OA 
HETATM    3  C   UNL     1      -9.541  10.155  70.876  1.00  0.00     1.029 C  
HETATM    4  C   UNL     1      -9.455  10.852  69.524  1.00  0.00     0.157 C  
HETATM    5  C   UNL     1     -11.101   7.143  69.122  1.00  0.00    -0.043 C  
HETATM    6  C   UNL     1      -9.987  10.278  68.407  1.00  0.00    -0.157 C  
HETATM    7  N   UNL     1     -10.784   9.165  68.557  1.00  0.00    -0.164 N  
HETATM    8  C   UNL     1      -9.685  10.833  67.034  1.00  0.00    -0.176 C  
HETATM    9  O   UNL     1      -8.810  11.660  66.814  1.00  0.00    -0.172 OA 
HETATM   10  O   UNL     1     -10.468  10.395  66.029  1.00  0.00    -0.219 OA 
HETATM   11  O   UNL     1     -10.799   7.889  66.624  1.00  0.00    -0.126 OA 
HETATM   12  C   UNL     1     -10.910   8.039  67.821  1.00  0.00    -0.011 C  
ENDROOT
BRANCH   4  13
HETATM   13  C   UNL     1      -8.627  12.124  69.595  1.00  0.00     1.771 C  
BRANCH  13  14
HETATM   14  S   UNL     1      -8.411  12.991  68.016  1.00  0.00    -0.179 SA 
BRANCH  14  15
HETATM   15  C   UNL     1      -9.586  14.244  68.066  1.00  0.00    -0.223 A  
HETATM   16  N   UNL     1     -10.826  14.171  68.488  1.00  0.00    -0.244 NA 
HETATM   17  C   UNL     1      -8.153  16.099  67.096  1.00  0.00    -0.192 C  
HETATM   18  N   UNL     1     -11.365  15.418  68.283  1.00  0.00    -0.334 NA 
HETATM   19  N   UNL     1     -10.471  16.243  67.754  1.00  0.00    -0.288 NA 
HETATM   20  N   UNL     1      -9.351  15.514  67.625  1.00  0.00    -0.202 NA 
ENDBRANCH  14  15
ENDBRANCH  13  14
ENDBRANCH   4  13
BRANCH   5  21
HETATM   21  O   UNL     1     -12.412   6.523  69.205  1.00  0.00     1.228 OA 
HETATM   22  C   UNL     1     -13.006   6.440  70.493  1.00  0.00     1.454 C  
ENDBRANCH   5  21
BRANCH   5  23
HETATM   23  N   UNL     1      -9.949   6.221  69.390  1.00  0.00    -0.154 N  
HETATM   24  C   UNL     1      -7.645   5.659  70.049  1.00  0.00    -0.082 C  
HETATM   25  C   UNL     1      -8.749   6.695  69.879  1.00  0.00    -0.141 C  
HETATM   26  O   UNL     1      -8.581   7.870  70.208  1.00  0.00    -0.133 OA 
HETATM   27  H   UNL     1     -10.054   5.223  69.208  1.00  0.00     0.000 HD 
HETATM   28  C   UNL     1      -6.239   6.242  70.017  1.00  0.00    -0.031 C  
HETATM   29  C   UNL     1      -7.849   4.770  71.274  1.00  0.00    -0.088 A  
HETATM   30  C   UNL     1      -7.327   3.463  71.276  1.00  0.00    -0.033 A  
HETATM   31  O   UNL     1      -5.264   5.572  69.694  1.00  0.00    -0.004 OA 
HETATM   32  O   UNL     1      -6.098   7.532  70.398  1.00  0.00    -0.030 OA 
HETATM   33  C   UNL     1      -7.547   2.603  72.357  1.00  0.00    -0.052 A  
HETATM   34  C   UNL     1      -8.284   3.049  73.446  1.00  0.00    -0.073 A  
HETATM   35  C   UNL     1      -8.757   4.354  73.494  1.00  0.00    -0.099 A  
HETATM   36  O   UNL     1      -8.572   2.232  74.497  1.00  0.00    -0.064 OA 
HETATM   37  H   UNL     1      -9.076   2.537  75.242  1.00  0.00     0.000 HD 
HETATM   38  C   UNL     1      -8.531   5.216  72.419  1.00  0.00    -0.121 A  
ENDBRANCH   5  23
TORSDOF 5
ENDMDL
MODEL      194
REMARK 921   NORMALIZED FREE ENERGY PREDICTED BY IDOCK:    9.90 KCAL/MOL
REMARK 922        TOTAL FREE ENERGY PREDICTED BY IDOCK:   11.45 KCAL/MOL
REMARK 923 INTER-LIGAND FREE ENERGY PREDICTED BY IDOCK:    9.10 KCAL/MOL
REMARK 924 INTRA-LIGAND FREE ENERGY PREDICTED BY IDOCK:    2.35 KCAL/MOL
REMARK 927      BINDING AFFINITY PREDICTED BY RF-SCORE:    0.00 PKD
ROOT
HETATM    1  C   UNL     1      -5.285  13.315  70.671  1.00  0.00    -0.131 C  
HETATM    2  O   UNL     1      -5.852  13.521  69.368  1.00  0.00    -0.084 OA 
HETATM    3  C   UNL     1      -5.296  14.665  68.717  1.00  0.00    -0.089 C  
HETATM    4  C   UNL     1      -5.329  15.887  69.626  1.00  0.00    -0.116 C  
HETATM    5  C   UNL     1      -6.114  12.498  71.753  1.00  0.00     1.850 C  
HETATM    6  C   UNL     1      -5.494  15.752  70.972  1.00  0.00     0.016 C  
HETATM    7  N   UNL     1      -5.417  14.491  71.520  1.00  0.00    -0.153 N  
HETATM    8  C   UNL     1      -5.782  16.955  71.840  1.00  0.00     1.269 C  
HETATM    9  O   UNL     1      -6.092  18.053  71.397  1.00  0.00     0.885 OA 
HETATM   10  O   UNL     1      -5.643  16.778  73.168  1.00  0.00     1.332 OA 
HETATM   11  O   UNL     1      -6.583  14.382  73.519  1.00  0.00     0.543 OA 
HETATM   12  C   UNL     1      -6.110  13.895  72.516  1.00  0.00     0.816 C  
ENDROOT
BRANCH   4  13
HETATM   13  C   UNL     1      -5.288  17.182  68.833  1.00  0.00    -0.146 C  
BRANCH  13  14
HETATM   14  S   UNL     1      -6.908  17.843  68.353  1.00  0.00    -0.235 SA 
BRANCH  14  15
HETATM   15  C   UNL     1      -6.620  18.579  66.827  1.00  0.00    -0.186 A  
HETATM   16  N   UNL     1      -6.625  18.012  65.643  1.00  0.00    -0.321 NA 
HETATM   17  C   UNL     1      -6.208  20.941  67.657  1.00  0.00    -0.324 C  
HETATM   18  N   UNL     1      -6.295  19.005  64.752  1.00  0.00    -0.488 NA 
HETATM   19  N   UNL     1      -6.101  20.160  65.374  1.00  0.00    -0.199 NA 
HETATM   20  N   UNL     1      -6.313  19.900  66.675  1.00  0.00    -0.188 NA 
ENDBRANCH  14  15
ENDBRANCH  13  14
ENDBRANCH   4  13
BRANCH   5  21
HETATM   21  O   UNL     1      -5.375  11.460  72.452  1.00  0.00    -0.246 OA 
HETATM   22  C   UNL     1      -5.250  10.206  71.799  1.00  0.00    -0.042 C  
ENDBRANCH   5  21
BRANCH   5  23
HETATM   23  N   UNL     1      -7.469  12.086  71.262  1.00  0.00     5.476 N  
HETATM   24  C   UNL     1      -9.124  11.430  69.562  1.00  0.00     0.743 C  
HETATM   25  C   UNL     1      -7.688  11.775  69.936  1.00  0.00     1.314 C  
HETATM   26  O   UNL     1      -6.781  11.728  69.104  1.00  0.00    -0.095 OA 
HETATM   27  H   UNL     1      -8.245  12.033  71.921  1.00  0.00     0.000 HD 
HETATM   28  C   UNL     1      -9.454  11.661  68.094  1.00  0.00    -0.191 C  
HETATM   29  C   UNL     1      -9.532  10.028  70.009  1.00  0.00    -0.184 A  
HETATM   30  C   UNL     1     -10.885   9.756  70.290  1.00  0.00    -0.356 A  
HETATM   31  O   UNL     1     -10.600  11.872  67.711  1.00  0.00    -0.195 OA 
HETATM   32  O   UNL     1      -8.431  11.588  67.214  1.00  0.00    -0.141 OA 
HETATM   33  C   UNL     1     -11.283   8.500  70.757  1.00  0.00    -0.289 A  
HETATM   34  C   UNL     1     -10.332   7.505  70.939  1.00  0.00    -0.201 A  
HETATM   35  C   UNL     1      -9.002   7.730  70.611  1.00  0.00    -0.145 A  
HETATM   36  O   UNL     1     -10.663   6.284  71.445  1.00  0.00    -0.231 OA 
HETATM   37  H   UNL     1     -10.012   5.603  71.569  1.00  0.00     0.000 HD 
HETATM   38  C   UNL     1      -8.603   8.981  70.136  1.00  0.00    -0.169 A  
ENDBRANCH   5  23
TORSDOF 5
ENDMDL
MODEL      195
REMARK 921   NORMALIZED FREE ENERGY PREDICTED BY IDOCK:   11.60 KCAL/MOL
REMARK 922        TOTAL FREE ENERGY PREDICTED BY IDOCK:   13.64 KCAL/MOL
REMARK 923 INTER-LIGAND FREE ENERGY PREDICTED BY IDOCK:    9.87 KCAL/MOL
REMARK 924 INTRA-LIGAND FREE ENERGY PREDICTED BY IDOCK:    3.77 KCAL/MOL
REMARK 927      BINDING AFFINITY PREDICTED BY RF-SCORE:    0.00 PKD
ROOT
HETATM    1  C   UNL     1      -6.198   9.342  69.612  1.00  0.00    -0.039 C  
HETATM    2  O   UNL     1      -6.828  10.216  70.562  1.00  0.00    -0.215 OA 
HETATM    3  C   UNL     1      -6.801   9.678  71.885  1.00  0.00     0.715 C  
HETATM    4  C   UNL     1      -7.309   8.242  71.906  1.00  0.00    -0.111 C  
HETATM    5  C   UNL     1      -6.598   9.452  68.078  1.00  0.00    -0.063 C  
HETATM    6  C   UNL     1      -7.375   7.507  70.760  1.00  0.00    -0.068 C  
HETATM    7  N   UNL     1      -6.779   8.007  69.624  1.00  0.00    -0.038 N  
HETATM    8  C   UNL     1      -8.109   6.186  70.730  1.00  0.00    -0.124 C  
HETATM    9  O   UNL     1      -8.849   5.800  71.625  1.00  0.00    -0.135 OA 
HETATM   10  O   UNL     1      -7.881   5.402  69.658  1.00  0.00    -0.075 OA 
HETATM   11  O   UNL     1      -7.755   7.124  67.718  1.00  0.00    -0.108 OA 
HETATM   12  C   UNL     1      -7.147   7.978  68.324  1.00  0.00    -0.088 C  
ENDROOT
BRANCH   4  13
HETATM   13  C   UNL     1      -7.816   7.842  73.281  1.00  0.00    -0.148 C  
BRANCH  13  14
HETATM   14  S   UNL     1      -9.324   6.833  73.283  1.00  0.00    -0.143 SA 
BRANCH  14  15
HETATM   15  C   UNL     1     -10.576   7.957  72.934  1.00  0.00    -0.368 A  
HETATM   16  N   UNL     1     -10.586   9.250  73.158  1.00  0.00     2.468 NA 
HETATM   17  C   UNL     1     -12.238   6.321  71.933  1.00  0.00    -0.199 C  
HETATM   18  N   UNL     1     -11.821   9.691  72.748  1.00  0.00     1.242 NA 
HETATM   19  N   UNL     1     -12.552   8.691  72.272  1.00  0.00    -0.387 NA 
HETATM   20  N   UNL     1     -11.771   7.603  72.378  1.00  0.00    -0.321 NA 
ENDBRANCH  14  15
ENDBRANCH  13  14
ENDBRANCH   4  13
BRANCH   5  21
HETATM   21  O   UNL     1      -5.486   9.502  67.145  1.00  0.00    -0.039 OA 
HETATM   22  C   UNL     1      -5.169   8.302  66.454  1.00  0.00    -0.028 C  
ENDBRANCH   5  21
BRANCH   5  23
HETATM   23  N   UNL     1      -7.679  10.461  67.827  1.00  0.00    -0.089 N  
HETATM   24  C   UNL     1      -9.983  11.200  67.383  1.00  0.00    -0.204 C  
HETATM   25  C   UNL     1      -8.998  10.082  67.696  1.00  0.00    -0.131 C  
HETATM   26  O   UNL     1      -9.379   8.923  67.866  1.00  0.00    -0.140 OA 
HETATM   27  H   UNL     1      -7.433  11.448  67.751  1.00  0.00     0.000 HD 
HETATM   28  C   UNL     1     -11.255  10.730  66.691  1.00  0.00     0.080 C  
HETATM   29  C   UNL     1     -10.302  12.067  68.600  1.00  0.00    -0.211 A  
HETATM   30  C   UNL     1     -10.677  13.411  68.414  1.00  0.00    -0.271 A  
HETATM   31  O   UNL     1     -11.926  11.476  65.985  1.00  0.00    -0.227 OA 
HETATM   32  O   UNL     1     -11.643   9.454  66.916  1.00  0.00     1.062 OA 
HETATM   33  C   UNL     1     -10.917  14.248  69.509  1.00  0.00    -0.206 A  
HETATM   34  C   UNL     1     -10.793  13.742  70.796  1.00  0.00     1.743 A  
HETATM   35  C   UNL     1     -10.485  12.404  71.004  1.00  0.00     5.707 A  
HETATM   36  O   UNL     1     -10.963  14.531  71.894  1.00  0.00     0.105 OA 
HETATM   37  H   UNL     1     -10.878  14.185  72.774  1.00  0.00     0.000 HD 
HETATM   38  C   UNL     1     -10.253  11.565  69.912  1.00  0.00     0.924 A  
ENDBRANCH   5  23
TORSDOF 5
ENDMDL
MODEL      196
REMARK 921   NORMALIZED FREE ENERGY PREDICTED BY IDOCK:   12.38 KCAL/MOL
REMARK 922        TOTAL FREE ENERGY PREDICTED BY IDOCK:   14.65 KCAL/MOL
REMARK 923 INTER-LIGAND FREE ENERGY PREDICTED BY IDOCK:    5.02 KCAL/MOL
REMARK 924 INTRA-LIGAND FREE ENERGY PREDICTED BY IDOCK:    9.63 KCAL/MOL
REMARK 927      BINDING AFFINITY PREDICTED BY RF-SCORE:    0.00 PKD
ROOT
HETATM    1  C   UNL     1      -8.530   8.959  70.548  1.00  0.00    -0.177 C  
HETATM    2  O   UNL     1      -7.482   8.003  70.770  1.00  0.00    -0.068 OA 
HETATM    3  C   UNL     1      -6.533   7.991  69.702  1.00  0.00    -0.037 C  
HETATM    4  C   UNL     1      -7.226   7.873  68.351  1.00  0.00    -0.089 C  
HETATM    5  C   UNL     1      -9.928   8.755  71.274  1.00  0.00    -0.263 C  
HETATM    6  C   UNL     1      -8.553   8.154  68.219  1.00  0.00    -0.130 C  
HETATM    7  N   UNL     1      -9.207   8.747  69.276  1.00  0.00    -0.148 N  
HETATM    8  C   UNL     1      -9.298   7.797  66.953  1.00  0.00    -0.169 C  
HETATM    9  O   UNL     1      -8.843   7.068  66.081  1.00  0.00    -0.147 OA 
HETATM   10  O   UNL     1     -10.510   8.362  66.796  1.00  0.00    -0.314 OA 
HETATM   11  O   UNL     1     -11.478   8.298  69.205  1.00  0.00     0.330 OA 
HETATM   12  C   UNL     1     -10.449   8.577  69.780  1.00  0.00    -0.220 C  
ENDROOT
BRANCH   4  13
HETATM   13  C   UNL     1      -6.300   7.306  67.288  1.00  0.00    -0.054 C  
BRANCH  13  14
HETATM   14  S   UNL     1      -5.960   8.413  65.892  1.00  0.00    -0.048 SA 
BRANCH  14  15
HETATM   15  C   UNL     1      -7.333   8.233  64.876  1.00  0.00    -0.087 A  
HETATM   16  N   UNL     1      -8.203   7.250  64.860  1.00  0.00    -0.110 NA 
HETATM   17  C   UNL     1      -7.057  10.373  63.541  1.00  0.00    -0.011 C  
HETATM   18  N   UNL     1      -9.081   7.543  63.844  1.00  0.00     1.302 NA 
HETATM   19  N   UNL     1      -8.764   8.688  63.254  1.00  0.00    -0.007 NA 
HETATM   20  N   UNL     1      -7.674   9.129  63.904  1.00  0.00    -0.116 NA 
ENDBRANCH  14  15
ENDBRANCH  13  14
ENDBRANCH   4  13
BRANCH   5  21
HETATM   21  O   UNL     1     -10.468   9.931  71.934  1.00  0.00     0.591 OA 
HETATM   22  C   UNL     1     -11.877   9.988  72.101  1.00  0.00     0.579 C  
ENDBRANCH   5  21
BRANCH   5  23
HETATM   23  N   UNL     1      -9.987   7.494  72.084  1.00  0.00    -0.173 N  
HETATM   24  C   UNL     1     -10.418   5.101  72.460  1.00  0.00    -0.267 C  
HETATM   25  C   UNL     1     -10.340   6.289  71.511  1.00  0.00    -0.204 C  
HETATM   26  O   UNL     1     -10.533   6.157  70.302  1.00  0.00    -0.199 OA 
HETATM   27  H   UNL     1      -9.763   7.527  73.078  1.00  0.00     0.000 HD 
HETATM   28  C   UNL     1     -11.327   3.980  71.975  1.00  0.00     1.222 C  
HETATM   29  C   UNL     1      -9.042   4.566  72.856  1.00  0.00    -0.132 A  
HETATM   30  C   UNL     1      -8.880   3.923  74.098  1.00  0.00    -0.091 A  
HETATM   31  O   UNL     1     -11.856   3.190  72.750  1.00  0.00     0.590 OA 
HETATM   32  O   UNL     1     -11.502   3.863  70.640  1.00  0.00     3.896 OA 
HETATM   33  C   UNL     1      -7.623   3.475  74.517  1.00  0.00    -0.058 A  
HETATM   34  C   UNL     1      -6.522   3.662  73.692  1.00  0.00    -0.033 A  
HETATM   35  C   UNL     1      -6.667   4.239  72.437  1.00  0.00    -0.038 A  
HETATM   36  O   UNL     1      -5.269   3.294  74.080  1.00  0.00     0.000 OA 
HETATM   37  H   UNL     1      -4.515   3.422  73.515  1.00  0.00     0.000 HD 
HETATM   38  C   UNL     1      -7.923   4.678  72.014  1.00  0.00    -0.100 A  
ENDBRANCH   5  23
TORSDOF 5
ENDMDL
MODEL      197
REMARK 921   NORMALIZED FREE ENERGY PREDICTED BY IDOCK:   12.61 KCAL/MOL
REMARK 922        TOTAL FREE ENERGY PREDICTED BY IDOCK:   14.95 KCAL/MOL
REMARK 923 INTER-LIGAND FREE ENERGY PREDICTED BY IDOCK:   15.14 KCAL/MOL
REMARK 924 INTRA-LIGAND FREE ENERGY PREDICTED BY IDOCK:   -0.19 KCAL/MOL
REMARK 927      BINDING AFFINITY PREDICTED BY RF-SCORE:    0.00 PKD
ROOT
HETATM    1  C   UNL     1      -8.821  15.034  65.397  1.00  0.00     1.543 C  
HETATM    2  O   UNL     1      -8.952  13.628  65.654  1.00  0.00     0.484 OA 
HETATM    3  C   UNL     1      -9.489  12.925  64.532  1.00  0.00     0.543 C  
HETATM    4  C   UNL     1     -10.754  13.598  64.014  1.00  0.00     0.034 C  
HETATM    5  C   UNL     1      -8.796  16.044  66.624  1.00  0.00    -0.272 C  
HETATM    6  C   UNL     1     -11.046  14.887  64.348  1.00  0.00    -0.108 C  
HETATM    7  N   UNL     1     -10.080  15.637  64.982  1.00  0.00    -0.191 N  
HETATM    8  C   UNL     1     -12.408  15.472  64.053  1.00  0.00     0.171 C  
HETATM    9  O   UNL     1     -13.375  14.804  63.712  1.00  0.00     0.558 OA 
HETATM   10  O   UNL     1     -12.514  16.812  64.148  1.00  0.00     0.558 OA 
HETATM   11  O   UNL     1     -11.036  17.349  66.215  1.00  0.00    -0.022 OA 
HETATM   12  C   UNL     1     -10.155  16.555  65.971  1.00  0.00    -0.348 C  
ENDROOT
BRANCH   4  13
HETATM   13  C   UNL     1     -11.632  12.631  63.239  1.00  0.00    -0.353 C  
BRANCH  13  14
HETATM   14  S   UNL     1     -12.517  11.413  64.252  1.00  0.00     1.021 SA 
BRANCH  14  15
HETATM   15  C   UNL     1     -12.238  11.934  65.866  1.00  0.00     0.553 A  
HETATM   16  N   UNL     1     -12.704  13.007  66.460  1.00  0.00    -0.027 NA 
HETATM   17  C   UNL     1     -10.718  10.033  66.583  1.00  0.00    -0.058 C  
HETATM   18  N   UNL     1     -12.160  13.003  67.722  1.00  0.00    -0.274 NA 
HETATM   19  N   UNL     1     -11.383  11.943  67.903  1.00  0.00    -0.268 NA 
HETATM   20  N   UNL     1     -11.436  11.265  66.744  1.00  0.00    -0.397 NA 
ENDBRANCH  14  15
ENDBRANCH  13  14
ENDBRANCH   4  13
BRANCH   5  21
HETATM   21  O   UNL     1      -7.735  17.037  66.593  1.00  0.00    -0.210 OA 
HETATM   22  C   UNL     1      -6.488  16.632  66.047  1.00  0.00     0.965 C  
ENDBRANCH   5  21
BRANCH   5  23
HETATM   23  N   UNL     1      -8.984  15.363  67.946  1.00  0.00    -0.172 N  
HETATM   24  C   UNL     1      -8.498  14.918  70.317  1.00  0.00     0.934 C  
HETATM   25  C   UNL     1      -8.249  15.732  69.054  1.00  0.00    -0.234 C  
HETATM   26  O   UNL     1      -7.474  16.688  69.052  1.00  0.00    -0.223 OA 
HETATM   27  H   UNL     1      -9.668  14.611  68.029  1.00  0.00     0.000 HD 
HETATM   28  C   UNL     1      -7.336  14.931  71.301  1.00  0.00     2.044 C  
HETATM   29  C   UNL     1      -9.812  15.280  71.007  1.00  0.00     1.320 A  
HETATM   30  C   UNL     1     -10.479  14.309  71.779  1.00  0.00     3.479 A  
HETATM   31  O   UNL     1      -7.160  14.027  72.111  1.00  0.00     2.023 OA 
HETATM   32  O   UNL     1      -6.516  16.005  71.272  1.00  0.00     1.226 OA 
HETATM   33  C   UNL     1     -11.713  14.589  72.374  1.00  0.00     0.160 A  
HETATM   34  C   UNL     1     -12.284  15.844  72.207  1.00  0.00    -0.496 A  
HETATM   35  C   UNL     1     -11.616  16.837  71.502  1.00  0.00     0.278 A  
HETATM   36  O   UNL     1     -13.509  16.146  72.721  1.00  0.00    -0.443 OA 
HETATM   37  H   UNL     1     -13.899  17.005  72.607  1.00  0.00     0.000 HD 
HETATM   38  C   UNL     1     -10.380  16.562  70.914  1.00  0.00     1.340 A  
ENDBRANCH   5  23
TORSDOF 5
ENDMDL
MODEL      198
REMARK 921   NORMALIZED FREE ENERGY PREDICTED BY IDOCK:   13.96 KCAL/MOL
REMARK 922        TOTAL FREE ENERGY PREDICTED BY IDOCK:   16.69 KCAL/MOL
REMARK 923 INTER-LIGAND FREE ENERGY PREDICTED BY IDOCK:   13.86 KCAL/MOL
REMARK 924 INTRA-LIGAND FREE ENERGY PREDICTED BY IDOCK:    2.84 KCAL/MOL
REMARK 927      BINDING AFFINITY PREDICTED BY RF-SCORE:    0.00 PKD
ROOT
HETATM    1  C   UNL     1      -7.157   8.509  72.848  1.00  0.00    -0.017 C  
HETATM    2  O   UNL     1      -6.207   8.801  71.811  1.00  0.00    -0.064 OA 
HETATM    3  C   UNL     1      -6.146  10.198  71.519  1.00  0.00     0.282 C  
HETATM    4  C   UNL     1      -7.538  10.774  71.288  1.00  0.00     3.703 C  
HETATM    5  C   UNL     1      -7.783   7.051  72.932  1.00  0.00    -0.084 C  
HETATM    6  C   UNL     1      -8.649  10.107  71.712  1.00  0.00     4.037 C  
HETATM    7  N   UNL     1      -8.486   9.015  72.534  1.00  0.00     0.374 N  
HETATM    8  C   UNL     1     -10.027  10.540  71.265  1.00  0.00     2.995 C  
HETATM    9  O   UNL     1     -10.228  11.341  70.363  1.00  0.00     1.136 OA 
HETATM   10  O   UNL     1     -11.065  10.020  71.949  1.00  0.00     0.280 OA 
HETATM   11  O   UNL     1     -10.293   7.576  72.370  1.00  0.00    -0.204 OA 
HETATM   12  C   UNL     1      -9.131   7.830  72.600  1.00  0.00    -0.173 C  
ENDROOT
BRANCH   4  13
HETATM   13  C   UNL     1      -7.493  12.044  70.455  1.00  0.00     3.271 C  
BRANCH  13  14
HETATM   14  S   UNL     1      -8.301  11.932  68.835  1.00  0.00     0.217 SA 
BRANCH  14  15
HETATM   15  C   UNL     1      -7.344  10.796  67.971  1.00  0.00    -0.088 A  
HETATM   16  N   UNL     1      -6.085  10.484  68.172  1.00  0.00    -0.044 NA 
HETATM   17  C   UNL     1      -9.113  10.042  66.316  1.00  0.00    -0.151 C  
HETATM   18  N   UNL     1      -5.768   9.566  67.199  1.00  0.00    -0.047 NA 
HETATM   19  N   UNL     1      -6.813   9.313  66.422  1.00  0.00    -0.082 NA 
HETATM   20  N   UNL     1      -7.806  10.076  66.909  1.00  0.00    -0.105 NA 
ENDBRANCH  14  15
ENDBRANCH  13  14
ENDBRANCH   4  13
BRANCH   5  21
HETATM   21  O   UNL     1      -7.781   6.446  74.253  1.00  0.00    -0.095 OA 
HETATM   22  C   UNL     1      -6.830   5.418  74.490  1.00  0.00    -0.077 C  
ENDBRANCH   5  21
BRANCH   5  23
HETATM   23  N   UNL     1      -7.322   6.151  71.825  1.00  0.00    -0.091 N  
HETATM   24  C   UNL     1      -6.889   3.983  70.744  1.00  0.00    -0.033 C  
HETATM   25  C   UNL     1      -7.453   4.781  71.913  1.00  0.00    -0.087 C  
HETATM   26  O   UNL     1      -8.031   4.224  72.847  1.00  0.00    -0.084 OA 
HETATM   27  H   UNL     1      -6.902   6.560  70.991  1.00  0.00     0.000 HD 
HETATM   28  C   UNL     1      -6.518   2.549  71.095  1.00  0.00    -0.023 C  
HETATM   29  C   UNL     1      -7.779   4.038  69.504  1.00  0.00    -0.053 A  
HETATM   30  C   UNL     1      -7.199   3.896  68.229  1.00  0.00    -0.055 A  
HETATM   31  O   UNL     1      -5.675   1.922  70.462  1.00  0.00    -0.015 OA 
HETATM   32  O   UNL     1      -7.186   1.973  72.119  1.00  0.00    -0.035 OA 
HETATM   33  C   UNL     1      -7.976   4.001  67.071  1.00  0.00    -0.096 A  
HETATM   34  C   UNL     1      -9.340   4.241  67.182  1.00  0.00    -0.167 A  
HETATM   35  C   UNL     1      -9.944   4.324  68.429  1.00  0.00    -0.028 A  
HETATM   36  O   UNL     1     -10.128   4.406  66.083  1.00  0.00    -0.231 OA 
HETATM   37  H   UNL     1     -11.061   4.570  66.159  1.00  0.00     0.000 HD 
HETATM   38  C   UNL     1      -9.171   4.211  69.587  1.00  0.00    -0.210 A  
ENDBRANCH   5  23
TORSDOF 5
ENDMDL
MODEL      199
REMARK 921   NORMALIZED FREE ENERGY PREDICTED BY IDOCK:   16.02 KCAL/MOL
REMARK 922        TOTAL FREE ENERGY PREDICTED BY IDOCK:   19.36 KCAL/MOL
REMARK 923 INTER-LIGAND FREE ENERGY PREDICTED BY IDOCK:    4.36 KCAL/MOL
REMARK 924 INTRA-LIGAND FREE ENERGY PREDICTED BY IDOCK:   14.99 KCAL/MOL
REMARK 927      BINDING AFFINITY PREDICTED BY RF-SCORE:    0.00 PKD
ROOT
HETATM    1  C   UNL     1     -12.131  11.073  66.328  1.00  0.00     2.129 C  
HETATM    2  O   UNL     1     -11.826  10.643  67.664  1.00  0.00    -0.411 OA 
HETATM    3  C   UNL     1     -12.545  11.393  68.645  1.00  0.00     0.965 C  
HETATM    4  C   UNL     1     -12.399  12.891  68.410  1.00  0.00     0.213 C  
HETATM    5  C   UNL     1     -11.080  10.797  65.169  1.00  0.00     0.282 C  
HETATM    6  C   UNL     1     -11.981  13.371  67.204  1.00  0.00    -0.366 C  
HETATM    7  N   UNL     1     -11.897  12.498  66.142  1.00  0.00    -0.409 N  
HETATM    8  C   UNL     1     -11.592  14.823  67.043  1.00  0.00    -0.339 C  
HETATM    9  O   UNL     1     -11.419  15.588  67.983  1.00  0.00    -0.342 OA 
HETATM   10  O   UNL     1     -11.474  15.271  65.778  1.00  0.00    -0.247 OA 
HETATM   11  O   UNL     1     -10.378  13.253  64.565  1.00  0.00    -0.397 OA 
HETATM   12  C   UNL     1     -11.006  12.386  65.133  1.00  0.00    -0.302 C  
ENDROOT
BRANCH   4  13
HETATM   13  C   UNL     1     -12.645  13.689  69.678  1.00  0.00     0.063 C  
BRANCH  13  14
HETATM   14  S   UNL     1     -11.165  14.433  70.420  1.00  0.00     0.088 SA 
BRANCH  14  15
HETATM   15  C   UNL     1     -10.109  14.673  69.086  1.00  0.00    -0.172 A  
HETATM   16  N   UNL     1      -9.742  15.809  68.541  1.00  0.00    -0.202 NA 
HETATM   17  C   UNL     1      -9.594  12.235  68.611  1.00  0.00    -0.043 C  
HETATM   18  N   UNL     1      -8.932  15.472  67.483  1.00  0.00    -0.186 NA 
HETATM   19  N   UNL     1      -8.796  14.156  67.386  1.00  0.00    -0.195 NA 
HETATM   20  N   UNL     1      -9.525  13.651  68.395  1.00  0.00    -0.208 NA 
ENDBRANCH  14  15
ENDBRANCH  13  14
ENDBRANCH   4  13
BRANCH   5  21
HETATM   21  O   UNL     1     -11.628  10.220  63.953  1.00  0.00     2.591 OA 
HETATM   22  C   UNL     1     -10.705   9.862  62.935  1.00  0.00     2.981 C  
ENDBRANCH   5  21
BRANCH   5  23
HETATM   23  N   UNL     1      -9.822  10.148  65.663  1.00  0.00    -0.262 N  
HETATM   24  C   UNL     1      -8.506   8.403  66.794  1.00  0.00    -0.114 C  
HETATM   25  C   UNL     1      -9.847   8.919  66.289  1.00  0.00    -0.285 C  
HETATM   26  O   UNL     1     -10.873   8.246  66.397  1.00  0.00     0.268 OA 
HETATM   27  H   UNL     1      -8.930  10.624  65.534  1.00  0.00     0.000 HD 
HETATM   28  C   UNL     1      -8.617   7.402  67.936  1.00  0.00    -0.125 C  
HETATM   29  C   UNL     1      -7.615   7.869  65.673  1.00  0.00    -0.084 A  
HETATM   30  C   UNL     1      -6.216   7.910  65.821  1.00  0.00    -0.042 A  
HETATM   31  O   UNL     1      -7.707   7.229  68.740  1.00  0.00    -0.114 OA 
HETATM   32  O   UNL     1      -9.755   6.676  68.010  1.00  0.00    -0.123 OA 
HETATM   33  C   UNL     1      -5.372   7.484  64.791  1.00  0.00    -0.029 A  
HETATM   34  C   UNL     1      -5.923   7.008  63.608  1.00  0.00    -0.040 A  
HETATM   35  C   UNL     1      -7.300   6.901  63.463  1.00  0.00    -0.081 A  
HETATM   36  O   UNL     1      -5.143   6.634  62.556  1.00  0.00    -0.027 OA 
HETATM   37  H   UNL     1      -5.520   6.308  61.747  1.00  0.00     0.000 HD 
HETATM   38  C   UNL     1      -8.144   7.317  64.494  1.00  0.00    -0.071 A  
ENDBRANCH   5  23
TORSDOF 5
ENDMDL
MODEL      200
REMARK 921   NORMALIZED FREE ENERGY PREDICTED BY IDOCK:   17.39 KCAL/MOL
REMARK 922        TOTAL FREE ENERGY PREDICTED BY IDOCK:   21.12 KCAL/MOL
REMARK 923 INTER-LIGAND FREE ENERGY PREDICTED BY IDOCK:   20.24 KCAL/MOL
REMARK 924 INTRA-LIGAND FREE ENERGY PREDICTED BY IDOCK:    0.88 KCAL/MOL
REMARK 927      BINDING AFFINITY PREDICTED BY RF-SCORE:    0.00 PKD
ROOT
HETATM    1  C   UNL     1     -11.165  11.086  69.759  1.00  0.00    -0.268 C  
HETATM    2  O   UNL     1     -11.291  12.239  68.912  1.00  0.00    -0.246 OA 
HETATM    3  C   UNL     1     -12.202  12.014  67.834  1.00  0.00     0.350 C  
HETATM    4  C   UNL     1     -11.879  10.718  67.101  1.00  0.00     0.892 C  
HETATM    5  C   UNL     1      -9.850  10.910  70.633  1.00  0.00     2.347 C  
HETATM    6  C   UNL     1     -11.097   9.764  67.681  1.00  0.00    -0.049 C  
HETATM    7  N   UNL     1     -10.779   9.896  69.014  1.00  0.00    -0.216 N  
HETATM    8  C   UNL     1     -10.568   8.602  66.872  1.00  0.00    -0.200 C  
HETATM    9  O   UNL     1     -10.614   8.548  65.650  1.00  0.00     1.313 OA 
HETATM   10  O   UNL     1     -10.057   7.571  67.573  1.00  0.00    -0.168 OA 
HETATM   11  O   UNL     1      -8.817   8.771  69.515  1.00  0.00    -0.139 OA 
HETATM   12  C   UNL     1      -9.646   9.634  69.702  1.00  0.00    -0.208 C  
ENDROOT
BRANCH   4  13
HETATM   13  C   UNL     1     -12.418  10.723  65.681  1.00  0.00     4.804 C  
BRANCH  13  14
HETATM   14  S   UNL     1     -12.360  12.330  64.840  1.00  0.00    -0.184 SA 
BRANCH  14  15
HETATM   15  C   UNL     1     -10.688  12.724  64.814  1.00  0.00    -0.316 A  
HETATM   16  N   UNL     1      -9.668  11.910  64.674  1.00  0.00    -0.171 NA 
HETATM   17  C   UNL     1     -10.920  15.230  65.135  1.00  0.00    -0.416 C  
HETATM   18  N   UNL     1      -8.545  12.697  64.766  1.00  0.00     2.078 NA 
HETATM   19  N   UNL     1      -8.869  13.971  64.950  1.00  0.00     2.461 NA 
HETATM   20  N   UNL     1     -10.212  13.993  64.972  1.00  0.00    -0.391 NA 
ENDBRANCH  14  15
ENDBRANCH  13  14
ENDBRANCH   4  13
BRANCH   5  21
HETATM   21  O   UNL     1     -10.068  10.573  72.029  1.00  0.00     3.603 OA 
HETATM   22  C   UNL     1      -9.571   9.320  72.476  1.00  0.00     1.347 C  
ENDBRANCH   5  21
BRANCH   5  23
HETATM   23  N   UNL     1      -8.841  11.993  70.395  1.00  0.00     4.018 N  
HETATM   24  C   UNL     1      -7.230  13.290  69.061  1.00  0.00    -0.007 C  
HETATM   25  C   UNL     1      -8.285  12.195  69.148  1.00  0.00     0.445 C  
HETATM   26  O   UNL     1      -8.644  11.571  68.149  1.00  0.00    -0.142 OA 
HETATM   27  H   UNL     1      -8.560  12.593  71.170  1.00  0.00     0.000 HD 
HETATM   28  C   UNL     1      -6.254  13.118  67.906  1.00  0.00    -0.140 C  
HETATM   29  C   UNL     1      -7.830  14.695  69.075  1.00  0.00    -0.133 A  
HETATM   30  C   UNL     1      -7.072  15.767  69.581  1.00  0.00    -0.150 A  
HETATM   31  O   UNL     1      -5.126  13.600  67.930  1.00  0.00    -0.121 OA 
HETATM   32  O   UNL     1      -6.693  12.437  66.824  1.00  0.00     0.007 OA 
HETATM   33  C   UNL     1      -7.613  17.054  69.663  1.00  0.00     0.492 A  
HETATM   34  C   UNL     1      -8.914  17.277  69.232  1.00  0.00     0.164 A  
HETATM   35  C   UNL     1      -9.660  16.248  68.672  1.00  0.00    -0.237 A  
HETATM   36  O   UNL     1      -9.503  18.501  69.343  1.00  0.00     0.009 OA 
HETATM   37  H   UNL     1     -10.394  18.653  69.047  1.00  0.00     0.000 HD 
HETATM   38  C   UNL     1      -9.118  14.965  68.582  1.00  0.00    -0.185 A  
ENDBRANCH   5  23
TORSDOF 5
ENDMDL
MODEL      201
REMARK 921   NORMALIZED FREE ENERGY PREDICTED BY IDOCK:   17.91 KCAL/MOL
REMARK 922        TOTAL FREE ENERGY PREDICTED BY IDOCK:   21.80 KCAL/MOL
REMARK 923 INTER-LIGAND FREE ENERGY PREDICTED BY IDOCK:    9.58 KCAL/MOL
REMARK 924 INTRA-LIGAND FREE ENERGY PREDICTED BY IDOCK:   12.22 KCAL/MOL
REMARK 927      BINDING AFFINITY PREDICTED BY RF-SCORE:    0.00 PKD
ROOT
HETATM    1  C   UNL     1     -10.452   8.412  69.591  1.00  0.00    -0.221 C  
HETATM    2  O   UNL     1      -9.104   7.989  69.842  1.00  0.00    -0.144 OA 
HETATM    3  C   UNL     1      -8.317   7.966  68.649  1.00  0.00    -0.128 C  
HETATM    4  C   UNL     1      -9.027   7.204  67.537  1.00  0.00    -0.121 C  
HETATM    5  C   UNL     1     -11.598   7.983  70.604  1.00  0.00    -0.196 C  
HETATM    6  C   UNL     1     -10.367   6.962  67.600  1.00  0.00    -0.205 C  
HETATM    7  N   UNL     1     -11.104   7.597  68.575  1.00  0.00     0.177 N  
HETATM    8  C   UNL     1     -11.024   5.997  66.640  1.00  0.00    -0.152 C  
HETATM    9  O   UNL     1     -10.403   5.232  65.914  1.00  0.00    -0.143 OA 
HETATM   10  O   UNL     1     -12.370   6.038  66.583  1.00  0.00     2.726 OA 
HETATM   11  O   UNL     1     -13.028   6.406  69.068  1.00  0.00     4.169 OA 
HETATM   12  C   UNL     1     -12.138   7.182  69.338  1.00  0.00     0.929 C  
ENDROOT
BRANCH   4  13
HETATM   13  C   UNL     1      -8.049   6.683  66.497  1.00  0.00    -0.111 C  
BRANCH  13  14
HETATM   14  S   UNL     1      -6.599   7.733  66.209  1.00  0.00    -0.050 SA 
BRANCH  14  15
HETATM   15  C   UNL     1      -6.515   8.720  67.613  1.00  0.00    -0.061 A  
HETATM   16  N   UNL     1      -5.540   8.797  68.488  1.00  0.00    -0.037 NA 
HETATM   17  C   UNL     1      -8.776   9.846  67.379  1.00  0.00    -0.128 C  
HETATM   18  N   UNL     1      -5.966   9.686  69.446  1.00  0.00    -0.034 NA 
HETATM   19  N   UNL     1      -7.174  10.153  69.159  1.00  0.00    -0.073 NA 
HETATM   20  N   UNL     1      -7.518   9.557  68.006  1.00  0.00    -0.083 NA 
ENDBRANCH  14  15
ENDBRANCH  13  14
ENDBRANCH   4  13
BRANCH   5  21
HETATM   21  O   UNL     1     -12.487   9.050  71.030  1.00  0.00    -0.267 OA 
HETATM   22  C   UNL     1     -11.945  10.362  71.072  1.00  0.00    -0.382 C  
ENDBRANCH   5  21
BRANCH   5  23
HETATM   23  N   UNL     1     -11.101   7.097  71.707  1.00  0.00    -0.233 N  
HETATM   24  C   UNL     1     -10.895   4.985  72.953  1.00  0.00    -0.322 C  
HETATM   25  C   UNL     1     -11.415   5.754  71.746  1.00  0.00    -0.131 C  
HETATM   26  O   UNL     1     -12.034   5.188  70.844  1.00  0.00     1.699 OA 
HETATM   27  H   UNL     1     -10.520   7.495  72.444  1.00  0.00     0.000 HD 
HETATM   28  C   UNL     1     -11.694   3.730  73.278  1.00  0.00     0.159 C  
HETATM   29  C   UNL     1      -9.400   4.683  72.865  1.00  0.00    -0.144 A  
HETATM   30  C   UNL     1      -8.652   4.537  74.049  1.00  0.00    -0.105 A  
HETATM   31  O   UNL     1     -11.723   3.253  74.408  1.00  0.00     0.793 OA 
HETATM   32  O   UNL     1     -12.348   3.134  72.257  1.00  0.00     2.697 OA 
HETATM   33  C   UNL     1      -7.272   4.319  74.004  1.00  0.00    -0.068 A  
HETATM   34  C   UNL     1      -6.632   4.240  72.774  1.00  0.00    -0.045 A  
HETATM   35  C   UNL     1      -7.357   4.320  71.592  1.00  0.00    -0.056 A  
HETATM   36  O   UNL     1      -5.282   4.084  72.679  1.00  0.00     0.000 OA 
HETATM   37  H   UNL     1      -4.844   4.030  71.837  1.00  0.00     0.000 HD 
HETATM   38  C   UNL     1      -8.738   4.528  71.636  1.00  0.00    -0.133 A  
ENDBRANCH   5  23
TORSDOF 5
ENDMDL
MODEL      202
REMARK 921   NORMALIZED FREE ENERGY PREDICTED BY IDOCK:   23.48 KCAL/MOL
REMARK 922        TOTAL FREE ENERGY PREDICTED BY IDOCK:   29.00 KCAL/MOL
REMARK 923 INTER-LIGAND FREE ENERGY PREDICTED BY IDOCK:   19.61 KCAL/MOL
REMARK 924 INTRA-LIGAND FREE ENERGY PREDICTED BY IDOCK:    9.39 KCAL/MOL
REMARK 927      BINDING AFFINITY PREDICTED BY RF-SCORE:    0.00 PKD
ROOT
HETATM    1  C   UNL     1      -9.969  10.660  64.849  1.00  0.00    -0.318 C  
HETATM    2  O   UNL     1      -8.965  11.206  65.718  1.00  0.00    -0.198 OA 
HETATM    3  C   UNL     1      -7.977  10.235  66.072  1.00  0.00    -0.138 C  
HETATM    4  C   UNL     1      -8.623   8.950  66.573  1.00  0.00    -0.133 C  
HETATM    5  C   UNL     1     -11.400  11.348  64.795  1.00  0.00    -0.060 C  
HETATM    6  C   UNL     1      -9.934   8.679  66.314  1.00  0.00    -0.217 C  
HETATM    7  N   UNL     1     -10.605   9.479  65.417  1.00  0.00     0.750 N  
HETATM    8  C   UNL     1     -10.642   7.543  67.017  1.00  0.00    -0.339 C  
HETATM    9  O   UNL     1     -10.182   6.951  67.983  1.00  0.00    -0.158 OA 
HETATM   10  O   UNL     1     -11.827   7.169  66.497  1.00  0.00     1.764 OA 
HETATM   11  O   UNL     1     -12.886   9.440  65.814  1.00  0.00    12.143 OA 
HETATM   12  C   UNL     1     -11.870   9.953  65.400  1.00  0.00     5.398 C  
ENDROOT
BRANCH   4  13
HETATM   13  C   UNL     1      -7.679   8.149  67.454  1.00  0.00    -0.102 C  
BRANCH  13  14
HETATM   14  S   UNL     1      -8.480   7.185  68.766  1.00  0.00    -0.125 SA 
BRANCH  14  15
HETATM   15  C   UNL     1      -7.191   6.298  69.475  1.00  0.00    -0.078 A  
HETATM   16  N   UNL     1      -7.156   5.020  69.769  1.00  0.00    -0.053 NA 
HETATM   17  C   UNL     1      -5.550   8.217  69.727  1.00  0.00    -0.026 C  
HETATM   18  N   UNL     1      -5.933   4.804  70.357  1.00  0.00    -0.017 NA 
HETATM   19  N   UNL     1      -5.226   5.925  70.415  1.00  0.00    -0.012 NA 
HETATM   20  N   UNL     1      -6.008   6.863  69.855  1.00  0.00    -0.023 NA 
ENDBRANCH  14  15
ENDBRANCH  13  14
ENDBRANCH   4  13
BRANCH   5  21
HETATM   21  O   UNL     1     -11.921  11.601  63.463  1.00  0.00    -0.437 OA 
HETATM   22  C   UNL     1     -10.972  11.786  62.423  1.00  0.00     1.816 C  
ENDBRANCH   5  21
BRANCH   5  23
HETATM   23  N   UNL     1     -11.535  12.494  65.754  1.00  0.00    -0.346 N  
HETATM   24  C   UNL     1     -10.805  13.975  67.578  1.00  0.00    -0.277 C  
HETATM   25  C   UNL     1     -10.513  12.829  66.618  1.00  0.00    -0.257 C  
HETATM   26  O   UNL     1      -9.411  12.280  66.594  1.00  0.00    -0.215 OA 
HETATM   27  H   UNL     1     -12.398  13.035  65.767  1.00  0.00     0.000 HD 
HETATM   28  C   UNL     1      -9.963  13.950  68.846  1.00  0.00    -0.069 C  
HETATM   29  C   UNL     1     -10.750  15.344  66.902  1.00  0.00    -0.314 A  
HETATM   30  C   UNL     1     -11.524  16.402  67.415  1.00  0.00     0.293 A  
HETATM   31  O   UNL     1     -10.339  14.480  69.887  1.00  0.00     0.036 OA 
HETATM   32  O   UNL     1      -8.756  13.347  68.772  1.00  0.00    -0.035 OA 
HETATM   33  C   UNL     1     -11.542  17.650  66.786  1.00  0.00     1.654 A  
HETATM   34  C   UNL     1     -10.779  17.850  65.643  1.00  0.00    -0.052 A  
HETATM   35  C   UNL     1      -9.960  16.841  65.154  1.00  0.00     0.560 A  
HETATM   36  O   UNL     1     -10.806  19.031  64.963  1.00  0.00    -0.412 OA 
HETATM   37  H   UNL     1     -10.283  19.168  64.181  1.00  0.00     0.000 HD 
HETATM   38  C   UNL     1      -9.934  15.597  65.786  1.00  0.00    -0.390 A  
ENDBRANCH   5  23
TORSDOF 5
ENDMDL
MODEL      203
REMARK 921   NORMALIZED FREE ENERGY PREDICTED BY IDOCK:   33.61 KCAL/MOL
REMARK 922        TOTAL FREE ENERGY PREDICTED BY IDOCK:   42.10 KCAL/MOL
REMARK 923 INTER-LIGAND FREE ENERGY PREDICTED BY IDOCK:   34.44 KCAL/MOL
REMARK 924 INTRA-LIGAND FREE ENERGY PREDICTED BY IDOCK:    7.65 KCAL/MOL
REMARK 927      BINDING AFFINITY PREDICTED BY RF-SCORE:    0.00 PKD
ROOT
HETATM    1  C   UNL     1     -11.237  11.247  70.110  1.00  0.00    -0.067 C  
HETATM    2  O   UNL     1     -11.618  12.355  69.280  1.00  0.00    -0.282 OA 
HETATM    3  C   UNL     1     -12.346  11.934  68.125  1.00  0.00     0.629 C  
HETATM    4  C   UNL     1     -11.618  10.814  67.394  1.00  0.00     0.070 C  
HETATM    5  C   UNL     1      -9.994  11.406  71.086  1.00  0.00     6.330 C  
HETATM    6  C   UNL     1     -10.644  10.091  68.016  1.00  0.00    -0.235 C  
HETATM    7  N   UNL     1     -10.476  10.246  69.374  1.00  0.00    -0.221 N  
HETATM    8  C   UNL     1      -9.750   9.160  67.229  1.00  0.00    -0.173 C  
HETATM    9  O   UNL     1      -9.688   9.150  66.007  1.00  0.00    -0.263 OA 
HETATM   10  O   UNL     1      -9.023   8.283  67.948  1.00  0.00    -0.134 OA 
HETATM   11  O   UNL     1      -8.320   9.693  70.013  1.00  0.00    -0.151 OA 
HETATM   12  C   UNL     1      -9.370  10.280  70.149  1.00  0.00     0.240 C  
ENDROOT
BRANCH   4  13
HETATM   13  C   UNL     1     -12.028  10.731  65.933  1.00  0.00     2.364 C  
BRANCH  13  14
HETATM   14  S   UNL     1     -11.020  11.719  64.793  1.00  0.00    -0.289 SA 
BRANCH  14  15
HETATM   15  C   UNL     1      -9.451  11.031  64.925  1.00  0.00    -0.233 A  
HETATM   16  N   UNL     1      -8.577  11.194  65.891  1.00  0.00    -0.164 NA 
HETATM   17  C   UNL     1      -9.461   9.726  62.750  1.00  0.00     0.028 C  
HETATM   18  N   UNL     1      -7.465  10.479  65.514  1.00  0.00    -0.139 NA 
HETATM   19  N   UNL     1      -7.655   9.882  64.345  1.00  0.00    -0.138 NA 
HETATM   20  N   UNL     1      -8.902  10.219  63.976  1.00  0.00    -0.203 NA 
ENDBRANCH  14  15
ENDBRANCH  13  14
ENDBRANCH   4  13
BRANCH   5  21
HETATM   21  O   UNL     1     -10.212  10.960  72.452  1.00  0.00     7.235 OA 
HETATM   22  C   UNL     1      -9.355   9.939  72.941  1.00  0.00     6.115 C  
ENDBRANCH   5  21
BRANCH   5  23
HETATM   23  N   UNL     1      -9.316  12.737  70.958  1.00  0.00     9.193 N  
HETATM   24  C   UNL     1      -7.445  14.249  70.437  1.00  0.00     0.968 C  
HETATM   25  C   UNL     1      -8.035  12.845  70.457  1.00  0.00     4.844 C  
HETATM   26  O   UNL     1      -7.413  11.883  70.004  1.00  0.00     0.655 OA 
HETATM   27  H   UNL     1      -9.811  13.580  71.247  1.00  0.00     0.000 HD 
HETATM   28  C   UNL     1      -5.923  14.281  70.447  1.00  0.00    -0.171 C  
HETATM   29  C   UNL     1      -8.011  15.114  69.313  1.00  0.00    -0.213 A  
HETATM   30  C   UNL     1      -8.060  16.512  69.472  1.00  0.00     0.231 A  
HETATM   31  O   UNL     1      -5.296  15.245  70.872  1.00  0.00    -0.141 OA 
HETATM   32  O   UNL     1      -5.281  13.210  69.929  1.00  0.00    -0.082 OA 
HETATM   33  C   UNL     1      -8.626  17.328  68.487  1.00  0.00    -0.270 A  
HETATM   34  C   UNL     1      -9.139  16.751  67.333  1.00  0.00    -0.216 A  
HETATM   35  C   UNL     1      -9.047  15.381  67.126  1.00  0.00    -0.236 A  
HETATM   36  O   UNL     1      -9.750  17.498  66.371  1.00  0.00    -0.278 OA 
HETATM   37  H   UNL     1     -10.101  17.103  65.582  1.00  0.00     0.000 HD 
HETATM   38  C   UNL     1      -8.474  14.566  68.105  1.00  0.00    -0.157 A  
ENDBRANCH   5  23
TORSDOF 5
ENDMDL
MODEL      204
REMARK 921   NORMALIZED FREE ENERGY PREDICTED BY IDOCK:   33.73 KCAL/MOL
REMARK 922        TOTAL FREE ENERGY PREDICTED BY IDOCK:   42.25 KCAL/MOL
REMARK 923 INTER-LIGAND FREE ENERGY PREDICTED BY IDOCK:   37.20 KCAL/MOL
REMARK 924 INTRA-LIGAND FREE ENERGY PREDICTED BY IDOCK:    5.05 KCAL/MOL
REMARK 927      BINDING AFFINITY PREDICTED BY RF-SCORE:    0.00 PKD
ROOT
HETATM    1  C   UNL     1      -5.878  13.389  70.942  1.00  0.00    -0.127 C  
HETATM    2  O   UNL     1      -6.087  13.312  69.523  1.00  0.00    -0.099 OA 
HETATM    3  C   UNL     1      -5.400  14.350  68.823  1.00  0.00    -0.088 C  
HETATM    4  C   UNL     1      -5.691  15.714  69.436  1.00  0.00    -0.114 C  
HETATM    5  C   UNL     1      -6.947  12.732  71.916  1.00  0.00     6.196 C  
HETATM    6  C   UNL     1      -6.200  15.819  70.696  1.00  0.00     0.295 C  
HETATM    7  N   UNL     1      -6.248  14.690  71.482  1.00  0.00     0.205 N  
HETATM    8  C   UNL     1      -6.726  17.141  71.209  1.00  0.00     3.593 C  
HETATM    9  O   UNL     1      -6.929  18.114  70.496  1.00  0.00     1.177 OA 
HETATM   10  O   UNL     1      -6.937  17.222  72.537  1.00  0.00     6.773 OA 
HETATM   11  O   UNL     1      -7.894  14.874  73.101  1.00  0.00     5.196 OA 
HETATM   12  C   UNL     1      -7.167  14.243  72.366  1.00  0.00     4.108 C  
ENDROOT
BRANCH   4  13
HETATM   13  C   UNL     1      -5.466  16.840  68.441  1.00  0.00    -0.121 C  
BRANCH  13  14
HETATM   14  S   UNL     1      -6.946  17.798  68.014  1.00  0.00    -0.201 SA 
BRANCH  14  15
HETATM   15  C   UNL     1      -8.145  16.601  67.725  1.00  0.00    -0.176 A  
HETATM   16  N   UNL     1      -8.263  15.424  68.292  1.00  0.00    -0.142 NA 
HETATM   17  C   UNL     1      -9.459  17.851  65.950  1.00  0.00     0.094 C  
HETATM   18  N   UNL     1      -9.347  14.827  67.693  1.00  0.00    -0.193 NA 
HETATM   19  N   UNL     1      -9.889  15.625  66.783  1.00  0.00    -0.238 NA 
HETATM   20  N   UNL     1      -9.144  16.743  66.806  1.00  0.00    -0.229 NA 
ENDBRANCH  14  15
ENDBRANCH  13  14
ENDBRANCH   4  13
BRANCH   5  21
HETATM   21  O   UNL     1      -6.400  11.894  72.970  1.00  0.00     3.076 OA 
HETATM   22  C   UNL     1      -5.406  10.952  72.593  1.00  0.00     0.580 C  
ENDBRANCH   5  21
BRANCH   5  23
HETATM   23  N   UNL     1      -8.119  12.145  71.188  1.00  0.00     7.878 N  
HETATM   24  C   UNL     1      -9.296  11.206  69.242  1.00  0.00     0.123 C  
HETATM   25  C   UNL     1      -8.014  11.727  69.878  1.00  0.00     1.646 C  
HETATM   26  O   UNL     1      -6.947  11.722  69.263  1.00  0.00    -0.108 OA 
HETATM   27  H   UNL     1      -9.013  12.054  71.671  1.00  0.00     0.000 HD 
HETATM   28  C   UNL     1      -9.317  11.303  67.723  1.00  0.00    -0.163 C  
HETATM   29  C   UNL     1      -9.663   9.800  69.713  1.00  0.00    -0.256 A  
HETATM   30  C   UNL     1     -11.015   9.405  69.725  1.00  0.00    -0.234 A  
HETATM   31  O   UNL     1     -10.366  11.364  67.089  1.00  0.00    -0.201 OA 
HETATM   32  O   UNL     1      -8.124  11.282  67.088  1.00  0.00    -0.137 OA 
HETATM   33  C   UNL     1     -11.391   8.146  70.206  1.00  0.00    -0.132 A  
HETATM   34  C   UNL     1     -10.416   7.273  70.671  1.00  0.00    -0.214 A  
HETATM   35  C   UNL     1      -9.072   7.617  70.612  1.00  0.00    -0.158 A  
HETATM   36  O   UNL     1     -10.738   6.060  71.199  1.00  0.00    -0.241 OA 
HETATM   37  H   UNL     1     -10.071   5.462  71.517  1.00  0.00     0.000 HD 
HETATM   38  C   UNL     1      -8.694   8.870  70.124  1.00  0.00    -0.168 A  
ENDBRANCH   5  23
TORSDOF 5
ENDMDL
MODEL      205
REMARK 921   NORMALIZED FREE ENERGY PREDICTED BY IDOCK:   41.30 KCAL/MOL
REMARK 922        TOTAL FREE ENERGY PREDICTED BY IDOCK:   52.02 KCAL/MOL
REMARK 923 INTER-LIGAND FREE ENERGY PREDICTED BY IDOCK:   47.55 KCAL/MOL
REMARK 924 INTRA-LIGAND FREE ENERGY PREDICTED BY IDOCK:    4.47 KCAL/MOL
REMARK 927      BINDING AFFINITY PREDICTED BY RF-SCORE:    0.00 PKD
ROOT
HETATM    1  C   UNL     1      -5.878  13.389  70.942  1.00  0.00    -0.127 C  
HETATM    2  O   UNL     1      -6.080  13.316  69.522  1.00  0.00    -0.099 OA 
HETATM    3  C   UNL     1      -5.394  14.361  68.829  1.00  0.00    -0.088 C  
HETATM    4  C   UNL     1      -5.695  15.721  69.446  1.00  0.00    -0.120 C  
HETATM    5  C   UNL     1      -6.949  12.723  71.909  1.00  0.00     6.196 C  
HETATM    6  C   UNL     1      -6.211  15.819  70.704  1.00  0.00     0.295 C  
HETATM    7  N   UNL     1      -6.257  14.686  71.485  1.00  0.00     0.205 N  
HETATM    8  C   UNL     1      -6.746  17.135  71.220  1.00  0.00     3.593 C  
HETATM    9  O   UNL     1      -6.949  18.111  70.510  1.00  0.00     1.177 OA 
HETATM   10  O   UNL     1      -6.963  17.210  72.548  1.00  0.00     6.857 OA 
HETATM   11  O   UNL     1      -7.912  14.856  73.097  1.00  0.00     5.526 OA 
HETATM   12  C   UNL     1      -7.178  14.231  72.363  1.00  0.00     4.108 C  
ENDROOT
BRANCH   4  13
HETATM   13  C   UNL     1      -5.470  16.852  68.457  1.00  0.00    -0.127 C  
BRANCH  13  14
HETATM   14  S   UNL     1      -6.953  17.805  68.026  1.00  0.00    -0.201 SA 
BRANCH  14  15
HETATM   15  C   UNL     1      -8.145  16.603  67.727  1.00  0.00    -0.176 A  
HETATM   16  N   UNL     1      -8.260  15.423  68.289  1.00  0.00    -0.142 NA 
HETATM   17  C   UNL     1      -9.456  17.854  65.951  1.00  0.00     0.094 C  
HETATM   18  N   UNL     1      -9.338  14.823  67.681  1.00  0.00    -0.193 NA 
HETATM   19  N   UNL     1      -9.879  15.623  66.772  1.00  0.00    -0.238 NA 
HETATM   20  N   UNL     1      -9.140  16.744  66.804  1.00  0.00    -0.229 NA 
ENDBRANCH  14  15
ENDBRANCH  13  14
ENDBRANCH   4  13
BRANCH   5  21
HETATM   21  O   UNL     1      -6.402  11.883  72.961  1.00  0.00     3.076 OA 
HETATM   22  C   UNL     1      -5.402  10.948  72.586  1.00  0.00     0.580 C  
ENDBRANCH   5  21
BRANCH   5  23
HETATM   23  N   UNL     1      -8.115  12.134  71.172  1.00  0.00     7.878 N  
HETATM   24  C   UNL     1     -10.238  12.205  69.932  1.00  0.00     1.510 C  
HETATM   25  C   UNL     1      -9.079  12.935  70.596  1.00  0.00     7.596 C  
HETATM   26  O   UNL     1      -8.996  14.163  70.569  1.00  0.00     2.262 OA 
HETATM   27  H   UNL     1      -8.197  11.120  71.096  1.00  0.00     0.000 HD 
HETATM   28  C   UNL     1     -11.514  13.031  69.832  1.00  0.00    -0.081 C  
HETATM   29  C   UNL     1      -9.862  11.601  68.580  1.00  0.00    -0.196 A  
HETATM   30  C   UNL     1     -10.544  10.459  68.118  1.00  0.00    -0.246 A  
HETATM   31  O   UNL     1     -12.621  12.509  69.756  1.00  0.00     0.058 OA 
HETATM   32  O   UNL     1     -11.376  14.375  69.794  1.00  0.00    -0.249 OA 
HETATM   33  C   UNL     1     -10.184   9.846  66.913  1.00  0.00    -0.302 A  
HETATM   34  C   UNL     1      -9.146  10.377  66.159  1.00  0.00    -0.160 A  
HETATM   35  C   UNL     1      -8.500  11.538  66.564  1.00  0.00    -0.160 A  
HETATM   36  O   UNL     1      -8.723   9.784  65.008  1.00  0.00    -0.150 OA 
HETATM   37  H   UNL     1      -8.013  10.148  64.492  1.00  0.00     0.000 HD 
HETATM   38  C   UNL     1      -8.864  12.156  67.762  1.00  0.00    -0.172 A  
ENDBRANCH   5  23
TORSDOF 5
ENDMDL
MODEL      206
REMARK 921   NORMALIZED FREE ENERGY PREDICTED BY IDOCK:   54.92 KCAL/MOL
REMARK 922        TOTAL FREE ENERGY PREDICTED BY IDOCK:   69.63 KCAL/MOL
REMARK 923 INTER-LIGAND FREE ENERGY PREDICTED BY IDOCK:   68.35 KCAL/MOL
REMARK 924 INTRA-LIGAND FREE ENERGY PREDICTED BY IDOCK:    1.27 KCAL/MOL
REMARK 927      BINDING AFFINITY PREDICTED BY RF-SCORE:    0.00 PKD
ROOT
HETATM    1  C   UNL     1     -12.080   8.298  66.800  1.00  0.00     6.652 C  
HETATM    2  O   UNL     1     -13.000   9.309  66.362  1.00  0.00    12.099 OA 
HETATM    3  C   UNL     1     -13.056   9.401  64.937  1.00  0.00    18.669 C  
HETATM    4  C   UNL     1     -11.661   9.507  64.336  1.00  0.00     8.474 C  
HETATM    5  C   UNL     1     -11.451   8.404  68.256  1.00  0.00     1.223 C  
HETATM    6  C   UNL     1     -10.561   9.151  65.058  1.00  0.00     2.930 C  
HETATM    7  N   UNL     1     -10.743   8.497  66.256  1.00  0.00     0.516 N  
HETATM    8  C   UNL     1      -9.171   9.490  64.567  1.00  0.00    -0.162 C  
HETATM    9  O   UNL     1      -8.947  10.264  63.646  1.00  0.00    -0.196 OA 
HETATM   10  O   UNL     1      -8.152   8.858  65.181  1.00  0.00    -0.118 OA 
HETATM   11  O   UNL     1      -8.928   8.812  67.659  1.00  0.00    -0.134 OA 
HETATM   12  C   UNL     1     -10.097   8.582  67.439  1.00  0.00    -0.234 C  
ENDROOT
BRANCH   4  13
HETATM   13  C   UNL     1     -11.685  10.151  62.961  1.00  0.00     5.178 C  
BRANCH  13  14
HETATM   14  S   UNL     1     -12.020  11.934  62.950  1.00  0.00     0.600 SA 
BRANCH  14  15
HETATM   15  C   UNL     1     -11.945  12.380  64.608  1.00  0.00    -0.394 A  
HETATM   16  N   UNL     1     -12.915  12.366  65.493  1.00  0.00     0.085 NA 
HETATM   17  C   UNL     1      -9.493  13.026  64.681  1.00  0.00     0.564 C  
HETATM   18  N   UNL     1     -12.367  12.852  66.656  1.00  0.00    -0.390 NA 
HETATM   19  N   UNL     1     -11.085  13.150  66.492  1.00  0.00    -0.289 NA 
HETATM   20  N   UNL     1     -10.814  12.847  65.211  1.00  0.00    -0.287 NA 
ENDBRANCH  14  15
ENDBRANCH  13  14
ENDBRANCH   4  13
BRANCH   5  21
HETATM   21  O   UNL     1     -11.490   7.183  69.043  1.00  0.00     0.095 OA 
HETATM   22  C   UNL     1     -10.370   6.916  69.875  1.00  0.00    -0.205 C  
ENDBRANCH   5  21
BRANCH   5  23
HETATM   23  N   UNL     1     -11.878   9.641  68.988  1.00  0.00    -0.099 N  
HETATM   24  C   UNL     1     -12.230  11.049  70.975  1.00  0.00    -0.456 C  
HETATM   25  C   UNL     1     -11.697   9.767  70.350  1.00  0.00    -0.231 C  
HETATM   26  O   UNL     1     -11.100   8.926  71.024  1.00  0.00    -0.244 OA 
HETATM   27  H   UNL     1     -12.311  10.405  68.470  1.00  0.00     0.000 HD 
HETATM   28  C   UNL     1     -12.548  10.929  72.459  1.00  0.00     1.423 C  
HETATM   29  C   UNL     1     -11.340  12.259  70.695  1.00  0.00     1.016 A  
HETATM   30  C   UNL     1     -11.913  13.545  70.658  1.00  0.00    -0.308 A  
HETATM   31  O   UNL     1     -13.366  11.658  73.010  1.00  0.00     1.119 OA 
HETATM   32  O   UNL     1     -11.861  10.002  73.163  1.00  0.00     2.825 OA 
HETATM   33  C   UNL     1     -11.138  14.667  70.346  1.00  0.00    -0.106 A  
HETATM   34  C   UNL     1      -9.785  14.510  70.077  1.00  0.00     0.738 A  
HETATM   35  C   UNL     1      -9.186  13.261  70.168  1.00  0.00     3.651 A  
HETATM   36  O   UNL     1      -9.001  15.564  69.715  1.00  0.00    -0.287 OA 
HETATM   37  H   UNL     1      -8.075  15.457  69.531  1.00  0.00     0.000 HD 
HETATM   38  C   UNL     1      -9.956  12.141  70.488  1.00  0.00     4.635 A  
ENDBRANCH   5  23
TORSDOF 5
ENDMDL
MODEL      207
REMARK 921   NORMALIZED FREE ENERGY PREDICTED BY IDOCK:   83.89 KCAL/MOL
REMARK 922        TOTAL FREE ENERGY PREDICTED BY IDOCK:  107.06 KCAL/MOL
REMARK 923 INTER-LIGAND FREE ENERGY PREDICTED BY IDOCK:  104.71 KCAL/MOL
REMARK 924 INTRA-LIGAND FREE ENERGY PREDICTED BY IDOCK:    2.35 KCAL/MOL
REMARK 927      BINDING AFFINITY PREDICTED BY RF-SCORE:    0.00 PKD
ROOT
HETATM    1  C   UNL     1      -7.921  16.629  67.491  1.00  0.00    -0.168 C  
HETATM    2  O   UNL     1      -7.389  15.605  68.346  1.00  0.00    -0.112 OA 
HETATM    3  C   UNL     1      -7.051  14.422  67.619  1.00  0.00    -0.183 C  
HETATM    4  C   UNL     1      -8.203  13.974  66.730  1.00  0.00     0.169 C  
HETATM    5  C   UNL     1      -8.853  17.752  68.119  1.00  0.00    -0.267 C  
HETATM    6  C   UNL     1      -9.213  14.831  66.409  1.00  0.00    -0.269 C  
HETATM    7  N   UNL     1      -9.069  16.164  66.725  1.00  0.00    -0.213 N  
HETATM    8  C   UNL     1     -10.475  14.326  65.747  1.00  0.00    -0.316 C  
HETATM    9  O   UNL     1     -10.765  13.141  65.654  1.00  0.00    -0.274 OA 
HETATM   10  O   UNL     1     -11.281  15.263  65.211  1.00  0.00    -0.352 OA 
HETATM   11  O   UNL     1     -11.132  17.194  66.941  1.00  0.00     0.040 OA 
HETATM   12  C   UNL     1      -9.948  17.086  67.174  1.00  0.00    -0.281 C  
ENDROOT
BRANCH   4  13
HETATM   13  C   UNL     1      -8.118  12.494  66.398  1.00  0.00     0.439 C  
BRANCH  13  14
HETATM   14  S   UNL     1      -9.097  11.406  67.470  1.00  0.00    -0.160 SA 
BRANCH  14  15
HETATM   15  C   UNL     1      -8.517  11.748  69.050  1.00  0.00     0.217 A  
HETATM   16  N   UNL     1      -8.380  12.921  69.624  1.00  0.00     1.476 NA 
HETATM   17  C   UNL     1      -8.055   9.361  69.773  1.00  0.00    -0.133 C  
HETATM   18  N   UNL     1      -7.838  12.671  70.861  1.00  0.00     5.402 NA 
HETATM   19  N   UNL     1      -7.654  11.371  71.049  1.00  0.00     3.526 NA 
HETATM   20  N   UNL     1      -8.086  10.788  69.919  1.00  0.00     0.237 NA 
ENDBRANCH  14  15
ENDBRANCH  13  14
ENDBRANCH   4  13
BRANCH   5  21
HETATM   21  O   UNL     1      -8.526  19.117  67.744  1.00  0.00    -0.288 OA 
HETATM   22  C   UNL     1      -7.180  19.530  67.926  1.00  0.00    -0.271 C  
ENDBRANCH   5  21
BRANCH   5  23
HETATM   23  N   UNL     1      -9.115  17.544  69.581  1.00  0.00     0.635 N  
HETATM   24  C   UNL     1      -8.856  18.009  71.983  1.00  0.00    14.277 C  
HETATM   25  C   UNL     1      -8.556  18.369  70.534  1.00  0.00     3.847 C  
HETATM   26  O   UNL     1      -7.893  19.367  70.246  1.00  0.00     0.701 OA 
HETATM   27  H   UNL     1      -9.719  16.778  69.876  1.00  0.00     0.000 HD 
HETATM   28  C   UNL     1      -7.822  18.522  72.976  1.00  0.00     9.597 C  
HETATM   29  C   UNL     1     -10.272  18.396  72.408  1.00  0.00     5.122 A  
HETATM   30  C   UNL     1     -10.913  17.664  73.426  1.00  0.00     2.604 A  
HETATM   31  O   UNL     1      -7.642  17.984  74.063  1.00  0.00     8.294 OA 
HETATM   32  O   UNL     1      -7.126  19.626  72.625  1.00  0.00     1.436 OA 
HETATM   33  C   UNL     1     -12.230  17.954  73.798  1.00  0.00     1.753 A  
HETATM   34  C   UNL     1     -12.910  18.982  73.160  1.00  0.00    14.136 A  
HETATM   35  C   UNL     1     -12.278  19.757  72.196  1.00  0.00    16.345 A  
HETATM   36  O   UNL     1     -14.211  19.265  73.448  1.00  0.00    12.550 OA 
HETATM   37  H   UNL     1     -14.677  19.969  73.011  1.00  0.00     0.000 HD 
HETATM   38  C   UNL     1     -10.961  19.475  71.830  1.00  0.00     5.197 A  
ENDBRANCH   5  23
TORSDOF 5
ENDMDL
