MODEL        1
REMARK 921   NORMALIZED FREE ENERGY PREDICTED BY IDOCK:   -4.66 KCAL/MOL
REMARK 922        TOTAL FREE ENERGY PREDICTED BY IDOCK:   -7.65 KCAL/MOL
REMARK 923 INTER-LIGAND FREE ENERGY PREDICTED BY IDOCK:   -7.11 KCAL/MOL
REMARK 924 INTRA-LIGAND FREE ENERGY PREDICTED BY IDOCK:   -0.55 KCAL/MOL
REMARK 927      BINDING AFFINITY PREDICTED BY RF-SCORE:    0.00 PKD
ROOT
HETATM    1  C   UNL     1     -12.437  15.484  73.524  1.00  0.00    -0.674 C  
HETATM    2  C   UNL     1     -13.769  15.683  72.820  1.00  0.00    -0.662 C  
ENDROOT
BRANCH   2   3
HETATM    3  C   UNL     1     -13.785  14.989  71.460  1.00  0.00    -0.553 C  
BRANCH   3   4
HETATM    4  C   UNL     1     -12.607  14.028  71.313  1.00  0.00    -0.444 C  
BRANCH   4   5
HETATM    5  C   UNL     1     -12.144  13.950  69.859  1.00  0.00    -0.406 C  
BRANCH   5   6
HETATM    6  C   UNL     1     -11.758  12.521  69.480  1.00  0.00    -0.375 C  
BRANCH   6   7
HETATM    7  C   UNL     1     -11.334  12.434  68.015  1.00  0.00    -0.340 C  
BRANCH   7   8
HETATM    8  C   UNL     1     -11.961  13.566  67.201  1.00  0.00    -0.426 C  
BRANCH   8   9
HETATM    9  C   UNL     1     -12.250  13.127  65.766  1.00  0.00    -0.514 C  
BRANCH   9  10
HETATM   10  C   UNL     1     -11.266  13.776  64.793  1.00  0.00    -0.370 C  
BRANCH  10  11
HETATM   11  C   UNL     1     -10.523  14.941  65.440  1.00  0.00    -0.406 C  
HETATM   12  C   UNL     1     -10.966  16.270  64.871  1.00  0.00    -0.307 C  
HETATM   13  O   UNL     1     -10.314  17.312  65.439  1.00  0.00    -0.626 OA 
HETATM   14  O   UNL     1     -11.808  16.424  64.003  1.00  0.00    -1.003 OA 
ENDBRANCH  10  11
ENDBRANCH   9  10
ENDBRANCH   8   9
ENDBRANCH   7   8
ENDBRANCH   6   7
ENDBRANCH   5   6
ENDBRANCH   4   5
ENDBRANCH   3   4
ENDBRANCH   2   3
TORSDOF 9
ENDMDL
MODEL        2
REMARK 921   NORMALIZED FREE ENERGY PREDICTED BY IDOCK:   -4.62 KCAL/MOL
REMARK 922        TOTAL FREE ENERGY PREDICTED BY IDOCK:   -7.60 KCAL/MOL
REMARK 923 INTER-LIGAND FREE ENERGY PREDICTED BY IDOCK:   -6.80 KCAL/MOL
REMARK 924 INTRA-LIGAND FREE ENERGY PREDICTED BY IDOCK:   -0.80 KCAL/MOL
REMARK 927      BINDING AFFINITY PREDICTED BY RF-SCORE:    0.00 PKD
ROOT
HETATM    1  C   UNL     1     -13.622  13.029  72.230  1.00  0.00    -0.643 C  
HETATM    2  C   UNL     1     -14.189  14.404  71.921  1.00  0.00    -0.610 C  
ENDROOT
BRANCH   2   3
HETATM    3  C   UNL     1     -13.529  15.481  72.779  1.00  0.00    -0.650 C  
BRANCH   3   4
HETATM    4  C   UNL     1     -12.150  15.855  72.239  1.00  0.00    -0.597 C  
BRANCH   4   5
HETATM    5  C   UNL     1     -12.126  15.796  70.713  1.00  0.00    -0.448 C  
BRANCH   5   6
HETATM    6  C   UNL     1     -10.702  15.620  70.191  1.00  0.00    -0.355 C  
BRANCH   6   7
HETATM    7  C   UNL     1     -10.693  14.909  68.839  1.00  0.00    -0.245 C  
BRANCH   7   8
HETATM    8  C   UNL     1     -12.011  14.171  68.606  1.00  0.00    -0.373 C  
BRANCH   8   9
HETATM    9  C   UNL     1     -11.776  12.787  68.002  1.00  0.00    -0.405 C  
BRANCH   9  10
HETATM   10  C   UNL     1     -11.247  12.904  66.572  1.00  0.00    -0.340 C  
BRANCH  10  11
HETATM   11  C   UNL     1     -12.320  13.424  65.619  1.00  0.00    -0.521 C  
HETATM   12  C   UNL     1     -11.816  14.586  64.793  1.00  0.00    -0.441 C  
HETATM   13  O   UNL     1     -12.760  15.056  63.942  1.00  0.00    -0.775 OA 
HETATM   14  O   UNL     1     -10.699  15.071  64.857  1.00  0.00    -0.400 OA 
ENDBRANCH  10  11
ENDBRANCH   9  10
ENDBRANCH   8   9
ENDBRANCH   7   8
ENDBRANCH   6   7
ENDBRANCH   5   6
ENDBRANCH   4   5
ENDBRANCH   3   4
ENDBRANCH   2   3
TORSDOF 9
ENDMDL
MODEL        3
REMARK 921   NORMALIZED FREE ENERGY PREDICTED BY IDOCK:   -4.61 KCAL/MOL
REMARK 922        TOTAL FREE ENERGY PREDICTED BY IDOCK:   -7.58 KCAL/MOL
REMARK 923 INTER-LIGAND FREE ENERGY PREDICTED BY IDOCK:   -6.75 KCAL/MOL
REMARK 924 INTRA-LIGAND FREE ENERGY PREDICTED BY IDOCK:   -0.83 KCAL/MOL
REMARK 927      BINDING AFFINITY PREDICTED BY RF-SCORE:    0.00 PKD
ROOT
HETATM    1  C   UNL     1     -13.524  12.919  72.291  1.00  0.00    -0.631 C  
HETATM    2  C   UNL     1     -14.400  14.101  71.907  1.00  0.00    -0.541 C  
ENDROOT
BRANCH   2   3
HETATM    3  C   UNL     1     -13.987  15.363  72.662  1.00  0.00    -0.590 C  
BRANCH   3   4
HETATM    4  C   UNL     1     -12.472  15.434  72.839  1.00  0.00    -0.523 C  
BRANCH   4   5
HETATM    5  C   UNL     1     -11.829  16.260  71.726  1.00  0.00    -0.510 C  
BRANCH   5   6
HETATM    6  C   UNL     1     -11.084  15.365  70.738  1.00  0.00    -0.371 C  
BRANCH   6   7
HETATM    7  C   UNL     1     -11.788  15.336  69.381  1.00  0.00    -0.367 C  
BRANCH   7   8
HETATM    8  C   UNL     1     -11.939  13.901  68.880  1.00  0.00    -0.393 C  
BRANCH   8   9
HETATM    9  C   UNL     1     -10.785  13.506  67.961  1.00  0.00    -0.263 C  
BRANCH   9  10
HETATM   10  C   UNL     1     -10.221  14.732  67.242  1.00  0.00    -0.241 C  
BRANCH  10  11
HETATM   11  C   UNL     1     -11.064  15.104  66.025  1.00  0.00    -0.312 C  
HETATM   12  C   UNL     1     -10.600  16.400  65.400  1.00  0.00    -0.320 C  
HETATM   13  O   UNL     1     -11.340  16.740  64.318  1.00  0.00    -1.170 OA 
HETATM   14  O   UNL     1      -9.673  17.086  65.796  1.00  0.00    -0.522 OA 
ENDBRANCH  10  11
ENDBRANCH   9  10
ENDBRANCH   8   9
ENDBRANCH   7   8
ENDBRANCH   6   7
ENDBRANCH   5   6
ENDBRANCH   4   5
ENDBRANCH   3   4
ENDBRANCH   2   3
TORSDOF 9
ENDMDL
MODEL        4
REMARK 921   NORMALIZED FREE ENERGY PREDICTED BY IDOCK:   -4.55 KCAL/MOL
REMARK 922        TOTAL FREE ENERGY PREDICTED BY IDOCK:   -7.49 KCAL/MOL
REMARK 923 INTER-LIGAND FREE ENERGY PREDICTED BY IDOCK:   -6.83 KCAL/MOL
REMARK 924 INTRA-LIGAND FREE ENERGY PREDICTED BY IDOCK:   -0.66 KCAL/MOL
REMARK 927      BINDING AFFINITY PREDICTED BY RF-SCORE:    0.00 PKD
ROOT
HETATM    1  C   UNL     1     -12.181  15.519  73.391  1.00  0.00    -0.635 C  
HETATM    2  C   UNL     1     -12.553  15.872  71.960  1.00  0.00    -0.517 C  
ENDROOT
BRANCH   2   3
HETATM    3  C   UNL     1     -13.319  14.732  71.291  1.00  0.00    -0.465 C  
BRANCH   3   4
HETATM    4  C   UNL     1     -13.738  13.672  72.307  1.00  0.00    -0.687 C  
BRANCH   4   5
HETATM    5  C   UNL     1     -13.214  12.294  71.908  1.00  0.00    -0.481 C  
BRANCH   5   6
HETATM    6  C   UNL     1     -12.220  12.397  70.753  1.00  0.00    -0.336 C  
BRANCH   6   7
HETATM    7  C   UNL     1     -11.824  11.012  70.242  1.00  0.00    -0.456 C  
BRANCH   7   8
HETATM    8  C   UNL     1     -11.412  11.075  68.771  1.00  0.00    -0.372 C  
BRANCH   8   9
HETATM    9  C   UNL     1     -11.811  12.406  68.136  1.00  0.00    -0.372 C  
BRANCH   9  10
HETATM   10  C   UNL     1     -11.226  12.531  66.729  1.00  0.00    -0.347 C  
BRANCH  10  11
HETATM   11  C   UNL     1     -12.266  13.034  65.733  1.00  0.00    -0.511 C  
HETATM   12  C   UNL     1     -11.684  14.061  64.788  1.00  0.00    -0.394 C  
HETATM   13  O   UNL     1     -12.599  14.513  63.898  1.00  0.00    -0.827 OA 
HETATM   14  O   UNL     1     -10.532  14.460  64.797  1.00  0.00    -0.430 OA 
ENDBRANCH  10  11
ENDBRANCH   9  10
ENDBRANCH   8   9
ENDBRANCH   7   8
ENDBRANCH   6   7
ENDBRANCH   5   6
ENDBRANCH   4   5
ENDBRANCH   3   4
ENDBRANCH   2   3
TORSDOF 9
ENDMDL
MODEL        5
REMARK 921   NORMALIZED FREE ENERGY PREDICTED BY IDOCK:   -4.37 KCAL/MOL
REMARK 922        TOTAL FREE ENERGY PREDICTED BY IDOCK:   -7.22 KCAL/MOL
REMARK 923 INTER-LIGAND FREE ENERGY PREDICTED BY IDOCK:   -6.25 KCAL/MOL
REMARK 924 INTRA-LIGAND FREE ENERGY PREDICTED BY IDOCK:   -0.96 KCAL/MOL
REMARK 927      BINDING AFFINITY PREDICTED BY RF-SCORE:    0.00 PKD
ROOT
HETATM    1  C   UNL     1     -11.246  10.313  70.370  1.00  0.00    -0.407 C  
HETATM    2  C   UNL     1     -12.094   9.755  71.501  1.00  0.00    -0.493 C  
ENDROOT
BRANCH   2   3
HETATM    3  C   UNL     1     -13.253  10.690  71.836  1.00  0.00    -0.528 C  
BRANCH   3   4
HETATM    4  C   UNL     1     -12.904  12.144  71.523  1.00  0.00    -0.394 C  
BRANCH   4   5
HETATM    5  C   UNL     1     -13.725  13.102  72.383  1.00  0.00    -0.640 C  
BRANCH   5   6
HETATM    6  C   UNL     1     -13.601  14.538  71.879  1.00  0.00    -0.484 C  
BRANCH   6   7
HETATM    7  C   UNL     1     -12.334  15.203  72.415  1.00  0.00    -0.447 C  
BRANCH   7   8
HETATM    8  C   UNL     1     -11.443  15.677  71.267  1.00  0.00    -0.469 C  
BRANCH   8   9
HETATM    9  C   UNL     1     -12.166  15.582  69.924  1.00  0.00    -0.351 C  
BRANCH   9  10
HETATM   10  C   UNL     1     -11.202  15.145  68.821  1.00  0.00    -0.293 C  
BRANCH  10  11
HETATM   11  C   UNL     1     -11.238  13.634  68.611  1.00  0.00    -0.308 C  
HETATM   12  C   UNL     1     -11.895  13.268  67.299  1.00  0.00    -0.372 C  
HETATM   13  O   UNL     1     -11.932  11.929  67.101  1.00  0.00    -0.611 OA 
HETATM   14  O   UNL     1     -12.350  14.059  66.489  1.00  0.00    -0.457 OA 
ENDBRANCH  10  11
ENDBRANCH   9  10
ENDBRANCH   8   9
ENDBRANCH   7   8
ENDBRANCH   6   7
ENDBRANCH   5   6
ENDBRANCH   4   5
ENDBRANCH   3   4
ENDBRANCH   2   3
TORSDOF 9
ENDMDL
MODEL        6
REMARK 921   NORMALIZED FREE ENERGY PREDICTED BY IDOCK:   -4.37 KCAL/MOL
REMARK 922        TOTAL FREE ENERGY PREDICTED BY IDOCK:   -7.21 KCAL/MOL
REMARK 923 INTER-LIGAND FREE ENERGY PREDICTED BY IDOCK:   -6.69 KCAL/MOL
REMARK 924 INTRA-LIGAND FREE ENERGY PREDICTED BY IDOCK:   -0.53 KCAL/MOL
REMARK 927      BINDING AFFINITY PREDICTED BY RF-SCORE:    0.00 PKD
ROOT
HETATM    1  C   UNL     1     -12.187   8.246  72.336  1.00  0.00    -0.412 C  
HETATM    2  C   UNL     1     -11.575   9.443  71.627  1.00  0.00    -0.466 C  
ENDROOT
BRANCH   2   3
HETATM    3  C   UNL     1     -12.602  10.557  71.436  1.00  0.00    -0.539 C  
BRANCH   3   4
HETATM    4  C   UNL     1     -12.153  11.551  70.368  1.00  0.00    -0.471 C  
BRANCH   4   5
HETATM    5  C   UNL     1     -11.662  10.825  69.116  1.00  0.00    -0.368 C  
BRANCH   5   6
HETATM    6  C   UNL     1     -11.429  11.805  67.967  1.00  0.00    -0.388 C  
BRANCH   6   7
HETATM    7  C   UNL     1     -10.807  11.102  66.761  1.00  0.00    -0.322 C  
BRANCH   7   8
HETATM    8  C   UNL     1     -10.842  12.006  65.530  1.00  0.00    -0.336 C  
BRANCH   8   9
HETATM    9  C   UNL     1     -12.230  12.608  65.319  1.00  0.00    -0.532 C  
BRANCH   9  10
HETATM   10  C   UNL     1     -12.126  14.010  64.718  1.00  0.00    -0.455 C  
BRANCH  10  11
HETATM   11  C   UNL     1     -11.163  14.889  65.510  1.00  0.00    -0.348 C  
HETATM   12  C   UNL     1     -11.056  16.276  64.917  1.00  0.00    -0.290 C  
HETATM   13  O   UNL     1     -10.204  17.065  65.613  1.00  0.00    -0.556 OA 
HETATM   14  O   UNL     1     -11.651  16.673  63.930  1.00  0.00    -1.204 OA 
ENDBRANCH  10  11
ENDBRANCH   9  10
ENDBRANCH   8   9
ENDBRANCH   7   8
ENDBRANCH   6   7
ENDBRANCH   5   6
ENDBRANCH   4   5
ENDBRANCH   3   4
ENDBRANCH   2   3
TORSDOF 9
ENDMDL
MODEL        7
REMARK 921   NORMALIZED FREE ENERGY PREDICTED BY IDOCK:   -4.32 KCAL/MOL
REMARK 922        TOTAL FREE ENERGY PREDICTED BY IDOCK:   -7.14 KCAL/MOL
REMARK 923 INTER-LIGAND FREE ENERGY PREDICTED BY IDOCK:   -6.61 KCAL/MOL
REMARK 924 INTRA-LIGAND FREE ENERGY PREDICTED BY IDOCK:   -0.53 KCAL/MOL
REMARK 927      BINDING AFFINITY PREDICTED BY RF-SCORE:    0.00 PKD
ROOT
HETATM    1  C   UNL     1     -12.566  15.453  73.936  1.00  0.00    -0.750 C  
HETATM    2  C   UNL     1     -13.565  15.543  72.795  1.00  0.00    -0.653 C  
ENDROOT
BRANCH   2   3
HETATM    3  C   UNL     1     -13.840  14.168  72.190  1.00  0.00    -0.613 C  
BRANCH   3   4
HETATM    4  C   UNL     1     -12.700  13.726  71.275  1.00  0.00    -0.450 C  
BRANCH   4   5
HETATM    5  C   UNL     1     -12.367  14.812  70.252  1.00  0.00    -0.400 C  
BRANCH   5   6
HETATM    6  C   UNL     1     -11.291  14.337  69.277  1.00  0.00    -0.322 C  
BRANCH   6   7
HETATM    7  C   UNL     1     -11.915  13.690  68.040  1.00  0.00    -0.385 C  
BRANCH   7   8
HETATM    8  C   UNL     1     -11.321  12.304  67.797  1.00  0.00    -0.362 C  
BRANCH   8   9
HETATM    9  C   UNL     1     -10.163  12.359  66.802  1.00  0.00    -0.234 C  
BRANCH   9  10
HETATM   10  C   UNL     1     -10.287  13.584  65.895  1.00  0.00    -0.301 C  
BRANCH  10  11
HETATM   11  C   UNL     1     -10.719  13.195  64.484  1.00  0.00    -0.416 C  
HETATM   12  C   UNL     1     -12.150  13.597  64.207  1.00  0.00    -0.434 C  
HETATM   13  O   UNL     1     -12.544  13.258  62.957  1.00  0.00    -0.599 OA 
HETATM   14  O   UNL     1     -12.892  14.162  64.993  1.00  0.00    -0.687 OA 
ENDBRANCH  10  11
ENDBRANCH   9  10
ENDBRANCH   8   9
ENDBRANCH   7   8
ENDBRANCH   6   7
ENDBRANCH   5   6
ENDBRANCH   4   5
ENDBRANCH   3   4
ENDBRANCH   2   3
TORSDOF 9
ENDMDL
MODEL        8
REMARK 921   NORMALIZED FREE ENERGY PREDICTED BY IDOCK:   -4.31 KCAL/MOL
REMARK 922        TOTAL FREE ENERGY PREDICTED BY IDOCK:   -7.12 KCAL/MOL
REMARK 923 INTER-LIGAND FREE ENERGY PREDICTED BY IDOCK:   -6.72 KCAL/MOL
REMARK 924 INTRA-LIGAND FREE ENERGY PREDICTED BY IDOCK:   -0.40 KCAL/MOL
REMARK 927      BINDING AFFINITY PREDICTED BY RF-SCORE:    0.00 PKD
ROOT
HETATM    1  C   UNL     1     -14.208   7.079  71.613  1.00  0.00    -0.433 C  
HETATM    2  C   UNL     1     -12.695   7.180  71.519  1.00  0.00    -0.433 C  
ENDROOT
BRANCH   2   3
HETATM    3  C   UNL     1     -12.252   8.618  71.257  1.00  0.00    -0.320 C  
BRANCH   3   4
HETATM    4  C   UNL     1     -12.954   9.596  72.196  1.00  0.00    -0.493 C  
BRANCH   4   5
HETATM    5  C   UNL     1     -13.003  10.998  71.589  1.00  0.00    -0.561 C  
BRANCH   5   6
HETATM    6  C   UNL     1     -12.251  11.049  70.261  1.00  0.00    -0.447 C  
BRANCH   6   7
HETATM    7  C   UNL     1     -11.816  12.476  69.929  1.00  0.00    -0.373 C  
BRANCH   7   8
HETATM    8  C   UNL     1     -11.318  12.569  68.487  1.00  0.00    -0.337 C  
BRANCH   8   9
HETATM    9  C   UNL     1     -11.943  13.756  67.756  1.00  0.00    -0.391 C  
BRANCH   9  10
HETATM   10  C   UNL     1     -11.575  13.733  66.272  1.00  0.00    -0.369 C  
BRANCH  10  11
HETATM   11  C   UNL     1     -11.090  15.099  65.795  1.00  0.00    -0.330 C  
HETATM   12  C   UNL     1     -11.760  15.509  64.503  1.00  0.00    -0.253 C  
HETATM   13  O   UNL     1     -11.337  16.721  64.070  1.00  0.00    -1.153 OA 
HETATM   14  O   UNL     1     -12.587  14.853  63.894  1.00  0.00    -0.831 OA 
ENDBRANCH  10  11
ENDBRANCH   9  10
ENDBRANCH   8   9
ENDBRANCH   7   8
ENDBRANCH   6   7
ENDBRANCH   5   6
ENDBRANCH   4   5
ENDBRANCH   3   4
ENDBRANCH   2   3
TORSDOF 9
ENDMDL
MODEL        9
REMARK 921   NORMALIZED FREE ENERGY PREDICTED BY IDOCK:   -4.30 KCAL/MOL
REMARK 922        TOTAL FREE ENERGY PREDICTED BY IDOCK:   -7.11 KCAL/MOL
REMARK 923 INTER-LIGAND FREE ENERGY PREDICTED BY IDOCK:   -6.44 KCAL/MOL
REMARK 924 INTRA-LIGAND FREE ENERGY PREDICTED BY IDOCK:   -0.67 KCAL/MOL
REMARK 927      BINDING AFFINITY PREDICTED BY RF-SCORE:    0.00 PKD
ROOT
HETATM    1  C   UNL     1     -14.283  13.892  72.184  1.00  0.00    -0.595 C  
HETATM    2  C   UNL     1     -13.315  14.977  72.626  1.00  0.00    -0.556 C  
ENDROOT
BRANCH   2   3
HETATM    3  C   UNL     1     -11.971  14.843  71.914  1.00  0.00    -0.432 C  
BRANCH   3   4
HETATM    4  C   UNL     1     -11.654  16.085  71.085  1.00  0.00    -0.492 C  
BRANCH   4   5
HETATM    5  C   UNL     1     -11.723  15.777  69.590  1.00  0.00    -0.363 C  
BRANCH   5   6
HETATM    6  C   UNL     1     -10.948  14.504  69.254  1.00  0.00    -0.282 C  
BRANCH   6   7
HETATM    7  C   UNL     1     -11.800  13.540  68.430  1.00  0.00    -0.408 C  
BRANCH   7   8
HETATM    8  C   UNL     1     -12.000  14.070  67.011  1.00  0.00    -0.472 C  
BRANCH   8   9
HETATM    9  C   UNL     1     -10.664  14.387  66.341  1.00  0.00    -0.306 C  
BRANCH   9  10
HETATM   10  C   UNL     1     -10.850  14.604  64.839  1.00  0.00    -0.436 C  
BRANCH  10  11
HETATM   11  C   UNL     1     -12.133  13.951  64.333  1.00  0.00    -0.477 C  
HETATM   12  C   UNL     1     -11.849  12.663  63.593  1.00  0.00    -0.530 C  
HETATM   13  O   UNL     1     -12.981  12.073  63.140  1.00  0.00    -0.662 OA 
HETATM   14  O   UNL     1     -10.745  12.181  63.406  1.00  0.00    -0.430 OA 
ENDBRANCH  10  11
ENDBRANCH   9  10
ENDBRANCH   8   9
ENDBRANCH   7   8
ENDBRANCH   6   7
ENDBRANCH   5   6
ENDBRANCH   4   5
ENDBRANCH   3   4
ENDBRANCH   2   3
TORSDOF 9
ENDMDL
MODEL       10
REMARK 921   NORMALIZED FREE ENERGY PREDICTED BY IDOCK:   -4.24 KCAL/MOL
REMARK 922        TOTAL FREE ENERGY PREDICTED BY IDOCK:   -7.02 KCAL/MOL
REMARK 923 INTER-LIGAND FREE ENERGY PREDICTED BY IDOCK:   -6.49 KCAL/MOL
REMARK 924 INTRA-LIGAND FREE ENERGY PREDICTED BY IDOCK:   -0.53 KCAL/MOL
REMARK 927      BINDING AFFINITY PREDICTED BY RF-SCORE:    0.00 PKD
ROOT
HETATM    1  C   UNL     1      -9.646   8.409  72.433  1.00  0.00    -0.373 C  
HETATM    2  C   UNL     1     -10.651   9.126  71.546  1.00  0.00    -0.428 C  
ENDROOT
BRANCH   2   3
HETATM    3  C   UNL     1     -12.084   8.745  71.914  1.00  0.00    -0.433 C  
BRANCH   3   4
HETATM    4  C   UNL     1     -13.024   9.943  71.803  1.00  0.00    -0.549 C  
BRANCH   4   5
HETATM    5  C   UNL     1     -12.328  11.125  71.131  1.00  0.00    -0.451 C  
BRANCH   5   6
HETATM    6  C   UNL     1     -12.960  12.449  71.555  1.00  0.00    -0.385 C  
BRANCH   6   7
HETATM    7  C   UNL     1     -12.407  13.612  70.732  1.00  0.00    -0.446 C  
BRANCH   7   8
HETATM    8  C   UNL     1     -11.669  13.099  69.496  1.00  0.00    -0.382 C  
BRANCH   8   9
HETATM    9  C   UNL     1     -11.846  14.044  68.308  1.00  0.00    -0.406 C  
BRANCH   9  10
HETATM   10  C   UNL     1     -11.085  13.526  67.087  1.00  0.00    -0.308 C  
BRANCH  10  11
HETATM   11  C   UNL     1     -11.323  14.408  65.864  1.00  0.00    -0.332 C  
HETATM   12  C   UNL     1     -12.348  13.804  64.931  1.00  0.00    -0.405 C  
HETATM   13  O   UNL     1     -12.568  14.579  63.843  1.00  0.00    -0.827 OA 
HETATM   14  O   UNL     1     -12.929  12.746  65.105  1.00  0.00    -0.768 OA 
ENDBRANCH  10  11
ENDBRANCH   9  10
ENDBRANCH   8   9
ENDBRANCH   7   8
ENDBRANCH   6   7
ENDBRANCH   5   6
ENDBRANCH   4   5
ENDBRANCH   3   4
ENDBRANCH   2   3
TORSDOF 9
ENDMDL
MODEL       11
REMARK 921   NORMALIZED FREE ENERGY PREDICTED BY IDOCK:   -4.19 KCAL/MOL
REMARK 922        TOTAL FREE ENERGY PREDICTED BY IDOCK:   -6.94 KCAL/MOL
REMARK 923 INTER-LIGAND FREE ENERGY PREDICTED BY IDOCK:   -6.03 KCAL/MOL
REMARK 924 INTRA-LIGAND FREE ENERGY PREDICTED BY IDOCK:   -0.90 KCAL/MOL
REMARK 927      BINDING AFFINITY PREDICTED BY RF-SCORE:    0.00 PKD
ROOT
HETATM    1  C   UNL     1     -13.198  10.599  71.769  1.00  0.00    -0.526 C  
HETATM    2  C   UNL     1     -13.583   9.149  72.016  1.00  0.00    -0.520 C  
ENDROOT
BRANCH   2   3
HETATM    3  C   UNL     1     -12.365   8.232  71.930  1.00  0.00    -0.379 C  
BRANCH   3   4
HETATM    4  C   UNL     1     -11.070   9.035  71.824  1.00  0.00    -0.444 C  
BRANCH   4   5
HETATM    5  C   UNL     1     -10.131   8.423  70.786  1.00  0.00    -0.226 C  
BRANCH   5   6
HETATM    6  C   UNL     1     -10.573   8.777  69.367  1.00  0.00    -0.218 C  
BRANCH   6   7
HETATM    7  C   UNL     1     -10.331  10.255  69.067  1.00  0.00    -0.229 C  
BRANCH   7   8
HETATM    8  C   UNL     1     -11.430  10.812  68.163  1.00  0.00    -0.346 C  
BRANCH   8   9
HETATM    9  C   UNL     1     -11.810  12.238  68.558  1.00  0.00    -0.359 C  
BRANCH   9  10
HETATM   10  C   UNL     1     -11.827  13.153  67.333  1.00  0.00    -0.412 C  
BRANCH  10  11
HETATM   11  C   UNL     1     -11.832  12.351  66.035  1.00  0.00    -0.459 C  
HETATM   12  C   UNL     1     -12.654  13.030  64.963  1.00  0.00    -0.454 C  
HETATM   13  O   UNL     1     -12.666  12.327  63.805  1.00  0.00    -0.693 OA 
HETATM   14  O   UNL     1     -13.251  14.086  65.089  1.00  0.00    -0.768 OA 
ENDBRANCH  10  11
ENDBRANCH   9  10
ENDBRANCH   8   9
ENDBRANCH   7   8
ENDBRANCH   6   7
ENDBRANCH   5   6
ENDBRANCH   4   5
ENDBRANCH   3   4
ENDBRANCH   2   3
TORSDOF 9
ENDMDL
MODEL       12
REMARK 921   NORMALIZED FREE ENERGY PREDICTED BY IDOCK:   -4.19 KCAL/MOL
REMARK 922        TOTAL FREE ENERGY PREDICTED BY IDOCK:   -6.93 KCAL/MOL
REMARK 923 INTER-LIGAND FREE ENERGY PREDICTED BY IDOCK:   -5.93 KCAL/MOL
REMARK 924 INTRA-LIGAND FREE ENERGY PREDICTED BY IDOCK:   -1.01 KCAL/MOL
REMARK 927      BINDING AFFINITY PREDICTED BY RF-SCORE:    0.00 PKD
ROOT
HETATM    1  C   UNL     1      -9.442  10.028  64.411  1.00  0.00    -0.349 C  
HETATM    2  C   UNL     1     -10.477  11.116  64.645  1.00  0.00    -0.400 C  
ENDROOT
BRANCH   2   3
HETATM    3  C   UNL     1     -10.851  11.814  63.339  1.00  0.00    -0.460 C  
BRANCH   3   4
HETATM    4  C   UNL     1     -12.154  12.598  63.481  1.00  0.00    -0.648 C  
BRANCH   4   5
HETATM    5  C   UNL     1     -12.613  12.637  64.938  1.00  0.00    -0.525 C  
BRANCH   5   6
HETATM    6  C   UNL     1     -12.619  14.066  65.475  1.00  0.00    -0.543 C  
BRANCH   6   7
HETATM    7  C   UNL     1     -11.952  14.141  66.849  1.00  0.00    -0.479 C  
BRANCH   7   8
HETATM    8  C   UNL     1     -10.430  14.139  66.713  1.00  0.00    -0.277 C  
BRANCH   8   9
HETATM    9  C   UNL     1      -9.966  15.093  65.614  1.00  0.00    -0.387 C  
BRANCH   9  10
HETATM   10  C   UNL     1      -9.361  16.361  66.218  1.00  0.00    -0.348 C  
BRANCH  10  11
HETATM   11  C   UNL     1     -10.345  17.527  66.175  1.00  0.00    -0.330 C  
HETATM   12  C   UNL     1      -9.631  18.857  66.089  1.00  0.00    -0.242 C  
HETATM   13  O   UNL     1     -10.494  19.899  66.049  1.00  0.00    -0.484 OA 
HETATM   14  O   UNL     1      -8.422  19.012  66.056  1.00  0.00    -0.455 OA 
ENDBRANCH  10  11
ENDBRANCH   9  10
ENDBRANCH   8   9
ENDBRANCH   7   8
ENDBRANCH   6   7
ENDBRANCH   5   6
ENDBRANCH   4   5
ENDBRANCH   3   4
ENDBRANCH   2   3
TORSDOF 9
ENDMDL
MODEL       13
REMARK 921   NORMALIZED FREE ENERGY PREDICTED BY IDOCK:   -4.18 KCAL/MOL
REMARK 922        TOTAL FREE ENERGY PREDICTED BY IDOCK:   -6.93 KCAL/MOL
REMARK 923 INTER-LIGAND FREE ENERGY PREDICTED BY IDOCK:   -6.17 KCAL/MOL
REMARK 924 INTRA-LIGAND FREE ENERGY PREDICTED BY IDOCK:   -0.76 KCAL/MOL
REMARK 927      BINDING AFFINITY PREDICTED BY RF-SCORE:    0.00 PKD
ROOT
HETATM    1  C   UNL     1     -10.466  10.888  64.588  1.00  0.00    -0.384 C  
HETATM    2  C   UNL     1     -10.821  11.823  63.443  1.00  0.00    -0.460 C  
ENDROOT
BRANCH   2   3
HETATM    3  C   UNL     1     -12.251  12.343  63.577  1.00  0.00    -0.661 C  
BRANCH   3   4
HETATM    4  C   UNL     1     -12.638  12.536  65.041  1.00  0.00    -0.424 C  
BRANCH   4   5
HETATM    5  C   UNL     1     -12.389  13.977  65.487  1.00  0.00    -0.503 C  
BRANCH   5   6
HETATM    6  C   UNL     1     -12.136  14.052  66.991  1.00  0.00    -0.455 C  
BRANCH   6   7
HETATM    7  C   UNL     1     -11.317  12.855  67.473  1.00  0.00    -0.354 C  
BRANCH   7   8
HETATM    8  C   UNL     1     -11.894  12.290  68.770  1.00  0.00    -0.356 C  
BRANCH   8   9
HETATM    9  C   UNL     1     -11.605  10.796  68.906  1.00  0.00    -0.361 C  
BRANCH   9  10
HETATM   10  C   UNL     1     -11.165  10.456  70.330  1.00  0.00    -0.399 C  
BRANCH  10  11
HETATM   11  C   UNL     1     -12.095   9.433  70.974  1.00  0.00    -0.373 C  
HETATM   12  C   UNL     1     -13.152  10.098  71.828  1.00  0.00    -0.463 C  
HETATM   13  O   UNL     1     -13.984   9.199  72.404  1.00  0.00    -0.471 OA 
HETATM   14  O   UNL     1     -13.271  11.299  72.000  1.00  0.00    -0.506 OA 
ENDBRANCH  10  11
ENDBRANCH   9  10
ENDBRANCH   8   9
ENDBRANCH   7   8
ENDBRANCH   6   7
ENDBRANCH   5   6
ENDBRANCH   4   5
ENDBRANCH   3   4
ENDBRANCH   2   3
TORSDOF 9
ENDMDL
MODEL       14
REMARK 921   NORMALIZED FREE ENERGY PREDICTED BY IDOCK:   -4.18 KCAL/MOL
REMARK 922        TOTAL FREE ENERGY PREDICTED BY IDOCK:   -6.93 KCAL/MOL
REMARK 923 INTER-LIGAND FREE ENERGY PREDICTED BY IDOCK:   -6.15 KCAL/MOL
REMARK 924 INTRA-LIGAND FREE ENERGY PREDICTED BY IDOCK:   -0.78 KCAL/MOL
REMARK 927      BINDING AFFINITY PREDICTED BY RF-SCORE:    0.00 PKD
ROOT
HETATM    1  C   UNL     1     -10.238   7.068  70.536  1.00  0.00    -0.209 C  
HETATM    2  C   UNL     1     -11.710   6.764  70.310  1.00  0.00    -0.397 C  
ENDROOT
BRANCH   2   3
HETATM    3  C   UNL     1     -12.529   7.033  71.571  1.00  0.00    -0.426 C  
BRANCH   3   4
HETATM    4  C   UNL     1     -12.192   8.396  72.172  1.00  0.00    -0.434 C  
BRANCH   4   5
HETATM    5  C   UNL     1     -13.394   9.337  72.100  1.00  0.00    -0.537 C  
BRANCH   5   6
HETATM    6  C   UNL     1     -12.985  10.713  71.577  1.00  0.00    -0.566 C  
BRANCH   6   7
HETATM    7  C   UNL     1     -11.776  10.612  70.647  1.00  0.00    -0.454 C  
BRANCH   7   8
HETATM    8  C   UNL     1     -11.995  11.441  69.383  1.00  0.00    -0.407 C  
BRANCH   8   9
HETATM    9  C   UNL     1     -11.450  10.727  68.146  1.00  0.00    -0.346 C  
BRANCH   9  10
HETATM   10  C   UNL     1     -10.902  11.736  67.136  1.00  0.00    -0.303 C  
BRANCH  10  11
HETATM   11  C   UNL     1     -11.865  12.902  66.930  1.00  0.00    -0.444 C  
HETATM   12  C   UNL     1     -12.337  12.990  65.497  1.00  0.00    -0.472 C  
HETATM   13  O   UNL     1     -13.194  14.020  65.303  1.00  0.00    -0.782 OA 
HETATM   14  O   UNL     1     -12.007  12.239  64.594  1.00  0.00    -0.375 OA 
ENDBRANCH  10  11
ENDBRANCH   9  10
ENDBRANCH   8   9
ENDBRANCH   7   8
ENDBRANCH   6   7
ENDBRANCH   5   6
ENDBRANCH   4   5
ENDBRANCH   3   4
ENDBRANCH   2   3
TORSDOF 9
ENDMDL
MODEL       15
REMARK 921   NORMALIZED FREE ENERGY PREDICTED BY IDOCK:   -4.16 KCAL/MOL
REMARK 922        TOTAL FREE ENERGY PREDICTED BY IDOCK:   -6.89 KCAL/MOL
REMARK 923 INTER-LIGAND FREE ENERGY PREDICTED BY IDOCK:   -6.27 KCAL/MOL
REMARK 924 INTRA-LIGAND FREE ENERGY PREDICTED BY IDOCK:   -0.63 KCAL/MOL
REMARK 927      BINDING AFFINITY PREDICTED BY RF-SCORE:    0.00 PKD
ROOT
HETATM    1  C   UNL     1     -11.796   9.761  71.243  1.00  0.00    -0.481 C  
HETATM    2  C   UNL     1     -12.880  10.669  70.685  1.00  0.00    -0.404 C  
ENDROOT
BRANCH   2   3
HETATM    3  C   UNL     1     -12.652  12.121  71.099  1.00  0.00    -0.360 C  
BRANCH   3   4
HETATM    4  C   UNL     1     -13.533  12.505  72.286  1.00  0.00    -0.490 C  
BRANCH   4   5
HETATM    5  C   UNL     1     -13.911  13.985  72.231  1.00  0.00    -0.651 C  
BRANCH   5   6
HETATM    6  C   UNL     1     -13.031  14.813  73.164  1.00  0.00    -0.623 C  
BRANCH   6   7
HETATM    7  C   UNL     1     -12.224  15.851  72.385  1.00  0.00    -0.591 C  
BRANCH   7   8
HETATM    8  C   UNL     1     -12.499  15.738  70.886  1.00  0.00    -0.451 C  
BRANCH   8   9
HETATM    9  C   UNL     1     -11.212  15.861  70.071  1.00  0.00    -0.354 C  
BRANCH   9  10
HETATM   10  C   UNL     1     -11.460  15.492  68.609  1.00  0.00    -0.367 C  
BRANCH  10  11
HETATM   11  C   UNL     1     -10.783  16.477  67.660  1.00  0.00    -0.311 C  
HETATM   12  C   UNL     1     -10.753  15.955  66.241  1.00  0.00    -0.261 C  
HETATM   13  O   UNL     1     -10.155  16.822  65.390  1.00  0.00    -0.587 OA 
HETATM   14  O   UNL     1     -11.204  14.884  65.870  1.00  0.00    -0.335 OA 
ENDBRANCH  10  11
ENDBRANCH   9  10
ENDBRANCH   8   9
ENDBRANCH   7   8
ENDBRANCH   6   7
ENDBRANCH   5   6
ENDBRANCH   4   5
ENDBRANCH   3   4
ENDBRANCH   2   3
TORSDOF 9
ENDMDL
MODEL       16
REMARK 921   NORMALIZED FREE ENERGY PREDICTED BY IDOCK:   -4.16 KCAL/MOL
REMARK 922        TOTAL FREE ENERGY PREDICTED BY IDOCK:   -6.89 KCAL/MOL
REMARK 923 INTER-LIGAND FREE ENERGY PREDICTED BY IDOCK:   -6.21 KCAL/MOL
REMARK 924 INTRA-LIGAND FREE ENERGY PREDICTED BY IDOCK:   -0.68 KCAL/MOL
REMARK 927      BINDING AFFINITY PREDICTED BY RF-SCORE:    0.00 PKD
ROOT
HETATM    1  C   UNL     1     -13.218   9.862  71.896  1.00  0.00    -0.558 C  
HETATM    2  C   UNL     1     -11.840   9.231  71.776  1.00  0.00    -0.454 C  
ENDROOT
BRANCH   2   3
HETATM    3  C   UNL     1     -10.983   9.966  70.748  1.00  0.00    -0.407 C  
BRANCH   3   4
HETATM    4  C   UNL     1     -11.706  11.192  70.195  1.00  0.00    -0.439 C  
BRANCH   4   5
HETATM    5  C   UNL     1     -10.948  11.786  69.010  1.00  0.00    -0.276 C  
BRANCH   5   6
HETATM    6  C   UNL     1     -11.911  12.347  67.966  1.00  0.00    -0.376 C  
BRANCH   6   7
HETATM    7  C   UNL     1     -11.637  13.828  67.702  1.00  0.00    -0.381 C  
BRANCH   7   8
HETATM    8  C   UNL     1     -10.747  14.418  68.794  1.00  0.00    -0.258 C  
BRANCH   8   9
HETATM    9  C   UNL     1     -11.407  15.622  69.463  1.00  0.00    -0.329 C  
BRANCH   9  10
HETATM   10  C   UNL     1     -12.298  15.177  70.623  1.00  0.00    -0.420 C  
BRANCH  10  11
HETATM   11  C   UNL     1     -12.009  15.978  71.890  1.00  0.00    -0.606 C  
HETATM   12  C   UNL     1     -12.716  15.395  73.092  1.00  0.00    -0.479 C  
HETATM   13  O   UNL     1     -12.466  16.097  74.223  1.00  0.00    -0.597 OA 
HETATM   14  O   UNL     1     -13.435  14.410  73.083  1.00  0.00    -0.625 OA 
ENDBRANCH  10  11
ENDBRANCH   9  10
ENDBRANCH   8   9
ENDBRANCH   7   8
ENDBRANCH   6   7
ENDBRANCH   5   6
ENDBRANCH   4   5
ENDBRANCH   3   4
ENDBRANCH   2   3
TORSDOF 9
ENDMDL
MODEL       17
REMARK 921   NORMALIZED FREE ENERGY PREDICTED BY IDOCK:   -4.15 KCAL/MOL
REMARK 922        TOTAL FREE ENERGY PREDICTED BY IDOCK:   -6.87 KCAL/MOL
REMARK 923 INTER-LIGAND FREE ENERGY PREDICTED BY IDOCK:   -5.76 KCAL/MOL
REMARK 924 INTRA-LIGAND FREE ENERGY PREDICTED BY IDOCK:   -1.11 KCAL/MOL
REMARK 927      BINDING AFFINITY PREDICTED BY RF-SCORE:    0.00 PKD
ROOT
HETATM    1  C   UNL     1      -9.852  11.976  68.364  1.00  0.00    -0.204 C  
HETATM    2  C   UNL     1     -11.297  11.829  68.811  1.00  0.00    -0.325 C  
ENDROOT
BRANCH   2   3
HETATM    3  C   UNL     1     -12.014  13.177  68.816  1.00  0.00    -0.316 C  
BRANCH   3   4
HETATM    4  C   UNL     1     -11.922  13.851  70.183  1.00  0.00    -0.402 C  
BRANCH   4   5
HETATM    5  C   UNL     1     -11.484  15.309  70.047  1.00  0.00    -0.317 C  
BRANCH   5   6
HETATM    6  C   UNL     1     -11.726  15.825  68.630  1.00  0.00    -0.353 C  
BRANCH   6   7
HETATM    7  C   UNL     1     -10.670  16.855  68.230  1.00  0.00    -0.377 C  
BRANCH   7   8
HETATM    8  C   UNL     1      -9.276  16.227  68.225  1.00  0.00    -0.197 C  
BRANCH   8   9
HETATM    9  C   UNL     1      -9.190  15.068  67.234  1.00  0.00    -0.210 C  
BRANCH   9  10
HETATM   10  C   UNL     1      -9.601  15.522  65.833  1.00  0.00    -0.383 C  
BRANCH  10  11
HETATM   11  C   UNL     1     -10.754  14.684  65.288  1.00  0.00    -0.396 C  
HETATM   12  C   UNL     1     -11.633  15.483  64.353  1.00  0.00    -0.258 C  
HETATM   13  O   UNL     1     -12.659  14.748  63.863  1.00  0.00    -0.834 OA 
HETATM   14  O   UNL     1     -11.468  16.654  64.052  1.00  0.00    -1.192 OA 
ENDBRANCH  10  11
ENDBRANCH   9  10
ENDBRANCH   8   9
ENDBRANCH   7   8
ENDBRANCH   6   7
ENDBRANCH   5   6
ENDBRANCH   4   5
ENDBRANCH   3   4
ENDBRANCH   2   3
TORSDOF 9
ENDMDL
MODEL       18
REMARK 921   NORMALIZED FREE ENERGY PREDICTED BY IDOCK:   -4.14 KCAL/MOL
REMARK 922        TOTAL FREE ENERGY PREDICTED BY IDOCK:   -6.86 KCAL/MOL
REMARK 923 INTER-LIGAND FREE ENERGY PREDICTED BY IDOCK:   -6.38 KCAL/MOL
REMARK 924 INTRA-LIGAND FREE ENERGY PREDICTED BY IDOCK:   -0.47 KCAL/MOL
REMARK 927      BINDING AFFINITY PREDICTED BY RF-SCORE:    0.00 PKD
ROOT
HETATM    1  C   UNL     1     -14.393   8.375  71.921  1.00  0.00    -0.561 C  
HETATM    2  C   UNL     1     -12.974   8.887  72.105  1.00  0.00    -0.473 C  
ENDROOT
BRANCH   2   3
HETATM    3  C   UNL     1     -12.824  10.306  71.560  1.00  0.00    -0.557 C  
BRANCH   3   4
HETATM    4  C   UNL     1     -11.680  10.396  70.552  1.00  0.00    -0.434 C  
BRANCH   4   5
HETATM    5  C   UNL     1     -12.100  11.193  69.318  1.00  0.00    -0.377 C  
BRANCH   5   6
HETATM    6  C   UNL     1     -11.269  10.797  68.099  1.00  0.00    -0.365 C  
BRANCH   6   7
HETATM    7  C   UNL     1     -10.064  11.722  67.930  1.00  0.00    -0.195 C  
BRANCH   7   8
HETATM    8  C   UNL     1      -9.837  12.052  66.455  1.00  0.00    -0.225 C  
BRANCH   8   9
HETATM    9  C   UNL     1      -9.820  10.789  65.596  1.00  0.00    -0.299 C  
BRANCH   9  10
HETATM   10  C   UNL     1     -10.462  11.053  64.234  1.00  0.00    -0.427 C  
BRANCH  10  11
HETATM   11  C   UNL     1     -10.809  12.528  64.054  1.00  0.00    -0.446 C  
HETATM   12  C   UNL     1     -12.218  12.711  63.538  1.00  0.00    -0.547 C  
HETATM   13  O   UNL     1     -12.537  14.017  63.375  1.00  0.00    -0.845 OA 
HETATM   14  O   UNL     1     -13.004  11.813  63.287  1.00  0.00    -0.633 OA 
ENDBRANCH  10  11
ENDBRANCH   9  10
ENDBRANCH   8   9
ENDBRANCH   7   8
ENDBRANCH   6   7
ENDBRANCH   5   6
ENDBRANCH   4   5
ENDBRANCH   3   4
ENDBRANCH   2   3
TORSDOF 9
ENDMDL
MODEL       19
REMARK 921   NORMALIZED FREE ENERGY PREDICTED BY IDOCK:   -4.13 KCAL/MOL
REMARK 922        TOTAL FREE ENERGY PREDICTED BY IDOCK:   -6.85 KCAL/MOL
REMARK 923 INTER-LIGAND FREE ENERGY PREDICTED BY IDOCK:   -6.12 KCAL/MOL
REMARK 924 INTRA-LIGAND FREE ENERGY PREDICTED BY IDOCK:   -0.73 KCAL/MOL
REMARK 927      BINDING AFFINITY PREDICTED BY RF-SCORE:    0.00 PKD
ROOT
HETATM    1  C   UNL     1     -13.165  14.287  72.294  1.00  0.00    -0.508 C  
HETATM    2  C   UNL     1     -13.647  12.848  72.213  1.00  0.00    -0.611 C  
ENDROOT
BRANCH   2   3
HETATM    3  C   UNL     1     -12.712  12.000  71.353  1.00  0.00    -0.380 C  
BRANCH   3   4
HETATM    4  C   UNL     1     -13.069  10.517  71.440  1.00  0.00    -0.509 C  
BRANCH   4   5
HETATM    5  C   UNL     1     -11.813   9.660  71.584  1.00  0.00    -0.457 C  
BRANCH   5   6
HETATM    6  C   UNL     1     -11.232   9.301  70.218  1.00  0.00    -0.267 C  
BRANCH   6   7
HETATM    7  C   UNL     1      -9.863   9.950  70.013  1.00  0.00    -0.291 C  
BRANCH   7   8
HETATM    8  C   UNL     1      -9.835  10.758  68.716  1.00  0.00    -0.200 C  
BRANCH   8   9
HETATM    9  C   UNL     1     -11.221  10.837  68.078  1.00  0.00    -0.372 C  
BRANCH   9  10
HETATM   10  C   UNL     1     -11.142  11.474  66.690  1.00  0.00    -0.355 C  
BRANCH  10  11
HETATM   11  C   UNL     1     -11.898  12.799  66.639  1.00  0.00    -0.462 C  
HETATM   12  C   UNL     1     -12.511  13.039  65.278  1.00  0.00    -0.499 C  
HETATM   13  O   UNL     1     -13.186  14.211  65.221  1.00  0.00    -0.760 OA 
HETATM   14  O   UNL     1     -12.429  12.288  64.320  1.00  0.00    -0.446 OA 
ENDBRANCH  10  11
ENDBRANCH   9  10
ENDBRANCH   8   9
ENDBRANCH   7   8
ENDBRANCH   6   7
ENDBRANCH   5   6
ENDBRANCH   4   5
ENDBRANCH   3   4
ENDBRANCH   2   3
TORSDOF 9
ENDMDL
MODEL       20
REMARK 921   NORMALIZED FREE ENERGY PREDICTED BY IDOCK:   -4.13 KCAL/MOL
REMARK 922        TOTAL FREE ENERGY PREDICTED BY IDOCK:   -6.84 KCAL/MOL
REMARK 923 INTER-LIGAND FREE ENERGY PREDICTED BY IDOCK:   -6.26 KCAL/MOL
REMARK 924 INTRA-LIGAND FREE ENERGY PREDICTED BY IDOCK:   -0.58 KCAL/MOL
REMARK 927      BINDING AFFINITY PREDICTED BY RF-SCORE:    0.00 PKD
ROOT
HETATM    1  C   UNL     1     -10.290  11.273  63.640  1.00  0.00    -0.464 C  
HETATM    2  C   UNL     1     -10.943  12.503  64.249  1.00  0.00    -0.401 C  
ENDROOT
BRANCH   2   3
HETATM    3  C   UNL     1     -11.588  12.178  65.594  1.00  0.00    -0.409 C  
BRANCH   3   4
HETATM    4  C   UNL     1     -11.616  13.401  66.508  1.00  0.00    -0.394 C  
BRANCH   4   5
HETATM    5  C   UNL     1     -11.573  12.987  67.978  1.00  0.00    -0.383 C  
BRANCH   5   6
HETATM    6  C   UNL     1     -11.757  11.478  68.130  1.00  0.00    -0.357 C  
BRANCH   6   7
HETATM    7  C   UNL     1     -12.102  11.107  69.572  1.00  0.00    -0.396 C  
BRANCH   7   8
HETATM    8  C   UNL     1     -12.235  12.360  70.437  1.00  0.00    -0.370 C  
BRANCH   8   9
HETATM    9  C   UNL     1     -13.011  12.072  71.721  1.00  0.00    -0.445 C  
BRANCH   9  10
HETATM   10  C   UNL     1     -13.890  13.264  72.102  1.00  0.00    -0.555 C  
BRANCH  10  11
HETATM   11  C   UNL     1     -13.110  14.299  72.908  1.00  0.00    -0.589 C  
HETATM   12  C   UNL     1     -12.973  15.604  72.155  1.00  0.00    -0.449 C  
HETATM   13  O   UNL     1     -12.284  16.531  72.862  1.00  0.00    -0.470 OA 
HETATM   14  O   UNL     1     -13.418  15.831  71.043  1.00  0.00    -0.581 OA 
ENDBRANCH  10  11
ENDBRANCH   9  10
ENDBRANCH   8   9
ENDBRANCH   7   8
ENDBRANCH   6   7
ENDBRANCH   5   6
ENDBRANCH   4   5
ENDBRANCH   3   4
ENDBRANCH   2   3
TORSDOF 9
ENDMDL
MODEL       21
REMARK 921   NORMALIZED FREE ENERGY PREDICTED BY IDOCK:   -4.10 KCAL/MOL
REMARK 922        TOTAL FREE ENERGY PREDICTED BY IDOCK:   -6.81 KCAL/MOL
REMARK 923 INTER-LIGAND FREE ENERGY PREDICTED BY IDOCK:   -6.15 KCAL/MOL
REMARK 924 INTRA-LIGAND FREE ENERGY PREDICTED BY IDOCK:   -0.65 KCAL/MOL
REMARK 927      BINDING AFFINITY PREDICTED BY RF-SCORE:    0.00 PKD
ROOT
HETATM    1  C   UNL     1     -10.065  10.128  65.246  1.00  0.00    -0.344 C  
HETATM    2  C   UNL     1      -9.828  11.462  64.555  1.00  0.00    -0.302 C  
ENDROOT
BRANCH   2   3
HETATM    3  C   UNL     1     -10.971  11.801  63.602  1.00  0.00    -0.513 C  
BRANCH   3   4
HETATM    4  C   UNL     1     -11.697  13.073  64.035  1.00  0.00    -0.497 C  
BRANCH   4   5
HETATM    5  C   UNL     1     -10.729  14.061  64.685  1.00  0.00    -0.416 C  
BRANCH   5   6
HETATM    6  C   UNL     1     -11.330  14.670  65.950  1.00  0.00    -0.338 C  
BRANCH   6   7
HETATM    7  C   UNL     1     -12.053  13.611  66.782  1.00  0.00    -0.445 C  
BRANCH   7   8
HETATM    8  C   UNL     1     -11.459  13.527  68.187  1.00  0.00    -0.338 C  
BRANCH   8   9
HETATM    9  C   UNL     1     -11.905  14.705  69.052  1.00  0.00    -0.346 C  
BRANCH   9  10
HETATM   10  C   UNL     1     -12.235  14.240  70.471  1.00  0.00    -0.427 C  
BRANCH  10  11
HETATM   11  C   UNL     1     -12.436  15.422  71.416  1.00  0.00    -0.457 C  
HETATM   12  C   UNL     1     -13.421  15.096  72.516  1.00  0.00    -0.464 C  
HETATM   13  O   UNL     1     -13.605  16.138  73.361  1.00  0.00    -0.615 OA 
HETATM   14  O   UNL     1     -13.999  14.033  72.657  1.00  0.00    -0.654 OA 
ENDBRANCH  10  11
ENDBRANCH   9  10
ENDBRANCH   8   9
ENDBRANCH   7   8
ENDBRANCH   6   7
ENDBRANCH   5   6
ENDBRANCH   4   5
ENDBRANCH   3   4
ENDBRANCH   2   3
TORSDOF 9
ENDMDL
MODEL       22
REMARK 921   NORMALIZED FREE ENERGY PREDICTED BY IDOCK:   -4.10 KCAL/MOL
REMARK 922        TOTAL FREE ENERGY PREDICTED BY IDOCK:   -6.80 KCAL/MOL
REMARK 923 INTER-LIGAND FREE ENERGY PREDICTED BY IDOCK:   -6.26 KCAL/MOL
REMARK 924 INTRA-LIGAND FREE ENERGY PREDICTED BY IDOCK:   -0.54 KCAL/MOL
REMARK 927      BINDING AFFINITY PREDICTED BY RF-SCORE:    0.00 PKD
ROOT
HETATM    1  C   UNL     1     -10.577  11.538  63.386  1.00  0.00    -0.460 C  
HETATM    2  C   UNL     1     -11.952  12.092  63.722  1.00  0.00    -0.607 C  
ENDROOT
BRANCH   2   3
HETATM    3  C   UNL     1     -11.876  13.571  64.096  1.00  0.00    -0.483 C  
BRANCH   3   4
HETATM    4  C   UNL     1     -12.705  13.873  65.342  1.00  0.00    -0.525 C  
BRANCH   4   5
HETATM    5  C   UNL     1     -12.084  13.229  66.581  1.00  0.00    -0.421 C  
BRANCH   5   6
HETATM    6  C   UNL     1     -10.857  14.008  67.050  1.00  0.00    -0.291 C  
BRANCH   6   7
HETATM    7  C   UNL     1     -10.810  14.096  68.575  1.00  0.00    -0.264 C  
BRANCH   7   8
HETATM    8  C   UNL     1     -10.112  15.380  69.023  1.00  0.00    -0.234 C  
BRANCH   8   9
HETATM    9  C   UNL     1     -11.031  16.242  69.887  1.00  0.00    -0.365 C  
BRANCH   9  10
HETATM   10  C   UNL     1     -11.992  15.368  70.695  1.00  0.00    -0.396 C  
BRANCH  10  11
HETATM   11  C   UNL     1     -11.828  15.595  72.195  1.00  0.00    -0.567 C  
HETATM   12  C   UNL     1     -13.165  15.692  72.895  1.00  0.00    -0.532 C  
HETATM   13  O   UNL     1     -13.031  15.892  74.227  1.00  0.00    -0.563 OA 
HETATM   14  O   UNL     1     -14.255  15.604  72.355  1.00  0.00    -0.551 OA 
ENDBRANCH  10  11
ENDBRANCH   9  10
ENDBRANCH   8   9
ENDBRANCH   7   8
ENDBRANCH   6   7
ENDBRANCH   5   6
ENDBRANCH   4   5
ENDBRANCH   3   4
ENDBRANCH   2   3
TORSDOF 9
ENDMDL
MODEL       23
REMARK 921   NORMALIZED FREE ENERGY PREDICTED BY IDOCK:   -4.09 KCAL/MOL
REMARK 922        TOTAL FREE ENERGY PREDICTED BY IDOCK:   -6.79 KCAL/MOL
REMARK 923 INTER-LIGAND FREE ENERGY PREDICTED BY IDOCK:   -6.24 KCAL/MOL
REMARK 924 INTRA-LIGAND FREE ENERGY PREDICTED BY IDOCK:   -0.56 KCAL/MOL
REMARK 927      BINDING AFFINITY PREDICTED BY RF-SCORE:    0.00 PKD
ROOT
HETATM    1  C   UNL     1     -12.068   6.911  71.538  1.00  0.00    -0.401 C  
HETATM    2  C   UNL     1     -11.713   8.309  72.017  1.00  0.00    -0.407 C  
ENDROOT
BRANCH   2   3
HETATM    3  C   UNL     1     -12.962   9.170  72.186  1.00  0.00    -0.498 C  
BRANCH   3   4
HETATM    4  C   UNL     1     -12.827  10.498  71.443  1.00  0.00    -0.551 C  
BRANCH   4   5
HETATM    5  C   UNL     1     -11.556  10.524  70.595  1.00  0.00    -0.445 C  
BRANCH   5   6
HETATM    6  C   UNL     1     -11.763  11.332  69.317  1.00  0.00    -0.403 C  
BRANCH   6   7
HETATM    7  C   UNL     1     -11.923  12.820  69.625  1.00  0.00    -0.354 C  
BRANCH   7   8
HETATM    8  C   UNL     1     -12.022  13.634  68.335  1.00  0.00    -0.391 C  
BRANCH   8   9
HETATM    9  C   UNL     1     -10.903  13.271  67.360  1.00  0.00    -0.279 C  
BRANCH   9  10
HETATM   10  C   UNL     1     -11.200  13.824  65.965  1.00  0.00    -0.307 C  
BRANCH  10  11
HETATM   11  C   UNL     1     -12.451  13.189  65.366  1.00  0.00    -0.535 C  
HETATM   12  C   UNL     1     -12.173  12.578  64.011  1.00  0.00    -0.480 C  
HETATM   13  O   UNL     1     -13.276  12.010  63.470  1.00  0.00    -0.724 OA 
HETATM   14  O   UNL     1     -11.094  12.578  63.441  1.00  0.00    -0.459 OA 
ENDBRANCH  10  11
ENDBRANCH   9  10
ENDBRANCH   8   9
ENDBRANCH   7   8
ENDBRANCH   6   7
ENDBRANCH   5   6
ENDBRANCH   4   5
ENDBRANCH   3   4
ENDBRANCH   2   3
TORSDOF 9
ENDMDL
MODEL       24
REMARK 921   NORMALIZED FREE ENERGY PREDICTED BY IDOCK:   -4.09 KCAL/MOL
REMARK 922        TOTAL FREE ENERGY PREDICTED BY IDOCK:   -6.79 KCAL/MOL
REMARK 923 INTER-LIGAND FREE ENERGY PREDICTED BY IDOCK:   -5.96 KCAL/MOL
REMARK 924 INTRA-LIGAND FREE ENERGY PREDICTED BY IDOCK:   -0.83 KCAL/MOL
REMARK 927      BINDING AFFINITY PREDICTED BY RF-SCORE:    0.00 PKD
ROOT
HETATM    1  C   UNL     1     -12.717  14.004  65.544  1.00  0.00    -0.517 C  
HETATM    2  C   UNL     1     -12.010  13.948  64.200  1.00  0.00    -0.464 C  
ENDROOT
BRANCH   2   3
HETATM    3  C   UNL     1     -11.643  12.513  63.828  1.00  0.00    -0.552 C  
BRANCH   3   4
HETATM    4  C   UNL     1     -10.201  12.189  64.212  1.00  0.00    -0.351 C  
BRANCH   4   5
HETATM    5  C   UNL     1     -10.153  11.136  65.319  1.00  0.00    -0.329 C  
BRANCH   5   6
HETATM    6  C   UNL     1     -10.292  11.780  66.697  1.00  0.00    -0.251 C  
BRANCH   6   7
HETATM    7  C   UNL     1     -11.061  10.870  67.655  1.00  0.00    -0.376 C  
BRANCH   7   8
HETATM    8  C   UNL     1     -11.722  11.687  68.764  1.00  0.00    -0.392 C  
BRANCH   8   9
HETATM    9  C   UNL     1     -11.166  13.109  68.818  1.00  0.00    -0.323 C  
BRANCH   9  10
HETATM   10  C   UNL     1     -12.135  14.043  69.543  1.00  0.00    -0.397 C  
BRANCH  10  11
HETATM   11  C   UNL     1     -12.623  13.435  70.855  1.00  0.00    -0.406 C  
HETATM   12  C   UNL     1     -13.523  14.386  71.611  1.00  0.00    -0.372 C  
HETATM   13  O   UNL     1     -13.963  13.856  72.777  1.00  0.00    -0.697 OA 
HETATM   14  O   UNL     1     -13.836  15.507  71.245  1.00  0.00    -0.528 OA 
ENDBRANCH  10  11
ENDBRANCH   9  10
ENDBRANCH   8   9
ENDBRANCH   7   8
ENDBRANCH   6   7
ENDBRANCH   5   6
ENDBRANCH   4   5
ENDBRANCH   3   4
ENDBRANCH   2   3
TORSDOF 9
ENDMDL
MODEL       25
REMARK 921   NORMALIZED FREE ENERGY PREDICTED BY IDOCK:   -4.07 KCAL/MOL
REMARK 922        TOTAL FREE ENERGY PREDICTED BY IDOCK:   -6.76 KCAL/MOL
REMARK 923 INTER-LIGAND FREE ENERGY PREDICTED BY IDOCK:   -5.99 KCAL/MOL
REMARK 924 INTRA-LIGAND FREE ENERGY PREDICTED BY IDOCK:   -0.77 KCAL/MOL
REMARK 927      BINDING AFFINITY PREDICTED BY RF-SCORE:    0.00 PKD
ROOT
HETATM    1  C   UNL     1     -10.822   6.877  67.318  1.00  0.00    -0.426 C  
HETATM    2  C   UNL     1     -10.511   8.170  68.054  1.00  0.00    -0.242 C  
ENDROOT
BRANCH   2   3
HETATM    3  C   UNL     1     -10.226   9.308  67.076  1.00  0.00    -0.331 C  
BRANCH   3   4
HETATM    4  C   UNL     1      -9.546   8.795  65.809  1.00  0.00    -0.190 C  
BRANCH   4   5
HETATM    5  C   UNL     1      -9.059   9.955  64.941  1.00  0.00    -0.271 C  
BRANCH   5   6
HETATM    6  C   UNL     1     -10.047  11.119  64.975  1.00  0.00    -0.338 C  
BRANCH   6   7
HETATM    7  C   UNL     1     -10.675  11.350  63.601  1.00  0.00    -0.470 C  
BRANCH   7   8
HETATM    8  C   UNL     1     -11.959  12.170  63.722  1.00  0.00    -0.607 C  
BRANCH   8   9
HETATM    9  C   UNL     1     -12.333  12.408  65.184  1.00  0.00    -0.403 C  
BRANCH   9  10
HETATM   10  C   UNL     1     -12.612  13.890  65.437  1.00  0.00    -0.538 C  
BRANCH  10  11
HETATM   11  C   UNL     1     -11.331  14.654  65.763  1.00  0.00    -0.340 C  
HETATM   12  C   UNL     1     -11.193  15.899  64.916  1.00  0.00    -0.337 C  
HETATM   13  O   UNL     1     -10.060  16.585  65.198  1.00  0.00    -0.536 OA 
HETATM   14  O   UNL     1     -11.987  16.273  64.069  1.00  0.00    -0.955 OA 
ENDBRANCH  10  11
ENDBRANCH   9  10
ENDBRANCH   8   9
ENDBRANCH   7   8
ENDBRANCH   6   7
ENDBRANCH   5   6
ENDBRANCH   4   5
ENDBRANCH   3   4
ENDBRANCH   2   3
TORSDOF 9
ENDMDL
MODEL       26
REMARK 921   NORMALIZED FREE ENERGY PREDICTED BY IDOCK:   -4.07 KCAL/MOL
REMARK 922        TOTAL FREE ENERGY PREDICTED BY IDOCK:   -6.75 KCAL/MOL
REMARK 923 INTER-LIGAND FREE ENERGY PREDICTED BY IDOCK:   -5.74 KCAL/MOL
REMARK 924 INTRA-LIGAND FREE ENERGY PREDICTED BY IDOCK:   -1.02 KCAL/MOL
REMARK 927      BINDING AFFINITY PREDICTED BY RF-SCORE:    0.00 PKD
ROOT
HETATM    1  C   UNL     1      -9.339  11.164  65.625  1.00  0.00    -0.243 C  
HETATM    2  C   UNL     1     -10.405  10.975  64.557  1.00  0.00    -0.420 C  
ENDROOT
BRANCH   2   3
HETATM    3  C   UNL     1     -10.504  12.201  63.653  1.00  0.00    -0.495 C  
BRANCH   3   4
HETATM    4  C   UNL     1     -11.938  12.720  63.575  1.00  0.00    -0.633 C  
BRANCH   4   5
HETATM    5  C   UNL     1     -12.076  14.060  64.295  1.00  0.00    -0.476 C  
BRANCH   5   6
HETATM    6  C   UNL     1     -10.740  14.505  64.888  1.00  0.00    -0.448 C  
BRANCH   6   7
HETATM    7  C   UNL     1     -10.849  14.710  66.399  1.00  0.00    -0.315 C  
BRANCH   7   8
HETATM    8  C   UNL     1     -12.136  14.088  66.939  1.00  0.00    -0.465 C  
BRANCH   8   9
HETATM    9  C   UNL     1     -11.889  12.685  67.492  1.00  0.00    -0.396 C  
BRANCH   9  10
HETATM   10  C   UNL     1     -11.315  12.754  68.907  1.00  0.00    -0.344 C  
BRANCH  10  11
HETATM   11  C   UNL     1     -11.668  11.510  69.717  1.00  0.00    -0.426 C  
HETATM   12  C   UNL     1     -12.521  11.848  70.918  1.00  0.00    -0.300 C  
HETATM   13  O   UNL     1     -12.842  10.750  71.643  1.00  0.00    -0.421 OA 
HETATM   14  O   UNL     1     -12.897  12.966  71.229  1.00  0.00    -0.356 OA 
ENDBRANCH  10  11
ENDBRANCH   9  10
ENDBRANCH   8   9
ENDBRANCH   7   8
ENDBRANCH   6   7
ENDBRANCH   5   6
ENDBRANCH   4   5
ENDBRANCH   3   4
ENDBRANCH   2   3
TORSDOF 9
ENDMDL
MODEL       27
REMARK 921   NORMALIZED FREE ENERGY PREDICTED BY IDOCK:   -4.05 KCAL/MOL
REMARK 922        TOTAL FREE ENERGY PREDICTED BY IDOCK:   -6.72 KCAL/MOL
REMARK 923 INTER-LIGAND FREE ENERGY PREDICTED BY IDOCK:   -6.05 KCAL/MOL
REMARK 924 INTRA-LIGAND FREE ENERGY PREDICTED BY IDOCK:   -0.67 KCAL/MOL
REMARK 927      BINDING AFFINITY PREDICTED BY RF-SCORE:    0.00 PKD
ROOT
HETATM    1  C   UNL     1     -12.307   6.991  71.109  1.00  0.00    -0.423 C  
HETATM    2  C   UNL     1     -13.644   7.504  71.618  1.00  0.00    -0.442 C  
ENDROOT
BRANCH   2   3
HETATM    3  C   UNL     1     -13.533   8.948  72.105  1.00  0.00    -0.497 C  
BRANCH   3   4
HETATM    4  C   UNL     1     -12.277   9.623  71.560  1.00  0.00    -0.483 C  
BRANCH   4   5
HETATM    5  C   UNL     1     -12.611  10.975  70.931  1.00  0.00    -0.488 C  
BRANCH   5   6
HETATM    6  C   UNL     1     -12.142  11.038  69.480  1.00  0.00    -0.400 C  
BRANCH   6   7
HETATM    7  C   UNL     1     -11.178  12.204  69.261  1.00  0.00    -0.288 C  
BRANCH   7   8
HETATM    8  C   UNL     1     -11.711  13.153  68.189  1.00  0.00    -0.391 C  
BRANCH   8   9
HETATM    9  C   UNL     1     -11.856  14.576  68.725  1.00  0.00    -0.350 C  
BRANCH   9  10
HETATM   10  C   UNL     1     -11.690  14.602  70.245  1.00  0.00    -0.355 C  
BRANCH  10  11
HETATM   11  C   UNL     1     -12.928  15.167  70.934  1.00  0.00    -0.488 C  
HETATM   12  C   UNL     1     -12.645  15.540  72.372  1.00  0.00    -0.400 C  
HETATM   13  O   UNL     1     -13.738  16.044  72.994  1.00  0.00    -0.590 OA 
HETATM   14  O   UNL     1     -11.573  15.416  72.939  1.00  0.00    -0.454 OA 
ENDBRANCH  10  11
ENDBRANCH   9  10
ENDBRANCH   8   9
ENDBRANCH   7   8
ENDBRANCH   6   7
ENDBRANCH   5   6
ENDBRANCH   4   5
ENDBRANCH   3   4
ENDBRANCH   2   3
TORSDOF 9
ENDMDL
MODEL       28
REMARK 921   NORMALIZED FREE ENERGY PREDICTED BY IDOCK:   -4.05 KCAL/MOL
REMARK 922        TOTAL FREE ENERGY PREDICTED BY IDOCK:   -6.72 KCAL/MOL
REMARK 923 INTER-LIGAND FREE ENERGY PREDICTED BY IDOCK:   -5.90 KCAL/MOL
REMARK 924 INTRA-LIGAND FREE ENERGY PREDICTED BY IDOCK:   -0.82 KCAL/MOL
REMARK 927      BINDING AFFINITY PREDICTED BY RF-SCORE:    0.00 PKD
ROOT
HETATM    1  C   UNL     1     -11.456  11.115  69.645  1.00  0.00    -0.383 C  
HETATM    2  C   UNL     1     -11.964  10.323  70.838  1.00  0.00    -0.473 C  
ENDROOT
BRANCH   2   3
HETATM    3  C   UNL     1     -13.116  11.047  71.532  1.00  0.00    -0.500 C  
BRANCH   3   4
HETATM    4  C   UNL     1     -13.014  12.559  71.348  1.00  0.00    -0.347 C  
BRANCH   4   5
HETATM    5  C   UNL     1     -13.896  13.294  72.356  1.00  0.00    -0.630 C  
BRANCH   5   6
HETATM    6  C   UNL     1     -13.718  14.806  72.244  1.00  0.00    -0.560 C  
BRANCH   6   7
HETATM    7  C   UNL     1     -12.297  15.223  72.624  1.00  0.00    -0.482 C  
BRANCH   7   8
HETATM    8  C   UNL     1     -11.714  16.174  71.580  1.00  0.00    -0.558 C  
BRANCH   8   9
HETATM    9  C   UNL     1     -10.988  15.411  70.474  1.00  0.00    -0.350 C  
BRANCH   9  10
HETATM   10  C   UNL     1     -11.790  15.450  69.173  1.00  0.00    -0.357 C  
BRANCH  10  11
HETATM   11  C   UNL     1     -10.890  15.265  67.954  1.00  0.00    -0.288 C  
HETATM   12  C   UNL     1     -10.442  16.592  67.385  1.00  0.00    -0.314 C  
HETATM   13  O   UNL     1      -9.642  16.441  66.303  1.00  0.00    -0.273 OA 
HETATM   14  O   UNL     1     -10.746  17.690  67.822  1.00  0.00    -0.388 OA 
ENDBRANCH  10  11
ENDBRANCH   9  10
ENDBRANCH   8   9
ENDBRANCH   7   8
ENDBRANCH   6   7
ENDBRANCH   5   6
ENDBRANCH   4   5
ENDBRANCH   3   4
ENDBRANCH   2   3
TORSDOF 9
ENDMDL
MODEL       29
REMARK 921   NORMALIZED FREE ENERGY PREDICTED BY IDOCK:   -4.05 KCAL/MOL
REMARK 922        TOTAL FREE ENERGY PREDICTED BY IDOCK:   -6.72 KCAL/MOL
REMARK 923 INTER-LIGAND FREE ENERGY PREDICTED BY IDOCK:   -6.39 KCAL/MOL
REMARK 924 INTRA-LIGAND FREE ENERGY PREDICTED BY IDOCK:   -0.33 KCAL/MOL
REMARK 927      BINDING AFFINITY PREDICTED BY RF-SCORE:    0.00 PKD
ROOT
HETATM    1  C   UNL     1     -10.908   6.034  68.684  1.00  0.00    -0.379 C  
HETATM    2  C   UNL     1     -10.275   5.297  69.853  1.00  0.00    -0.364 C  
ENDROOT
BRANCH   2   3
HETATM    3  C   UNL     1     -10.905   5.718  71.179  1.00  0.00    -0.316 C  
BRANCH   3   4
HETATM    4  C   UNL     1     -11.922   6.841  70.979  1.00  0.00    -0.431 C  
BRANCH   4   5
HETATM    5  C   UNL     1     -11.714   7.956  72.002  1.00  0.00    -0.360 C  
BRANCH   5   6
HETATM    6  C   UNL     1     -11.659   9.323  71.323  1.00  0.00    -0.419 C  
BRANCH   6   7
HETATM    7  C   UNL     1     -12.806  10.217  71.790  1.00  0.00    -0.565 C  
BRANCH   7   8
HETATM    8  C   UNL     1     -12.634  11.640  71.261  1.00  0.00    -0.425 C  
BRANCH   8   9
HETATM    9  C   UNL     1     -13.584  12.614  71.957  1.00  0.00    -0.426 C  
BRANCH   9  10
HETATM   10  C   UNL     1     -13.039  14.041  71.895  1.00  0.00    -0.467 C  
BRANCH  10  11
HETATM   11  C   UNL     1     -13.184  14.754  73.236  1.00  0.00    -0.456 C  
HETATM   12  C   UNL     1     -12.368  16.027  73.282  1.00  0.00    -0.537 C  
HETATM   13  O   UNL     1     -12.490  16.669  74.468  1.00  0.00    -0.737 OA 
HETATM   14  O   UNL     1     -11.672  16.456  72.378  1.00  0.00    -0.508 OA 
ENDBRANCH  10  11
ENDBRANCH   9  10
ENDBRANCH   8   9
ENDBRANCH   7   8
ENDBRANCH   6   7
ENDBRANCH   5   6
ENDBRANCH   4   5
ENDBRANCH   3   4
ENDBRANCH   2   3
TORSDOF 9
ENDMDL
MODEL       30
REMARK 921   NORMALIZED FREE ENERGY PREDICTED BY IDOCK:   -4.05 KCAL/MOL
REMARK 922        TOTAL FREE ENERGY PREDICTED BY IDOCK:   -6.72 KCAL/MOL
REMARK 923 INTER-LIGAND FREE ENERGY PREDICTED BY IDOCK:   -5.70 KCAL/MOL
REMARK 924 INTRA-LIGAND FREE ENERGY PREDICTED BY IDOCK:   -1.02 KCAL/MOL
REMARK 927      BINDING AFFINITY PREDICTED BY RF-SCORE:    0.00 PKD
ROOT
HETATM    1  C   UNL     1     -10.553  11.718  63.476  1.00  0.00    -0.499 C  
HETATM    2  C   UNL     1     -11.875  12.461  63.373  1.00  0.00    -0.571 C  
ENDROOT
BRANCH   2   3
HETATM    3  C   UNL     1     -12.632  12.430  64.700  1.00  0.00    -0.459 C  
BRANCH   3   4
HETATM    4  C   UNL     1     -12.652  13.806  65.361  1.00  0.00    -0.534 C  
BRANCH   4   5
HETATM    5  C   UNL     1     -11.932  14.839  64.497  1.00  0.00    -0.451 C  
BRANCH   5   6
HETATM    6  C   UNL     1     -10.737  15.438  65.235  1.00  0.00    -0.439 C  
BRANCH   6   7
HETATM    7  C   UNL     1     -10.016  14.379  66.069  1.00  0.00    -0.337 C  
BRANCH   7   8
HETATM    8  C   UNL     1      -9.878  14.833  67.521  1.00  0.00    -0.218 C  
BRANCH   8   9
HETATM    9  C   UNL     1     -10.700  16.092  67.793  1.00  0.00    -0.323 C  
BRANCH   9  10
HETATM   10  C   UNL     1     -11.721  15.842  68.903  1.00  0.00    -0.404 C  
BRANCH  10  11
HETATM   11  C   UNL     1     -11.672  14.398  69.395  1.00  0.00    -0.362 C  
HETATM   12  C   UNL     1     -12.535  14.196  70.620  1.00  0.00    -0.362 C  
HETATM   13  O   UNL     1     -12.500  12.917  71.064  1.00  0.00    -0.371 OA 
HETATM   14  O   UNL     1     -13.198  15.058  71.170  1.00  0.00    -0.376 OA 
ENDBRANCH  10  11
ENDBRANCH   9  10
ENDBRANCH   8   9
ENDBRANCH   7   8
ENDBRANCH   6   7
ENDBRANCH   5   6
ENDBRANCH   4   5
ENDBRANCH   3   4
ENDBRANCH   2   3
TORSDOF 9
ENDMDL
MODEL       31
REMARK 921   NORMALIZED FREE ENERGY PREDICTED BY IDOCK:   -4.04 KCAL/MOL
REMARK 922        TOTAL FREE ENERGY PREDICTED BY IDOCK:   -6.71 KCAL/MOL
REMARK 923 INTER-LIGAND FREE ENERGY PREDICTED BY IDOCK:   -5.64 KCAL/MOL
REMARK 924 INTRA-LIGAND FREE ENERGY PREDICTED BY IDOCK:   -1.07 KCAL/MOL
REMARK 927      BINDING AFFINITY PREDICTED BY RF-SCORE:    0.00 PKD
ROOT
HETATM    1  C   UNL     1     -11.004  11.885  63.463  1.00  0.00    -0.505 C  
HETATM    2  C   UNL     1      -9.954  11.756  64.554  1.00  0.00    -0.273 C  
ENDROOT
BRANCH   2   3
HETATM    3  C   UNL     1      -9.603  10.292  64.812  1.00  0.00    -0.369 C  
BRANCH   3   4
HETATM    4  C   UNL     1      -9.712   9.947  66.296  1.00  0.00    -0.281 C  
BRANCH   4   5
HETATM    5  C   UNL     1     -11.004  10.504  66.893  1.00  0.00    -0.199 C  
BRANCH   5   6
HETATM    6  C   UNL     1     -10.990  10.412  68.418  1.00  0.00    -0.312 C  
BRANCH   6   7
HETATM    7  C   UNL     1     -11.431  11.730  69.054  1.00  0.00    -0.358 C  
BRANCH   7   8
HETATM    8  C   UNL     1     -10.618  12.899  68.500  1.00  0.00    -0.270 C  
BRANCH   8   9
HETATM    9  C   UNL     1     -11.517  14.077  68.130  1.00  0.00    -0.341 C  
BRANCH   9  10
HETATM   10  C   UNL     1     -11.790  14.099  66.625  1.00  0.00    -0.447 C  
BRANCH  10  11
HETATM   11  C   UNL     1     -11.127  15.297  65.952  1.00  0.00    -0.287 C  
HETATM   12  C   UNL     1     -11.686  15.540  64.569  1.00  0.00    -0.253 C  
HETATM   13  O   UNL     1     -11.106  16.603  63.962  1.00  0.00    -0.914 OA 
HETATM   14  O   UNL     1     -12.557  14.879  64.030  1.00  0.00    -0.832 OA 
ENDBRANCH  10  11
ENDBRANCH   9  10
ENDBRANCH   8   9
ENDBRANCH   7   8
ENDBRANCH   6   7
ENDBRANCH   5   6
ENDBRANCH   4   5
ENDBRANCH   3   4
ENDBRANCH   2   3
TORSDOF 9
ENDMDL
MODEL       32
REMARK 921   NORMALIZED FREE ENERGY PREDICTED BY IDOCK:   -4.03 KCAL/MOL
REMARK 922        TOTAL FREE ENERGY PREDICTED BY IDOCK:   -6.69 KCAL/MOL
REMARK 923 INTER-LIGAND FREE ENERGY PREDICTED BY IDOCK:   -5.77 KCAL/MOL
REMARK 924 INTRA-LIGAND FREE ENERGY PREDICTED BY IDOCK:   -0.92 KCAL/MOL
REMARK 927      BINDING AFFINITY PREDICTED BY RF-SCORE:    0.00 PKD
ROOT
HETATM    1  C   UNL     1      -9.970  19.618  68.764  1.00  0.00    -0.542 C  
HETATM    2  C   UNL     1     -10.664  19.580  67.411  1.00  0.00    -0.589 C  
ENDROOT
BRANCH   2   3
HETATM    3  C   UNL     1      -9.655  19.418  66.277  1.00  0.00    -0.437 C  
BRANCH   3   4
HETATM    4  C   UNL     1      -8.220  19.529  66.789  1.00  0.00    -0.318 C  
BRANCH   4   5
HETATM    5  C   UNL     1      -7.455  18.227  66.560  1.00  0.00    -0.266 C  
BRANCH   5   6
HETATM    6  C   UNL     1      -7.849  17.170  67.590  1.00  0.00    -0.187 C  
BRANCH   6   7
HETATM    7  C   UNL     1      -8.057  15.807  66.931  1.00  0.00    -0.292 C  
BRANCH   7   8
HETATM    8  C   UNL     1      -9.389  15.765  66.184  1.00  0.00    -0.381 C  
BRANCH   8   9
HETATM    9  C   UNL     1     -10.572  15.861  67.146  1.00  0.00    -0.316 C  
BRANCH   9  10
HETATM   10  C   UNL     1     -11.355  14.548  67.175  1.00  0.00    -0.361 C  
BRANCH  10  11
HETATM   11  C   UNL     1     -12.212  14.378  65.924  1.00  0.00    -0.354 C  
HETATM   12  C   UNL     1     -12.356  12.923  65.540  1.00  0.00    -0.461 C  
HETATM   13  O   UNL     1     -13.116  12.760  64.431  1.00  0.00    -0.724 OA 
HETATM   14  O   UNL     1     -11.861  11.980  66.134  1.00  0.00    -0.546 OA 
ENDBRANCH  10  11
ENDBRANCH   9  10
ENDBRANCH   8   9
ENDBRANCH   7   8
ENDBRANCH   6   7
ENDBRANCH   5   6
ENDBRANCH   4   5
ENDBRANCH   3   4
ENDBRANCH   2   3
TORSDOF 9
ENDMDL
MODEL       33
REMARK 921   NORMALIZED FREE ENERGY PREDICTED BY IDOCK:   -4.02 KCAL/MOL
REMARK 922        TOTAL FREE ENERGY PREDICTED BY IDOCK:   -6.68 KCAL/MOL
REMARK 923 INTER-LIGAND FREE ENERGY PREDICTED BY IDOCK:   -5.80 KCAL/MOL
REMARK 924 INTRA-LIGAND FREE ENERGY PREDICTED BY IDOCK:   -0.88 KCAL/MOL
REMARK 927      BINDING AFFINITY PREDICTED BY RF-SCORE:    0.00 PKD
ROOT
HETATM    1  C   UNL     1      -8.634  19.462  68.410  1.00  0.00    -0.397 C  
HETATM    2  C   UNL     1     -10.079  19.918  68.285  1.00  0.00    -0.571 C  
ENDROOT
BRANCH   2   3
HETATM    3  C   UNL     1     -10.782  19.214  67.126  1.00  0.00    -0.567 C  
BRANCH   3   4
HETATM    4  C   UNL     1      -9.794  18.417  66.278  1.00  0.00    -0.338 C  
BRANCH   4   5
HETATM    5  C   UNL     1     -10.323  17.011  65.999  1.00  0.00    -0.324 C  
BRANCH   5   6
HETATM    6  C   UNL     1      -9.625  15.976  66.880  1.00  0.00    -0.239 C  
BRANCH   6   7
HETATM    7  C   UNL     1     -10.480  15.619  68.095  1.00  0.00    -0.259 C  
BRANCH   7   8
HETATM    8  C   UNL     1     -11.656  14.732  67.688  1.00  0.00    -0.374 C  
BRANCH   8   9
HETATM    9  C   UNL     1     -11.478  13.302  68.196  1.00  0.00    -0.347 C  
BRANCH   9  10
HETATM   10  C   UNL     1     -11.905  12.292  67.131  1.00  0.00    -0.328 C  
BRANCH  10  11
HETATM   11  C   UNL     1     -11.075  12.436  65.858  1.00  0.00    -0.349 C  
HETATM   12  C   UNL     1     -11.950  12.527  64.629  1.00  0.00    -0.404 C  
HETATM   13  O   UNL     1     -11.224  12.655  63.493  1.00  0.00    -0.453 OA 
HETATM   14  O   UNL     1     -13.169  12.492  64.622  1.00  0.00    -0.848 OA 
ENDBRANCH  10  11
ENDBRANCH   9  10
ENDBRANCH   8   9
ENDBRANCH   7   8
ENDBRANCH   6   7
ENDBRANCH   5   6
ENDBRANCH   4   5
ENDBRANCH   3   4
ENDBRANCH   2   3
TORSDOF 9
ENDMDL
MODEL       34
REMARK 921   NORMALIZED FREE ENERGY PREDICTED BY IDOCK:   -4.02 KCAL/MOL
REMARK 922        TOTAL FREE ENERGY PREDICTED BY IDOCK:   -6.67 KCAL/MOL
REMARK 923 INTER-LIGAND FREE ENERGY PREDICTED BY IDOCK:   -5.82 KCAL/MOL
REMARK 924 INTRA-LIGAND FREE ENERGY PREDICTED BY IDOCK:   -0.85 KCAL/MOL
REMARK 927      BINDING AFFINITY PREDICTED BY RF-SCORE:    0.00 PKD
ROOT
HETATM    1  C   UNL     1     -13.765  13.704  72.494  1.00  0.00    -0.663 C  
HETATM    2  C   UNL     1     -12.867  13.050  71.456  1.00  0.00    -0.386 C  
ENDROOT
BRANCH   2   3
HETATM    3  C   UNL     1     -12.598  11.587  71.801  1.00  0.00    -0.225 C  
BRANCH   3   4
HETATM    4  C   UNL     1     -12.576  10.716  70.547  1.00  0.00    -0.433 C  
BRANCH   4   5
HETATM    5  C   UNL     1     -11.152  10.268  70.217  1.00  0.00    -0.388 C  
BRANCH   5   6
HETATM    6  C   UNL     1     -10.724  10.767  68.839  1.00  0.00    -0.259 C  
BRANCH   6   7
HETATM    7  C   UNL     1     -11.766  11.715  68.247  1.00  0.00    -0.374 C  
BRANCH   7   8
HETATM    8  C   UNL     1     -11.172  13.106  68.030  1.00  0.00    -0.308 C  
BRANCH   8   9
HETATM    9  C   UNL     1     -10.047  13.078  66.996  1.00  0.00    -0.243 C  
BRANCH   9  10
HETATM   10  C   UNL     1     -10.488  13.754  65.698  1.00  0.00    -0.312 C  
BRANCH  10  11
HETATM   11  C   UNL     1     -11.038  12.741  64.698  1.00  0.00    -0.349 C  
HETATM   12  C   UNL     1     -12.515  12.947  64.450  1.00  0.00    -0.375 C  
HETATM   13  O   UNL     1     -13.015  12.054  63.562  1.00  0.00    -0.774 OA 
HETATM   14  O   UNL     1     -13.208  13.806  64.969  1.00  0.00    -0.733 OA 
ENDBRANCH  10  11
ENDBRANCH   9  10
ENDBRANCH   8   9
ENDBRANCH   7   8
ENDBRANCH   6   7
ENDBRANCH   5   6
ENDBRANCH   4   5
ENDBRANCH   3   4
ENDBRANCH   2   3
TORSDOF 9
ENDMDL
MODEL       35
REMARK 921   NORMALIZED FREE ENERGY PREDICTED BY IDOCK:   -4.01 KCAL/MOL
REMARK 922        TOTAL FREE ENERGY PREDICTED BY IDOCK:   -6.67 KCAL/MOL
REMARK 923 INTER-LIGAND FREE ENERGY PREDICTED BY IDOCK:   -6.26 KCAL/MOL
REMARK 924 INTRA-LIGAND FREE ENERGY PREDICTED BY IDOCK:   -0.41 KCAL/MOL
REMARK 927      BINDING AFFINITY PREDICTED BY RF-SCORE:    0.00 PKD
ROOT
HETATM    1  C   UNL     1     -10.985   7.742  72.853  1.00  0.00    -0.467 C  
HETATM    2  C   UNL     1     -12.163   8.530  72.303  1.00  0.00    -0.454 C  
ENDROOT
BRANCH   2   3
HETATM    3  C   UNL     1     -11.692   9.751  71.516  1.00  0.00    -0.450 C  
BRANCH   3   4
HETATM    4  C   UNL     1     -12.723  10.877  71.567  1.00  0.00    -0.533 C  
BRANCH   4   5
HETATM    5  C   UNL     1     -12.379  11.980  70.567  1.00  0.00    -0.369 C  
BRANCH   5   6
HETATM    6  C   UNL     1     -11.336  11.503  69.559  1.00  0.00    -0.342 C  
BRANCH   6   7
HETATM    7  C   UNL     1     -11.731  11.888  68.134  1.00  0.00    -0.388 C  
BRANCH   7   8
HETATM    8  C   UNL     1     -11.381  13.348  67.850  1.00  0.00    -0.322 C  
BRANCH   8   9
HETATM    9  C   UNL     1     -11.950  13.808  66.509  1.00  0.00    -0.470 C  
BRANCH   9  10
HETATM   10  C   UNL     1     -10.840  14.348  65.606  1.00  0.00    -0.320 C  
BRANCH  10  11
HETATM   11  C   UNL     1     -10.475  15.785  65.967  1.00  0.00    -0.350 C  
HETATM   12  C   UNL     1     -11.076  16.775  64.996  1.00  0.00    -0.057 C  
HETATM   13  O   UNL     1     -10.760  18.055  65.307  1.00  0.00    -0.625 OA 
HETATM   14  O   UNL     1     -11.770  16.492  64.034  1.00  0.00    -1.111 OA 
ENDBRANCH  10  11
ENDBRANCH   9  10
ENDBRANCH   8   9
ENDBRANCH   7   8
ENDBRANCH   6   7
ENDBRANCH   5   6
ENDBRANCH   4   5
ENDBRANCH   3   4
ENDBRANCH   2   3
TORSDOF 9
ENDMDL
MODEL       36
REMARK 921   NORMALIZED FREE ENERGY PREDICTED BY IDOCK:   -4.00 KCAL/MOL
REMARK 922        TOTAL FREE ENERGY PREDICTED BY IDOCK:   -6.66 KCAL/MOL
REMARK 923 INTER-LIGAND FREE ENERGY PREDICTED BY IDOCK:   -5.48 KCAL/MOL
REMARK 924 INTRA-LIGAND FREE ENERGY PREDICTED BY IDOCK:   -1.17 KCAL/MOL
REMARK 927      BINDING AFFINITY PREDICTED BY RF-SCORE:    0.00 PKD
ROOT
HETATM    1  C   UNL     1     -10.070   9.794  66.881  1.00  0.00    -0.287 C  
HETATM    2  C   UNL     1      -9.688  10.826  65.832  1.00  0.00    -0.272 C  
ENDROOT
BRANCH   2   3
HETATM    3  C   UNL     1      -9.707  10.222  64.430  1.00  0.00    -0.381 C  
BRANCH   3   4
HETATM    4  C   UNL     1      -9.918  11.296  63.365  1.00  0.00    -0.433 C  
BRANCH   4   5
HETATM    5  C   UNL     1     -10.422  12.595  63.990  1.00  0.00    -0.443 C  
BRANCH   5   6
HETATM    6  C   UNL     1     -11.905  12.810  63.695  1.00  0.00    -0.603 C  
BRANCH   6   7
HETATM    7  C   UNL     1     -12.738  12.743  64.974  1.00  0.00    -0.455 C  
BRANCH   7   8
HETATM    8  C   UNL     1     -12.533  14.000  65.820  1.00  0.00    -0.523 C  
BRANCH   8   9
HETATM    9  C   UNL     1     -11.965  13.659  67.197  1.00  0.00    -0.434 C  
BRANCH   9  10
HETATM   10  C   UNL     1     -10.639  14.384  67.429  1.00  0.00    -0.270 C  
BRANCH  10  11
HETATM   11  C   UNL     1     -10.668  15.801  66.864  1.00  0.00    -0.299 C  
HETATM   12  C   UNL     1     -10.695  16.840  67.962  1.00  0.00    -0.355 C  
HETATM   13  O   UNL     1     -10.720  18.102  67.471  1.00  0.00    -0.412 OA 
HETATM   14  O   UNL     1     -10.695  16.606  69.159  1.00  0.00    -0.316 OA 
ENDBRANCH  10  11
ENDBRANCH   9  10
ENDBRANCH   8   9
ENDBRANCH   7   8
ENDBRANCH   6   7
ENDBRANCH   5   6
ENDBRANCH   4   5
ENDBRANCH   3   4
ENDBRANCH   2   3
TORSDOF 9
ENDMDL
MODEL       37
REMARK 921   NORMALIZED FREE ENERGY PREDICTED BY IDOCK:   -3.99 KCAL/MOL
REMARK 922        TOTAL FREE ENERGY PREDICTED BY IDOCK:   -6.63 KCAL/MOL
REMARK 923 INTER-LIGAND FREE ENERGY PREDICTED BY IDOCK:   -5.98 KCAL/MOL
REMARK 924 INTRA-LIGAND FREE ENERGY PREDICTED BY IDOCK:   -0.66 KCAL/MOL
REMARK 927      BINDING AFFINITY PREDICTED BY RF-SCORE:    0.00 PKD
ROOT
HETATM    1  C   UNL     1     -12.325  12.132  63.571  1.00  0.00    -0.682 C  
HETATM    2  C   UNL     1     -12.125  13.465  64.274  1.00  0.00    -0.479 C  
ENDROOT
BRANCH   2   3
HETATM    3  C   UNL     1     -10.656  13.688  64.627  1.00  0.00    -0.446 C  
BRANCH   3   4
HETATM    4  C   UNL     1     -10.472  13.910  66.127  1.00  0.00    -0.297 C  
BRANCH   4   5
HETATM    5  C   UNL     1     -11.757  14.438  66.764  1.00  0.00    -0.415 C  
BRANCH   5   6
HETATM    6  C   UNL     1     -12.050  13.728  68.083  1.00  0.00    -0.316 C  
BRANCH   6   7
HETATM    7  C   UNL     1     -11.124  12.528  68.281  1.00  0.00    -0.294 C  
BRANCH   7   8
HETATM    8  C   UNL     1     -11.730  11.532  69.269  1.00  0.00    -0.397 C  
BRANCH   8   9
HETATM    9  C   UNL     1     -12.186  12.225  70.552  1.00  0.00    -0.387 C  
BRANCH   9  10
HETATM   10  C   UNL     1     -12.960  11.256  71.446  1.00  0.00    -0.482 C  
BRANCH  10  11
HETATM   11  C   UNL     1     -12.410   9.836  71.340  1.00  0.00    -0.480 C  
HETATM   12  C   UNL     1     -13.336   8.830  71.986  1.00  0.00    -0.413 C  
HETATM   13  O   UNL     1     -12.858   7.566  71.897  1.00  0.00    -0.316 OA 
HETATM   14  O   UNL     1     -14.395   9.089  72.532  1.00  0.00    -0.570 OA 
ENDBRANCH  10  11
ENDBRANCH   9  10
ENDBRANCH   8   9
ENDBRANCH   7   8
ENDBRANCH   6   7
ENDBRANCH   5   6
ENDBRANCH   4   5
ENDBRANCH   3   4
ENDBRANCH   2   3
TORSDOF 9
ENDMDL
MODEL       38
REMARK 921   NORMALIZED FREE ENERGY PREDICTED BY IDOCK:   -3.98 KCAL/MOL
REMARK 922        TOTAL FREE ENERGY PREDICTED BY IDOCK:   -6.62 KCAL/MOL
REMARK 923 INTER-LIGAND FREE ENERGY PREDICTED BY IDOCK:   -5.64 KCAL/MOL
REMARK 924 INTRA-LIGAND FREE ENERGY PREDICTED BY IDOCK:   -0.98 KCAL/MOL
REMARK 927      BINDING AFFINITY PREDICTED BY RF-SCORE:    0.00 PKD
ROOT
HETATM    1  C   UNL     1     -10.584  11.097  64.294  1.00  0.00    -0.425 C  
HETATM    2  C   UNL     1     -11.705  11.850  63.596  1.00  0.00    -0.572 C  
ENDROOT
BRANCH   2   3
HETATM    3  C   UNL     1     -12.269  12.954  64.488  1.00  0.00    -0.489 C  
BRANCH   3   4
HETATM    4  C   UNL     1     -11.342  13.243  65.667  1.00  0.00    -0.325 C  
BRANCH   4   5
HETATM    5  C   UNL     1     -12.116  13.856  66.833  1.00  0.00    -0.467 C  
BRANCH   5   6
HETATM    6  C   UNL     1     -11.567  13.372  68.173  1.00  0.00    -0.376 C  
BRANCH   6   7
HETATM    7  C   UNL     1     -12.140  14.187  69.332  1.00  0.00    -0.372 C  
BRANCH   7   8
HETATM    8  C   UNL     1     -11.831  15.673  69.155  1.00  0.00    -0.378 C  
BRANCH   8   9
HETATM    9  C   UNL     1     -10.384  15.990  69.530  1.00  0.00    -0.278 C  
BRANCH   9  10
HETATM   10  C   UNL     1      -9.597  16.455  68.304  1.00  0.00    -0.221 C  
BRANCH  10  11
HETATM   11  C   UNL     1     -10.483  17.222  67.327  1.00  0.00    -0.319 C  
HETATM   12  C   UNL     1     -10.133  16.907  65.890  1.00  0.00    -0.283 C  
HETATM   13  O   UNL     1     -10.914  17.581  65.013  1.00  0.00    -0.754 OA 
HETATM   14  O   UNL     1      -9.256  16.141  65.525  1.00  0.00    -0.377 OA 
ENDBRANCH  10  11
ENDBRANCH   9  10
ENDBRANCH   8   9
ENDBRANCH   7   8
ENDBRANCH   6   7
ENDBRANCH   5   6
ENDBRANCH   4   5
ENDBRANCH   3   4
ENDBRANCH   2   3
TORSDOF 9
ENDMDL
MODEL       39
REMARK 921   NORMALIZED FREE ENERGY PREDICTED BY IDOCK:   -3.97 KCAL/MOL
REMARK 922        TOTAL FREE ENERGY PREDICTED BY IDOCK:   -6.61 KCAL/MOL
REMARK 923 INTER-LIGAND FREE ENERGY PREDICTED BY IDOCK:   -5.21 KCAL/MOL
REMARK 924 INTRA-LIGAND FREE ENERGY PREDICTED BY IDOCK:   -1.40 KCAL/MOL
REMARK 927      BINDING AFFINITY PREDICTED BY RF-SCORE:    0.00 PKD
ROOT
HETATM    1  C   UNL     1      -7.901  14.327  67.397  1.00  0.00    -0.207 C  
HETATM    2  C   UNL     1      -8.731  15.347  66.634  1.00  0.00    -0.332 C  
ENDROOT
BRANCH   2   3
HETATM    3  C   UNL     1      -8.934  16.619  67.454  1.00  0.00    -0.204 C  
BRANCH   3   4
HETATM    4  C   UNL     1     -10.411  16.846  67.770  1.00  0.00    -0.340 C  
BRANCH   4   5
HETATM    5  C   UNL     1     -10.653  16.850  69.279  1.00  0.00    -0.325 C  
BRANCH   5   6
HETATM    6  C   UNL     1     -10.637  15.431  69.842  1.00  0.00    -0.315 C  
BRANCH   6   7
HETATM    7  C   UNL     1     -11.759  14.586  69.240  1.00  0.00    -0.350 C  
BRANCH   7   8
HETATM    8  C   UNL     1     -11.260  13.181  68.905  1.00  0.00    -0.324 C  
BRANCH   8   9
HETATM    9  C   UNL     1     -11.724  12.740  67.517  1.00  0.00    -0.422 C  
BRANCH   9  10
HETATM   10  C   UNL     1     -12.095  13.951  66.661  1.00  0.00    -0.485 C  
BRANCH  10  11
HETATM   11  C   UNL     1     -12.827  13.533  65.388  1.00  0.00    -0.420 C  
HETATM   12  C   UNL     1     -11.874  13.372  64.225  1.00  0.00    -0.423 C  
HETATM   13  O   UNL     1     -12.513  13.001  63.089  1.00  0.00    -0.660 OA 
HETATM   14  O   UNL     1     -10.668  13.548  64.266  1.00  0.00    -0.403 OA 
ENDBRANCH  10  11
ENDBRANCH   9  10
ENDBRANCH   8   9
ENDBRANCH   7   8
ENDBRANCH   6   7
ENDBRANCH   5   6
ENDBRANCH   4   5
ENDBRANCH   3   4
ENDBRANCH   2   3
TORSDOF 9
ENDMDL
MODEL       40
REMARK 921   NORMALIZED FREE ENERGY PREDICTED BY IDOCK:   -3.97 KCAL/MOL
REMARK 922        TOTAL FREE ENERGY PREDICTED BY IDOCK:   -6.61 KCAL/MOL
REMARK 923 INTER-LIGAND FREE ENERGY PREDICTED BY IDOCK:   -6.03 KCAL/MOL
REMARK 924 INTRA-LIGAND FREE ENERGY PREDICTED BY IDOCK:   -0.58 KCAL/MOL
REMARK 927      BINDING AFFINITY PREDICTED BY RF-SCORE:    0.00 PKD
ROOT
HETATM    1  C   UNL     1     -10.130   5.562  70.890  1.00  0.00    -0.276 C  
HETATM    2  C   UNL     1     -11.384   6.102  71.558  1.00  0.00    -0.340 C  
ENDROOT
BRANCH   2   3
HETATM    3  C   UNL     1     -11.037   7.077  72.680  1.00  0.00    -0.317 C  
BRANCH   3   4
HETATM    4  C   UNL     1     -11.885   8.345  72.598  1.00  0.00    -0.360 C  
BRANCH   4   5
HETATM    5  C   UNL     1     -12.071   8.785  71.147  1.00  0.00    -0.310 C  
BRANCH   5   6
HETATM    6  C   UNL     1     -11.306  10.075  70.861  1.00  0.00    -0.439 C  
BRANCH   6   7
HETATM    7  C   UNL     1     -12.123  11.017  69.976  1.00  0.00    -0.441 C  
BRANCH   7   8
HETATM    8  C   UNL     1     -12.293  12.379  70.647  1.00  0.00    -0.367 C  
BRANCH   8   9
HETATM    9  C   UNL     1     -13.084  12.265  71.949  1.00  0.00    -0.469 C  
BRANCH   9  10
HETATM   10  C   UNL     1     -13.860  13.553  72.226  1.00  0.00    -0.680 C  
BRANCH  10  11
HETATM   11  C   UNL     1     -12.982  14.603  72.899  1.00  0.00    -0.592 C  
HETATM   12  C   UNL     1     -12.641  15.734  71.955  1.00  0.00    -0.455 C  
HETATM   13  O   UNL     1     -11.862  16.673  72.543  1.00  0.00    -0.506 OA 
HETATM   14  O   UNL     1     -13.006  15.823  70.795  1.00  0.00    -0.479 OA 
ENDBRANCH  10  11
ENDBRANCH   9  10
ENDBRANCH   8   9
ENDBRANCH   7   8
ENDBRANCH   6   7
ENDBRANCH   5   6
ENDBRANCH   4   5
ENDBRANCH   3   4
ENDBRANCH   2   3
TORSDOF 9
ENDMDL
MODEL       41
REMARK 921   NORMALIZED FREE ENERGY PREDICTED BY IDOCK:   -3.97 KCAL/MOL
REMARK 922        TOTAL FREE ENERGY PREDICTED BY IDOCK:   -6.61 KCAL/MOL
REMARK 923 INTER-LIGAND FREE ENERGY PREDICTED BY IDOCK:   -5.88 KCAL/MOL
REMARK 924 INTRA-LIGAND FREE ENERGY PREDICTED BY IDOCK:   -0.73 KCAL/MOL
REMARK 927      BINDING AFFINITY PREDICTED BY RF-SCORE:    0.00 PKD
ROOT
HETATM    1  C   UNL     1     -10.622  11.528  63.522  1.00  0.00    -0.487 C  
HETATM    2  C   UNL     1     -11.895  12.359  63.521  1.00  0.00    -0.605 C  
ENDROOT
BRANCH   2   3
HETATM    3  C   UNL     1     -12.480  12.476  64.927  1.00  0.00    -0.524 C  
BRANCH   3   4
HETATM    4  C   UNL     1     -12.599  13.935  65.360  1.00  0.00    -0.538 C  
BRANCH   4   5
HETATM    5  C   UNL     1     -12.079  14.873  64.272  1.00  0.00    -0.373 C  
BRANCH   5   6
HETATM    6  C   UNL     1     -10.955  15.761  64.802  1.00  0.00    -0.410 C  
BRANCH   6   7
HETATM    7  C   UNL     1     -10.639  15.439  66.262  1.00  0.00    -0.311 C  
BRANCH   7   8
HETATM    8  C   UNL     1     -10.037  16.654  66.967  1.00  0.00    -0.281 C  
BRANCH   8   9
HETATM    9  C   UNL     1     -10.384  17.951  66.238  1.00  0.00    -0.364 C  
BRANCH   9  10
HETATM   10  C   UNL     1     -10.588  19.093  67.234  1.00  0.00    -0.573 C  
BRANCH  10  11
HETATM   11  C   UNL     1      -9.673  18.950  68.446  1.00  0.00    -0.432 C  
HETATM   12  C   UNL     1      -8.339  19.626  68.222  1.00  0.00    -0.318 C  
HETATM   13  O   UNL     1      -7.519  19.505  69.292  1.00  0.00    -0.351 OA 
HETATM   14  O   UNL     1      -8.006  20.218  67.210  1.00  0.00    -0.315 OA 
ENDBRANCH  10  11
ENDBRANCH   9  10
ENDBRANCH   8   9
ENDBRANCH   7   8
ENDBRANCH   6   7
ENDBRANCH   5   6
ENDBRANCH   4   5
ENDBRANCH   3   4
ENDBRANCH   2   3
TORSDOF 9
ENDMDL
MODEL       42
REMARK 921   NORMALIZED FREE ENERGY PREDICTED BY IDOCK:   -3.95 KCAL/MOL
REMARK 922        TOTAL FREE ENERGY PREDICTED BY IDOCK:   -6.58 KCAL/MOL
REMARK 923 INTER-LIGAND FREE ENERGY PREDICTED BY IDOCK:   -5.75 KCAL/MOL
REMARK 924 INTRA-LIGAND FREE ENERGY PREDICTED BY IDOCK:   -0.83 KCAL/MOL
REMARK 927      BINDING AFFINITY PREDICTED BY RF-SCORE:    0.00 PKD
ROOT
HETATM    1  C   UNL     1     -13.872   8.632  72.008  1.00  0.00    -0.491 C  
HETATM    2  C   UNL     1     -12.684   9.577  71.934  1.00  0.00    -0.496 C  
ENDROOT
BRANCH   2   3
HETATM    3  C   UNL     1     -12.868  10.610  70.824  1.00  0.00    -0.439 C  
BRANCH   3   4
HETATM    4  C   UNL     1     -11.580  10.806  70.027  1.00  0.00    -0.417 C  
BRANCH   4   5
HETATM    5  C   UNL     1     -10.537   9.756  70.407  1.00  0.00    -0.365 C  
BRANCH   5   6
HETATM    6  C   UNL     1      -9.967   9.072  69.166  1.00  0.00    -0.187 C  
BRANCH   6   7
HETATM    7  C   UNL     1     -10.708   9.514  67.904  1.00  0.00    -0.285 C  
BRANCH   7   8
HETATM    8  C   UNL     1      -9.767   9.523  66.700  1.00  0.00    -0.270 C  
BRANCH   8   9
HETATM    9  C   UNL     1     -10.040  10.719  65.788  1.00  0.00    -0.320 C  
BRANCH   9  10
HETATM   10  C   UNL     1     -11.108  11.630  66.395  1.00  0.00    -0.347 C  
BRANCH  10  11
HETATM   11  C   UNL     1     -11.094  13.013  65.752  1.00  0.00    -0.302 C  
HETATM   12  C   UNL     1     -12.343  13.262  64.936  1.00  0.00    -0.425 C  
HETATM   13  O   UNL     1     -12.342  14.488  64.361  1.00  0.00    -0.568 OA 
HETATM   14  O   UNL     1     -13.263  12.475  64.789  1.00  0.00    -0.839 OA 
ENDBRANCH  10  11
ENDBRANCH   9  10
ENDBRANCH   8   9
ENDBRANCH   7   8
ENDBRANCH   6   7
ENDBRANCH   5   6
ENDBRANCH   4   5
ENDBRANCH   3   4
ENDBRANCH   2   3
TORSDOF 9
ENDMDL
MODEL       43
REMARK 921   NORMALIZED FREE ENERGY PREDICTED BY IDOCK:   -3.95 KCAL/MOL
REMARK 922        TOTAL FREE ENERGY PREDICTED BY IDOCK:   -6.57 KCAL/MOL
REMARK 923 INTER-LIGAND FREE ENERGY PREDICTED BY IDOCK:   -5.65 KCAL/MOL
REMARK 924 INTRA-LIGAND FREE ENERGY PREDICTED BY IDOCK:   -0.92 KCAL/MOL
REMARK 927      BINDING AFFINITY PREDICTED BY RF-SCORE:    0.00 PKD
ROOT
HETATM    1  C   UNL     1     -10.166  11.056  64.960  1.00  0.00    -0.360 C  
HETATM    2  C   UNL     1     -10.695  11.335  63.562  1.00  0.00    -0.408 C  
ENDROOT
BRANCH   2   3
HETATM    3  C   UNL     1     -11.714  12.472  63.575  1.00  0.00    -0.595 C  
BRANCH   3   4
HETATM    4  C   UNL     1     -12.510  12.492  64.878  1.00  0.00    -0.524 C  
BRANCH   4   5
HETATM    5  C   UNL     1     -12.547  13.897  65.476  1.00  0.00    -0.560 C  
BRANCH   5   6
HETATM    6  C   UNL     1     -12.017  14.931  64.484  1.00  0.00    -0.420 C  
BRANCH   6   7
HETATM    7  C   UNL     1     -10.787  15.648  65.039  1.00  0.00    -0.468 C  
BRANCH   7   8
HETATM    8  C   UNL     1     -10.043  14.757  66.033  1.00  0.00    -0.327 C  
BRANCH   8   9
HETATM    9  C   UNL     1      -8.852  15.487  66.653  1.00  0.00    -0.325 C  
BRANCH   9  10
HETATM   10  C   UNL     1      -8.870  16.969  66.279  1.00  0.00    -0.289 C  
BRANCH  10  11
HETATM   11  C   UNL     1      -8.545  17.853  67.479  1.00  0.00    -0.239 C  
HETATM   12  C   UNL     1      -9.760  18.615  67.958  1.00  0.00    -0.321 C  
HETATM   13  O   UNL     1      -9.483  19.402  69.024  1.00  0.00    -0.391 OA 
HETATM   14  O   UNL     1     -10.875  18.552  67.467  1.00  0.00    -0.422 OA 
ENDBRANCH  10  11
ENDBRANCH   9  10
ENDBRANCH   8   9
ENDBRANCH   7   8
ENDBRANCH   6   7
ENDBRANCH   5   6
ENDBRANCH   4   5
ENDBRANCH   3   4
ENDBRANCH   2   3
TORSDOF 9
ENDMDL
MODEL       44
REMARK 921   NORMALIZED FREE ENERGY PREDICTED BY IDOCK:   -3.94 KCAL/MOL
REMARK 922        TOTAL FREE ENERGY PREDICTED BY IDOCK:   -6.55 KCAL/MOL
REMARK 923 INTER-LIGAND FREE ENERGY PREDICTED BY IDOCK:   -5.81 KCAL/MOL
REMARK 924 INTRA-LIGAND FREE ENERGY PREDICTED BY IDOCK:   -0.75 KCAL/MOL
REMARK 927      BINDING AFFINITY PREDICTED BY RF-SCORE:    0.00 PKD
ROOT
HETATM    1  C   UNL     1     -13.402  15.811  72.990  1.00  0.00    -0.679 C  
HETATM    2  C   UNL     1     -13.885  15.201  71.684  1.00  0.00    -0.597 C  
ENDROOT
BRANCH   2   3
HETATM    3  C   UNL     1     -13.050  13.981  71.301  1.00  0.00    -0.399 C  
BRANCH   3   4
HETATM    4  C   UNL     1     -13.536  12.726  72.023  1.00  0.00    -0.540 C  
BRANCH   4   5
HETATM    5  C   UNL     1     -12.869  11.475  71.453  1.00  0.00    -0.489 C  
BRANCH   5   6
HETATM    6  C   UNL     1     -11.954  11.824  70.281  1.00  0.00    -0.429 C  
BRANCH   6   7
HETATM    7  C   UNL     1     -11.525  10.568  69.524  1.00  0.00    -0.339 C  
BRANCH   7   8
HETATM    8  C   UNL     1     -11.511  10.822  68.017  1.00  0.00    -0.333 C  
BRANCH   8   9
HETATM    9  C   UNL     1     -10.824  12.144  67.679  1.00  0.00    -0.272 C  
BRANCH   9  10
HETATM   10  C   UNL     1     -11.792  13.092  66.972  1.00  0.00    -0.435 C  
BRANCH  10  11
HETATM   11  C   UNL     1     -11.804  14.471  67.626  1.00  0.00    -0.395 C  
HETATM   12  C   UNL     1     -10.890  15.438  66.908  1.00  0.00    -0.313 C  
HETATM   13  O   UNL     1     -10.894  16.665  67.480  1.00  0.00    -0.305 OA 
HETATM   14  O   UNL     1     -10.215  15.179  65.926  1.00  0.00    -0.283 OA 
ENDBRANCH  10  11
ENDBRANCH   9  10
ENDBRANCH   8   9
ENDBRANCH   7   8
ENDBRANCH   6   7
ENDBRANCH   5   6
ENDBRANCH   4   5
ENDBRANCH   3   4
ENDBRANCH   2   3
TORSDOF 9
ENDMDL
MODEL       45
REMARK 921   NORMALIZED FREE ENERGY PREDICTED BY IDOCK:   -3.93 KCAL/MOL
REMARK 922        TOTAL FREE ENERGY PREDICTED BY IDOCK:   -6.55 KCAL/MOL
REMARK 923 INTER-LIGAND FREE ENERGY PREDICTED BY IDOCK:   -5.32 KCAL/MOL
REMARK 924 INTRA-LIGAND FREE ENERGY PREDICTED BY IDOCK:   -1.23 KCAL/MOL
REMARK 927      BINDING AFFINITY PREDICTED BY RF-SCORE:    0.00 PKD
ROOT
HETATM    1  C   UNL     1      -7.325  16.670  69.064  1.00  0.00    -0.228 C  
HETATM    2  C   UNL     1      -6.974  17.518  67.853  1.00  0.00    -0.185 C  
ENDROOT
BRANCH   2   3
HETATM    3  C   UNL     1      -7.198  19.003  68.134  1.00  0.00    -0.289 C  
BRANCH   3   4
HETATM    4  C   UNL     1      -8.568  19.249  68.761  1.00  0.00    -0.375 C  
BRANCH   4   5
HETATM    5  C   UNL     1      -9.510  19.930  67.769  1.00  0.00    -0.474 C  
BRANCH   5   6
HETATM    6  C   UNL     1     -10.648  18.997  67.362  1.00  0.00    -0.559 C  
BRANCH   6   7
HETATM    7  C   UNL     1     -10.424  18.432  65.960  1.00  0.00    -0.400 C  
BRANCH   7   8
HETATM    8  C   UNL     1     -10.121  16.936  66.020  1.00  0.00    -0.336 C  
BRANCH   8   9
HETATM    9  C   UNL     1     -10.617  16.318  67.326  1.00  0.00    -0.298 C  
BRANCH   9  10
HETATM   10  C   UNL     1     -10.713  14.797  67.203  1.00  0.00    -0.299 C  
BRANCH  10  11
HETATM   11  C   UNL     1     -12.018  14.370  66.536  1.00  0.00    -0.406 C  
HETATM   12  C   UNL     1     -11.816  13.180  65.626  1.00  0.00    -0.387 C  
HETATM   13  O   UNL     1     -12.968  12.792  65.029  1.00  0.00    -0.811 OA 
HETATM   14  O   UNL     1     -10.756  12.610  65.429  1.00  0.00    -0.269 OA 
ENDBRANCH  10  11
ENDBRANCH   9  10
ENDBRANCH   8   9
ENDBRANCH   7   8
ENDBRANCH   6   7
ENDBRANCH   5   6
ENDBRANCH   4   5
ENDBRANCH   3   4
ENDBRANCH   2   3
TORSDOF 9
ENDMDL
MODEL       46
REMARK 921   NORMALIZED FREE ENERGY PREDICTED BY IDOCK:   -3.92 KCAL/MOL
REMARK 922        TOTAL FREE ENERGY PREDICTED BY IDOCK:   -6.53 KCAL/MOL
REMARK 923 INTER-LIGAND FREE ENERGY PREDICTED BY IDOCK:   -5.46 KCAL/MOL
REMARK 924 INTRA-LIGAND FREE ENERGY PREDICTED BY IDOCK:   -1.07 KCAL/MOL
REMARK 927      BINDING AFFINITY PREDICTED BY RF-SCORE:    0.00 PKD
ROOT
HETATM    1  C   UNL     1     -10.583  18.086  67.529  1.00  0.00    -0.402 C  
HETATM    2  C   UNL     1      -9.398  17.638  66.689  1.00  0.00    -0.289 C  
ENDROOT
BRANCH   2   3
HETATM    3  C   UNL     1      -9.510  16.160  66.321  1.00  0.00    -0.347 C  
BRANCH   3   4
HETATM    4  C   UNL     1     -10.637  15.921  65.318  1.00  0.00    -0.441 C  
BRANCH   4   5
HETATM    5  C   UNL     1     -10.621  14.480  64.810  1.00  0.00    -0.401 C  
BRANCH   5   6
HETATM    6  C   UNL     1     -12.027  14.010  64.442  1.00  0.00    -0.480 C  
BRANCH   6   7
HETATM    7  C   UNL     1     -12.653  13.201  65.578  1.00  0.00    -0.468 C  
BRANCH   7   8
HETATM    8  C   UNL     1     -11.573  12.521  66.418  1.00  0.00    -0.449 C  
BRANCH   8   9
HETATM    9  C   UNL     1     -11.901  12.587  67.908  1.00  0.00    -0.383 C  
BRANCH   9  10
HETATM   10  C   UNL     1     -10.959  13.551  68.629  1.00  0.00    -0.289 C  
BRANCH  10  11
HETATM   11  C   UNL     1     -11.685  14.817  69.075  1.00  0.00    -0.343 C  
HETATM   12  C   UNL     1     -12.479  14.588  70.342  1.00  0.00    -0.347 C  
HETATM   13  O   UNL     1     -13.127  15.705  70.747  1.00  0.00    -0.477 OA 
HETATM   14  O   UNL     1     -12.550  13.535  70.953  1.00  0.00    -0.348 OA 
ENDBRANCH  10  11
ENDBRANCH   9  10
ENDBRANCH   8   9
ENDBRANCH   7   8
ENDBRANCH   6   7
ENDBRANCH   5   6
ENDBRANCH   4   5
ENDBRANCH   3   4
ENDBRANCH   2   3
TORSDOF 9
ENDMDL
MODEL       47
REMARK 921   NORMALIZED FREE ENERGY PREDICTED BY IDOCK:   -3.92 KCAL/MOL
REMARK 922        TOTAL FREE ENERGY PREDICTED BY IDOCK:   -6.53 KCAL/MOL
REMARK 923 INTER-LIGAND FREE ENERGY PREDICTED BY IDOCK:   -5.92 KCAL/MOL
REMARK 924 INTRA-LIGAND FREE ENERGY PREDICTED BY IDOCK:   -0.61 KCAL/MOL
REMARK 927      BINDING AFFINITY PREDICTED BY RF-SCORE:    0.00 PKD
ROOT
HETATM    1  C   UNL     1     -14.176   7.768  71.518  1.00  0.00    -0.540 C  
HETATM    2  C   UNL     1     -14.016   8.978  72.424  1.00  0.00    -0.517 C  
ENDROOT
BRANCH   2   3
HETATM    3  C   UNL     1     -13.058  10.001  71.816  1.00  0.00    -0.562 C  
BRANCH   3   4
HETATM    4  C   UNL     1     -11.683   9.390  71.558  1.00  0.00    -0.465 C  
BRANCH   4   5
HETATM    5  C   UNL     1     -11.095   9.902  70.244  1.00  0.00    -0.368 C  
BRANCH   5   6
HETATM    6  C   UNL     1     -11.722  11.236  69.843  1.00  0.00    -0.430 C  
BRANCH   6   7
HETATM    7  C   UNL     1     -11.924  11.317  68.330  1.00  0.00    -0.255 C  
BRANCH   7   8
HETATM    8  C   UNL     1     -10.912  12.273  67.699  1.00  0.00    -0.287 C  
BRANCH   8   9
HETATM    9  C   UNL     1     -10.012  11.550  66.698  1.00  0.00    -0.236 C  
BRANCH   9  10
HETATM   10  C   UNL     1     -10.020  12.267  65.347  1.00  0.00    -0.264 C  
BRANCH  10  11
HETATM   11  C   UNL     1     -11.008  11.624  64.378  1.00  0.00    -0.399 C  
HETATM   12  C   UNL     1     -12.160  12.549  64.059  1.00  0.00    -0.473 C  
HETATM   13  O   UNL     1     -13.043  11.989  63.198  1.00  0.00    -0.624 OA 
HETATM   14  O   UNL     1     -12.310  13.675  64.505  1.00  0.00    -0.500 OA 
ENDBRANCH  10  11
ENDBRANCH   9  10
ENDBRANCH   8   9
ENDBRANCH   7   8
ENDBRANCH   6   7
ENDBRANCH   5   6
ENDBRANCH   4   5
ENDBRANCH   3   4
ENDBRANCH   2   3
TORSDOF 9
ENDMDL
MODEL       48
REMARK 921   NORMALIZED FREE ENERGY PREDICTED BY IDOCK:   -3.92 KCAL/MOL
REMARK 922        TOTAL FREE ENERGY PREDICTED BY IDOCK:   -6.53 KCAL/MOL
REMARK 923 INTER-LIGAND FREE ENERGY PREDICTED BY IDOCK:   -5.55 KCAL/MOL
REMARK 924 INTRA-LIGAND FREE ENERGY PREDICTED BY IDOCK:   -0.98 KCAL/MOL
REMARK 927      BINDING AFFINITY PREDICTED BY RF-SCORE:    0.00 PKD
ROOT
HETATM    1  C   UNL     1     -13.285  10.221  72.068  1.00  0.00    -0.516 C  
HETATM    2  C   UNL     1     -13.171   8.726  72.322  1.00  0.00    -0.456 C  
ENDROOT
BRANCH   2   3
HETATM    3  C   UNL     1     -12.170   8.078  71.368  1.00  0.00    -0.335 C  
BRANCH   3   4
HETATM    4  C   UNL     1     -10.899   8.914  71.243  1.00  0.00    -0.360 C  
BRANCH   4   5
HETATM    5  C   UNL     1     -10.372   8.898  69.809  1.00  0.00    -0.213 C  
BRANCH   5   6
HETATM    6  C   UNL     1     -10.095  10.314  69.308  1.00  0.00    -0.244 C  
BRANCH   6   7
HETATM    7  C   UNL     1     -11.168  10.769  68.319  1.00  0.00    -0.358 C  
BRANCH   7   8
HETATM    8  C   UNL     1     -12.095  11.800  68.961  1.00  0.00    -0.276 C  
BRANCH   8   9
HETATM    9  C   UNL     1     -11.783  13.213  68.471  1.00  0.00    -0.387 C  
BRANCH   9  10
HETATM   10  C   UNL     1     -12.012  14.235  69.584  1.00  0.00    -0.387 C  
BRANCH  10  11
HETATM   11  C   UNL     1     -12.490  13.566  70.870  1.00  0.00    -0.448 C  
HETATM   12  C   UNL     1     -13.596  14.356  71.532  1.00  0.00    -0.370 C  
HETATM   13  O   UNL     1     -14.029  13.771  72.674  1.00  0.00    -0.710 OA 
HETATM   14  O   UNL     1     -14.067  15.402  71.117  1.00  0.00    -0.489 OA 
ENDBRANCH  10  11
ENDBRANCH   9  10
ENDBRANCH   8   9
ENDBRANCH   7   8
ENDBRANCH   6   7
ENDBRANCH   5   6
ENDBRANCH   4   5
ENDBRANCH   3   4
ENDBRANCH   2   3
TORSDOF 9
ENDMDL
MODEL       49
REMARK 921   NORMALIZED FREE ENERGY PREDICTED BY IDOCK:   -3.91 KCAL/MOL
REMARK 922        TOTAL FREE ENERGY PREDICTED BY IDOCK:   -6.51 KCAL/MOL
REMARK 923 INTER-LIGAND FREE ENERGY PREDICTED BY IDOCK:   -5.13 KCAL/MOL
REMARK 924 INTRA-LIGAND FREE ENERGY PREDICTED BY IDOCK:   -1.39 KCAL/MOL
REMARK 927      BINDING AFFINITY PREDICTED BY RF-SCORE:    0.00 PKD
ROOT
HETATM    1  C   UNL     1     -11.613  14.904  67.907  1.00  0.00    -0.364 C  
HETATM    2  C   UNL     1     -11.256  14.402  66.517  1.00  0.00    -0.340 C  
ENDROOT
BRANCH   2   3
HETATM    3  C   UNL     1     -12.440  13.691  65.865  1.00  0.00    -0.502 C  
BRANCH   3   4
HETATM    4  C   UNL     1     -12.099  13.223  64.452  1.00  0.00    -0.471 C  
BRANCH   4   5
HETATM    5  C   UNL     1     -10.586  13.140  64.254  1.00  0.00    -0.432 C  
BRANCH   5   6
HETATM    6  C   UNL     1     -10.194  11.846  63.545  1.00  0.00    -0.485 C  
BRANCH   6   7
HETATM    7  C   UNL     1     -10.360  10.639  64.469  1.00  0.00    -0.352 C  
BRANCH   7   8
HETATM    8  C   UNL     1      -9.678  10.887  65.813  1.00  0.00    -0.270 C  
BRANCH   8   9
HETATM    9  C   UNL     1     -10.493  10.308  66.968  1.00  0.00    -0.304 C  
BRANCH   9  10
HETATM   10  C   UNL     1     -10.540  11.287  68.142  1.00  0.00    -0.225 C  
BRANCH  10  11
HETATM   11  C   UNL     1     -11.905  11.279  68.824  1.00  0.00    -0.396 C  
HETATM   12  C   UNL     1     -11.884  10.476  70.105  1.00  0.00    -0.320 C  
HETATM   13  O   UNL     1     -13.090  10.463  70.720  1.00  0.00    -0.385 OA 
HETATM   14  O   UNL     1     -10.914   9.896  70.563  1.00  0.00    -0.281 OA 
ENDBRANCH  10  11
ENDBRANCH   9  10
ENDBRANCH   8   9
ENDBRANCH   7   8
ENDBRANCH   6   7
ENDBRANCH   5   6
ENDBRANCH   4   5
ENDBRANCH   3   4
ENDBRANCH   2   3
TORSDOF 9
ENDMDL
MODEL       50
REMARK 921   NORMALIZED FREE ENERGY PREDICTED BY IDOCK:   -3.91 KCAL/MOL
REMARK 922        TOTAL FREE ENERGY PREDICTED BY IDOCK:   -6.51 KCAL/MOL
REMARK 923 INTER-LIGAND FREE ENERGY PREDICTED BY IDOCK:   -5.98 KCAL/MOL
REMARK 924 INTRA-LIGAND FREE ENERGY PREDICTED BY IDOCK:   -0.53 KCAL/MOL
REMARK 927      BINDING AFFINITY PREDICTED BY RF-SCORE:    0.00 PKD
ROOT
HETATM    1  C   UNL     1     -13.935  15.014  71.396  1.00  0.00    -0.565 C  
HETATM    2  C   UNL     1     -13.698  13.896  72.400  1.00  0.00    -0.678 C  
ENDROOT
BRANCH   2   3
HETATM    3  C   UNL     1     -12.990  12.710  71.748  1.00  0.00    -0.417 C  
BRANCH   3   4
HETATM    4  C   UNL     1     -12.218  13.139  70.503  1.00  0.00    -0.405 C  
BRANCH   4   5
HETATM    5  C   UNL     1     -11.866  11.932  69.635  1.00  0.00    -0.406 C  
BRANCH   5   6
HETATM    6  C   UNL     1     -11.508  12.362  68.214  1.00  0.00    -0.360 C  
BRANCH   6   7
HETATM    7  C   UNL     1     -10.858  11.216  67.438  1.00  0.00    -0.317 C  
BRANCH   7   8
HETATM    8  C   UNL     1     -10.046  11.751  66.260  1.00  0.00    -0.248 C  
BRANCH   8   9
HETATM    9  C   UNL     1     -10.567  11.208  64.930  1.00  0.00    -0.356 C  
BRANCH   9  10
HETATM   10  C   UNL     1     -11.187  12.328  64.094  1.00  0.00    -0.430 C  
BRANCH  10  11
HETATM   11  C   UNL     1     -10.569  13.683  64.425  1.00  0.00    -0.360 C  
HETATM   12  C   UNL     1     -11.624  14.753  64.587  1.00  0.00    -0.399 C  
HETATM   13  O   UNL     1     -11.087  15.961  64.882  1.00  0.00    -0.428 OA 
HETATM   14  O   UNL     1     -12.827  14.587  64.472  1.00  0.00    -0.613 OA 
ENDBRANCH  10  11
ENDBRANCH   9  10
ENDBRANCH   8   9
ENDBRANCH   7   8
ENDBRANCH   6   7
ENDBRANCH   5   6
ENDBRANCH   4   5
ENDBRANCH   3   4
ENDBRANCH   2   3
TORSDOF 9
ENDMDL
MODEL       51
REMARK 921   NORMALIZED FREE ENERGY PREDICTED BY IDOCK:   -3.89 KCAL/MOL
REMARK 922        TOTAL FREE ENERGY PREDICTED BY IDOCK:   -6.48 KCAL/MOL
REMARK 923 INTER-LIGAND FREE ENERGY PREDICTED BY IDOCK:   -5.85 KCAL/MOL
REMARK 924 INTRA-LIGAND FREE ENERGY PREDICTED BY IDOCK:   -0.63 KCAL/MOL
REMARK 927      BINDING AFFINITY PREDICTED BY RF-SCORE:    0.00 PKD
ROOT
HETATM    1  C   UNL     1      -9.531  17.075  66.548  1.00  0.00    -0.295 C  
HETATM    2  C   UNL     1     -10.531  15.938  66.409  1.00  0.00    -0.311 C  
ENDROOT
BRANCH   2   3
HETATM    3  C   UNL     1     -11.021  15.806  64.969  1.00  0.00    -0.431 C  
BRANCH   3   4
HETATM    4  C   UNL     1     -11.994  14.639  64.818  1.00  0.00    -0.439 C  
BRANCH   4   5
HETATM    5  C   UNL     1     -11.304  13.308  65.113  1.00  0.00    -0.318 C  
BRANCH   5   6
HETATM    6  C   UNL     1     -12.035  12.541  66.212  1.00  0.00    -0.410 C  
BRANCH   6   7
HETATM    7  C   UNL     1     -11.056  12.010  67.259  1.00  0.00    -0.341 C  
BRANCH   7   8
HETATM    8  C   UNL     1     -11.713  11.957  68.638  1.00  0.00    -0.380 C  
BRANCH   8   9
HETATM    9  C   UNL     1     -12.047  13.357  69.151  1.00  0.00    -0.306 C  
BRANCH   9  10
HETATM   10  C   UNL     1     -12.259  13.343  70.665  1.00  0.00    -0.427 C  
BRANCH  10  11
HETATM   11  C   UNL     1     -12.666  14.718  71.186  1.00  0.00    -0.402 C  
HETATM   12  C   UNL     1     -13.765  14.621  72.219  1.00  0.00    -0.460 C  
HETATM   13  O   UNL     1     -14.134  15.836  72.690  1.00  0.00    -0.578 OA 
HETATM   14  O   UNL     1     -14.284  13.588  72.608  1.00  0.00    -0.751 OA 
ENDBRANCH  10  11
ENDBRANCH   9  10
ENDBRANCH   8   9
ENDBRANCH   7   8
ENDBRANCH   6   7
ENDBRANCH   5   6
ENDBRANCH   4   5
ENDBRANCH   3   4
ENDBRANCH   2   3
TORSDOF 9
ENDMDL
MODEL       52
REMARK 921   NORMALIZED FREE ENERGY PREDICTED BY IDOCK:   -3.89 KCAL/MOL
REMARK 922        TOTAL FREE ENERGY PREDICTED BY IDOCK:   -6.48 KCAL/MOL
REMARK 923 INTER-LIGAND FREE ENERGY PREDICTED BY IDOCK:   -6.07 KCAL/MOL
REMARK 924 INTRA-LIGAND FREE ENERGY PREDICTED BY IDOCK:   -0.41 KCAL/MOL
REMARK 927      BINDING AFFINITY PREDICTED BY RF-SCORE:    0.00 PKD
ROOT
HETATM    1  C   UNL     1     -12.180  16.204  72.709  1.00  0.00    -0.628 C  
HETATM    2  C   UNL     1     -12.772  15.015  73.449  1.00  0.00    -0.654 C  
ENDROOT
BRANCH   2   3
HETATM    3  C   UNL     1     -13.531  14.093  72.496  1.00  0.00    -0.634 C  
BRANCH   3   4
HETATM    4  C   UNL     1     -13.197  14.404  71.039  1.00  0.00    -0.395 C  
BRANCH   4   5
HETATM    5  C   UNL     1     -12.095  13.480  70.521  1.00  0.00    -0.409 C  
BRANCH   5   6
HETATM    6  C   UNL     1     -12.455  12.013  70.749  1.00  0.00    -0.372 C  
BRANCH   6   7
HETATM    7  C   UNL     1     -12.118  11.166  69.523  1.00  0.00    -0.396 C  
BRANCH   7   8
HETATM    8  C   UNL     1     -11.858  12.053  68.306  1.00  0.00    -0.351 C  
BRANCH   8   9
HETATM    9  C   UNL     1     -11.133  11.286  67.201  1.00  0.00    -0.364 C  
BRANCH   9  10
HETATM   10  C   UNL     1     -11.082  12.110  65.914  1.00  0.00    -0.360 C  
BRANCH  10  11
HETATM   11  C   UNL     1     -10.072  11.538  64.923  1.00  0.00    -0.314 C  
HETATM   12  C   UNL     1     -10.457  11.846  63.494  1.00  0.00    -0.459 C  
HETATM   13  O   UNL     1      -9.566  11.344  62.605  1.00  0.00    -0.320 OA 
HETATM   14  O   UNL     1     -11.445  12.470  63.144  1.00  0.00    -0.414 OA 
ENDBRANCH  10  11
ENDBRANCH   9  10
ENDBRANCH   8   9
ENDBRANCH   7   8
ENDBRANCH   6   7
ENDBRANCH   5   6
ENDBRANCH   4   5
ENDBRANCH   3   4
ENDBRANCH   2   3
TORSDOF 9
ENDMDL
MODEL       53
REMARK 921   NORMALIZED FREE ENERGY PREDICTED BY IDOCK:   -3.88 KCAL/MOL
REMARK 922        TOTAL FREE ENERGY PREDICTED BY IDOCK:   -6.46 KCAL/MOL
REMARK 923 INTER-LIGAND FREE ENERGY PREDICTED BY IDOCK:   -5.73 KCAL/MOL
REMARK 924 INTRA-LIGAND FREE ENERGY PREDICTED BY IDOCK:   -0.74 KCAL/MOL
REMARK 927      BINDING AFFINITY PREDICTED BY RF-SCORE:    0.00 PKD
ROOT
HETATM    1  C   UNL     1     -13.240  10.675  71.842  1.00  0.00    -0.528 C  
HETATM    2  C   UNL     1     -12.070   9.815  71.392  1.00  0.00    -0.486 C  
ENDROOT
BRANCH   2   3
HETATM    3  C   UNL     1     -11.295  10.484  70.259  1.00  0.00    -0.407 C  
BRANCH   3   4
HETATM    4  C   UNL     1     -12.232  10.976  69.158  1.00  0.00    -0.229 C  
BRANCH   4   5
HETATM    5  C   UNL     1     -11.614  12.147  68.396  1.00  0.00    -0.381 C  
BRANCH   5   6
HETATM    6  C   UNL     1     -11.945  13.477  69.070  1.00  0.00    -0.376 C  
BRANCH   6   7
HETATM    7  C   UNL     1     -10.856  14.516  68.802  1.00  0.00    -0.256 C  
BRANCH   7   8
HETATM    8  C   UNL     1      -9.693  13.896  68.030  1.00  0.00    -0.226 C  
BRANCH   8   9
HETATM    9  C   UNL     1      -9.604  14.453  66.611  1.00  0.00    -0.295 C  
BRANCH   9  10
HETATM   10  C   UNL     1     -10.895  15.180  66.232  1.00  0.00    -0.333 C  
BRANCH  10  11
HETATM   11  C   UNL     1     -11.220  15.011  64.751  1.00  0.00    -0.393 C  
HETATM   12  C   UNL     1     -12.266  13.942  64.527  1.00  0.00    -0.417 C  
HETATM   13  O   UNL     1     -12.563  13.784  63.215  1.00  0.00    -0.830 OA 
HETATM   14  O   UNL     1     -12.802  13.280  65.400  1.00  0.00    -0.569 OA 
ENDBRANCH  10  11
ENDBRANCH   9  10
ENDBRANCH   8   9
ENDBRANCH   7   8
ENDBRANCH   6   7
ENDBRANCH   5   6
ENDBRANCH   4   5
ENDBRANCH   3   4
ENDBRANCH   2   3
TORSDOF 9
ENDMDL
MODEL       54
REMARK 921   NORMALIZED FREE ENERGY PREDICTED BY IDOCK:   -3.87 KCAL/MOL
REMARK 922        TOTAL FREE ENERGY PREDICTED BY IDOCK:   -6.45 KCAL/MOL
REMARK 923 INTER-LIGAND FREE ENERGY PREDICTED BY IDOCK:   -5.70 KCAL/MOL
REMARK 924 INTRA-LIGAND FREE ENERGY PREDICTED BY IDOCK:   -0.75 KCAL/MOL
REMARK 927      BINDING AFFINITY PREDICTED BY RF-SCORE:    0.00 PKD
ROOT
HETATM    1  C   UNL     1     -12.748   7.218  71.209  1.00  0.00    -0.400 C  
HETATM    2  C   UNL     1     -13.981   7.974  71.678  1.00  0.00    -0.474 C  
ENDROOT
BRANCH   2   3
HETATM    3  C   UNL     1     -13.630   9.404  72.085  1.00  0.00    -0.528 C  
BRANCH   3   4
HETATM    4  C   UNL     1     -12.509   9.970  71.217  1.00  0.00    -0.494 C  
BRANCH   4   5
HETATM    5  C   UNL     1     -12.618  11.490  71.106  1.00  0.00    -0.463 C  
BRANCH   5   6
HETATM    6  C   UNL     1     -13.530  12.057  72.192  1.00  0.00    -0.338 C  
BRANCH   6   7
HETATM    7  C   UNL     1     -13.607  13.581  72.108  1.00  0.00    -0.651 C  
BRANCH   7   8
HETATM    8  C   UNL     1     -12.355  14.151  71.441  1.00  0.00    -0.425 C  
BRANCH   8   9
HETATM    9  C   UNL     1     -12.658  15.458  70.711  1.00  0.00    -0.497 C  
BRANCH   9  10
HETATM   10  C   UNL     1     -11.900  15.526  69.385  1.00  0.00    -0.392 C  
BRANCH  10  11
HETATM   11  C   UNL     1     -11.811  14.156  68.719  1.00  0.00    -0.384 C  
HETATM   12  C   UNL     1     -10.376  13.734  68.499  1.00  0.00    -0.244 C  
HETATM   13  O   UNL     1     -10.285  12.518  67.910  1.00  0.00    -0.207 OA 
HETATM   14  O   UNL     1      -9.391  14.385  68.803  1.00  0.00    -0.200 OA 
ENDBRANCH  10  11
ENDBRANCH   9  10
ENDBRANCH   8   9
ENDBRANCH   7   8
ENDBRANCH   6   7
ENDBRANCH   5   6
ENDBRANCH   4   5
ENDBRANCH   3   4
ENDBRANCH   2   3
TORSDOF 9
ENDMDL
MODEL       55
REMARK 921   NORMALIZED FREE ENERGY PREDICTED BY IDOCK:   -3.87 KCAL/MOL
REMARK 922        TOTAL FREE ENERGY PREDICTED BY IDOCK:   -6.45 KCAL/MOL
REMARK 923 INTER-LIGAND FREE ENERGY PREDICTED BY IDOCK:   -5.50 KCAL/MOL
REMARK 924 INTRA-LIGAND FREE ENERGY PREDICTED BY IDOCK:   -0.94 KCAL/MOL
REMARK 927      BINDING AFFINITY PREDICTED BY RF-SCORE:    0.00 PKD
ROOT
HETATM    1  C   UNL     1      -8.642  10.787  65.482  1.00  0.00    -0.181 C  
HETATM    2  C   UNL     1      -9.604  10.046  64.568  1.00  0.00    -0.346 C  
ENDROOT
BRANCH   2   3
HETATM    3  C   UNL     1      -9.990  10.900  63.362  1.00  0.00    -0.414 C  
BRANCH   3   4
HETATM    4  C   UNL     1     -10.300  12.337  63.775  1.00  0.00    -0.464 C  
BRANCH   4   5
HETATM    5  C   UNL     1     -11.769  12.673  63.524  1.00  0.00    -0.604 C  
BRANCH   5   6
HETATM    6  C   UNL     1     -12.599  12.495  64.793  1.00  0.00    -0.493 C  
BRANCH   6   7
HETATM    7  C   UNL     1     -11.843  13.001  66.022  1.00  0.00    -0.471 C  
BRANCH   7   8
HETATM    8  C   UNL     1     -11.784  11.923  67.103  1.00  0.00    -0.311 C  
BRANCH   8   9
HETATM    9  C   UNL     1     -11.448  12.521  68.469  1.00  0.00    -0.346 C  
BRANCH   9  10
HETATM   10  C   UNL     1     -12.023  13.932  68.598  1.00  0.00    -0.401 C  
BRANCH  10  11
HETATM   11  C   UNL     1     -12.047  14.396  70.052  1.00  0.00    -0.401 C  
HETATM   12  C   UNL     1     -11.625  15.842  70.184  1.00  0.00    -0.357 C  
HETATM   13  O   UNL     1     -11.644  16.264  71.470  1.00  0.00    -0.457 OA 
HETATM   14  O   UNL     1     -11.300  16.572  69.263  1.00  0.00    -0.258 OA 
ENDBRANCH  10  11
ENDBRANCH   9  10
ENDBRANCH   8   9
ENDBRANCH   7   8
ENDBRANCH   6   7
ENDBRANCH   5   6
ENDBRANCH   4   5
ENDBRANCH   3   4
ENDBRANCH   2   3
TORSDOF 9
ENDMDL
MODEL       56
REMARK 921   NORMALIZED FREE ENERGY PREDICTED BY IDOCK:   -3.87 KCAL/MOL
REMARK 922        TOTAL FREE ENERGY PREDICTED BY IDOCK:   -6.45 KCAL/MOL
REMARK 923 INTER-LIGAND FREE ENERGY PREDICTED BY IDOCK:   -5.69 KCAL/MOL
REMARK 924 INTRA-LIGAND FREE ENERGY PREDICTED BY IDOCK:   -0.76 KCAL/MOL
REMARK 927      BINDING AFFINITY PREDICTED BY RF-SCORE:    0.00 PKD
ROOT
HETATM    1  C   UNL     1     -10.932  12.283  63.644  1.00  0.00    -0.532 C  
HETATM    2  C   UNL     1     -12.233  12.892  64.143  1.00  0.00    -0.487 C  
ENDROOT
BRANCH   2   3
HETATM    3  C   UNL     1     -12.053  14.368  64.492  1.00  0.00    -0.498 C  
BRANCH   3   4
HETATM    4  C   UNL     1     -10.685  14.629  65.120  1.00  0.00    -0.430 C  
BRANCH   4   5
HETATM    5  C   UNL     1     -10.487  16.117  65.402  1.00  0.00    -0.396 C  
BRANCH   5   6
HETATM    6  C   UNL     1      -9.749  16.334  66.720  1.00  0.00    -0.253 C  
BRANCH   6   7
HETATM    7  C   UNL     1     -10.699  16.828  67.810  1.00  0.00    -0.321 C  
BRANCH   7   8
HETATM    8  C   UNL     1     -10.212  18.154  68.394  1.00  0.00    -0.401 C  
BRANCH   8   9
HETATM    9  C   UNL     1     -10.616  19.334  67.511  1.00  0.00    -0.581 C  
BRANCH   9  10
HETATM   10  C   UNL     1      -9.424  20.261  67.269  1.00  0.00    -0.557 C  
BRANCH  10  11
HETATM   11  C   UNL     1      -8.666  19.879  66.001  1.00  0.00    -0.284 C  
HETATM   12  C   UNL     1      -7.350  19.207  66.319  1.00  0.00    -0.260 C  
HETATM   13  O   UNL     1      -6.669  18.862  65.200  1.00  0.00    -0.483 OA 
HETATM   14  O   UNL     1      -6.919  18.984  67.438  1.00  0.00    -0.204 OA 
ENDBRANCH  10  11
ENDBRANCH   9  10
ENDBRANCH   8   9
ENDBRANCH   7   8
ENDBRANCH   6   7
ENDBRANCH   5   6
ENDBRANCH   4   5
ENDBRANCH   3   4
ENDBRANCH   2   3
TORSDOF 9
ENDMDL
MODEL       57
REMARK 921   NORMALIZED FREE ENERGY PREDICTED BY IDOCK:   -3.86 KCAL/MOL
REMARK 922        TOTAL FREE ENERGY PREDICTED BY IDOCK:   -6.44 KCAL/MOL
REMARK 923 INTER-LIGAND FREE ENERGY PREDICTED BY IDOCK:   -5.51 KCAL/MOL
REMARK 924 INTRA-LIGAND FREE ENERGY PREDICTED BY IDOCK:   -0.94 KCAL/MOL
REMARK 927      BINDING AFFINITY PREDICTED BY RF-SCORE:    0.00 PKD
ROOT
HETATM    1  C   UNL     1     -10.031   8.132  71.438  1.00  0.00    -0.230 C  
HETATM    2  C   UNL     1     -10.877   7.788  70.223  1.00  0.00    -0.252 C  
ENDROOT
BRANCH   2   3
HETATM    3  C   UNL     1     -11.808   6.613  70.512  1.00  0.00    -0.430 C  
BRANCH   3   4
HETATM    4  C   UNL     1     -12.654   6.867  71.758  1.00  0.00    -0.386 C  
BRANCH   4   5
HETATM    5  C   UNL     1     -14.018   7.445  71.385  1.00  0.00    -0.464 C  
BRANCH   5   6
HETATM    6  C   UNL     1     -14.376   8.631  72.277  1.00  0.00    -0.486 C  
BRANCH   6   7
HETATM    7  C   UNL     1     -13.310   9.724  72.196  1.00  0.00    -0.527 C  
BRANCH   7   8
HETATM    8  C   UNL     1     -13.279  10.348  70.802  1.00  0.00    -0.266 C  
BRANCH   8   9
HETATM    9  C   UNL     1     -12.091  11.295  70.641  1.00  0.00    -0.480 C  
BRANCH   9  10
HETATM   10  C   UNL     1     -12.512  12.741  70.902  1.00  0.00    -0.373 C  
BRANCH  10  11
HETATM   11  C   UNL     1     -11.974  13.683  69.829  1.00  0.00    -0.404 C  
HETATM   12  C   UNL     1     -12.373  15.117  70.093  1.00  0.00    -0.341 C  
HETATM   13  O   UNL     1     -11.900  15.963  69.147  1.00  0.00    -0.389 OA 
HETATM   14  O   UNL     1     -13.042  15.504  71.037  1.00  0.00    -0.477 OA 
ENDBRANCH  10  11
ENDBRANCH   9  10
ENDBRANCH   8   9
ENDBRANCH   7   8
ENDBRANCH   6   7
ENDBRANCH   5   6
ENDBRANCH   4   5
ENDBRANCH   3   4
ENDBRANCH   2   3
TORSDOF 9
ENDMDL
MODEL       58
REMARK 921   NORMALIZED FREE ENERGY PREDICTED BY IDOCK:   -3.86 KCAL/MOL
REMARK 922        TOTAL FREE ENERGY PREDICTED BY IDOCK:   -6.44 KCAL/MOL
REMARK 923 INTER-LIGAND FREE ENERGY PREDICTED BY IDOCK:   -5.05 KCAL/MOL
REMARK 924 INTRA-LIGAND FREE ENERGY PREDICTED BY IDOCK:   -1.38 KCAL/MOL
REMARK 927      BINDING AFFINITY PREDICTED BY RF-SCORE:    0.00 PKD
ROOT
HETATM    1  C   UNL     1     -11.990  12.656  65.778  1.00  0.00    -0.503 C  
HETATM    2  C   UNL     1     -11.828  12.726  67.288  1.00  0.00    -0.414 C  
ENDROOT
BRANCH   2   3
HETATM    3  C   UNL     1     -10.370  12.525  67.697  1.00  0.00    -0.222 C  
BRANCH   3   4
HETATM    4  C   UNL     1      -9.419  13.207  66.717  1.00  0.00    -0.252 C  
BRANCH   4   5
HETATM    5  C   UNL     1      -8.759  14.429  67.356  1.00  0.00    -0.214 C  
BRANCH   5   6
HETATM    6  C   UNL     1      -9.018  15.688  66.532  1.00  0.00    -0.343 C  
BRANCH   6   7
HETATM    7  C   UNL     1     -10.436  16.212  66.757  1.00  0.00    -0.294 C  
BRANCH   7   8
HETATM    8  C   UNL     1     -10.618  16.679  68.201  1.00  0.00    -0.336 C  
BRANCH   8   9
HETATM    9  C   UNL     1     -11.770  15.944  68.885  1.00  0.00    -0.376 C  
BRANCH   9  10
HETATM   10  C   UNL     1     -11.332  15.396  70.243  1.00  0.00    -0.332 C  
BRANCH  10  11
HETATM   11  C   UNL     1     -12.400  14.494  70.854  1.00  0.00    -0.415 C  
HETATM   12  C   UNL     1     -12.721  14.893  72.277  1.00  0.00    -0.332 C  
HETATM   13  O   UNL     1     -13.669  14.100  72.829  1.00  0.00    -0.628 OA 
HETATM   14  O   UNL     1     -12.207  15.815  72.888  1.00  0.00    -0.392 OA 
ENDBRANCH  10  11
ENDBRANCH   9  10
ENDBRANCH   8   9
ENDBRANCH   7   8
ENDBRANCH   6   7
ENDBRANCH   5   6
ENDBRANCH   4   5
ENDBRANCH   3   4
ENDBRANCH   2   3
TORSDOF 9
ENDMDL
MODEL       59
REMARK 921   NORMALIZED FREE ENERGY PREDICTED BY IDOCK:   -3.84 KCAL/MOL
REMARK 922        TOTAL FREE ENERGY PREDICTED BY IDOCK:   -6.40 KCAL/MOL
REMARK 923 INTER-LIGAND FREE ENERGY PREDICTED BY IDOCK:   -5.76 KCAL/MOL
REMARK 924 INTRA-LIGAND FREE ENERGY PREDICTED BY IDOCK:   -0.65 KCAL/MOL
REMARK 927      BINDING AFFINITY PREDICTED BY RF-SCORE:    0.00 PKD
ROOT
HETATM    1  C   UNL     1     -12.027  14.515  64.579  1.00  0.00    -0.482 C  
HETATM    2  C   UNL     1     -12.708  13.524  65.509  1.00  0.00    -0.493 C  
ENDROOT
BRANCH   2   3
HETATM    3  C   UNL     1     -11.883  13.297  66.774  1.00  0.00    -0.448 C  
BRANCH   3   4
HETATM    4  C   UNL     1     -11.979  14.490  67.723  1.00  0.00    -0.345 C  
BRANCH   4   5
HETATM    5  C   UNL     1     -11.101  14.281  68.956  1.00  0.00    -0.284 C  
BRANCH   5   6
HETATM    6  C   UNL     1     -11.237  15.447  69.932  1.00  0.00    -0.310 C  
BRANCH   6   7
HETATM    7  C   UNL     1     -12.678  15.590  70.422  1.00  0.00    -0.382 C  
BRANCH   7   8
HETATM    8  C   UNL     1     -12.818  15.072  71.853  1.00  0.00    -0.414 C  
BRANCH   8   9
HETATM    9  C   UNL     1     -14.060  14.196  72.010  1.00  0.00    -0.619 C  
BRANCH   9  10
HETATM   10  C   UNL     1     -13.671  12.769  72.398  1.00  0.00    -0.457 C  
BRANCH  10  11
HETATM   11  C   UNL     1     -12.776  12.126  71.342  1.00  0.00    -0.368 C  
HETATM   12  C   UNL     1     -12.832  10.617  71.407  1.00  0.00    -0.451 C  
HETATM   13  O   UNL     1     -12.041  10.035  70.474  1.00  0.00    -0.274 OA 
HETATM   14  O   UNL     1     -13.499   9.965  72.193  1.00  0.00    -0.429 OA 
ENDBRANCH  10  11
ENDBRANCH   9  10
ENDBRANCH   8   9
ENDBRANCH   7   8
ENDBRANCH   6   7
ENDBRANCH   5   6
ENDBRANCH   4   5
ENDBRANCH   3   4
ENDBRANCH   2   3
TORSDOF 9
ENDMDL
MODEL       60
REMARK 921   NORMALIZED FREE ENERGY PREDICTED BY IDOCK:   -3.83 KCAL/MOL
REMARK 922        TOTAL FREE ENERGY PREDICTED BY IDOCK:   -6.40 KCAL/MOL
REMARK 923 INTER-LIGAND FREE ENERGY PREDICTED BY IDOCK:   -5.69 KCAL/MOL
REMARK 924 INTRA-LIGAND FREE ENERGY PREDICTED BY IDOCK:   -0.71 KCAL/MOL
REMARK 927      BINDING AFFINITY PREDICTED BY RF-SCORE:    0.00 PKD
ROOT
HETATM    1  C   UNL     1     -14.360  14.824  71.705  1.00  0.00    -0.645 C  
HETATM    2  C   UNL     1     -13.395  13.656  71.582  1.00  0.00    -0.424 C  
ENDROOT
BRANCH   2   3
HETATM    3  C   UNL     1     -12.189  14.023  70.720  1.00  0.00    -0.438 C  
BRANCH   3   4
HETATM    4  C   UNL     1     -12.008  15.536  70.633  1.00  0.00    -0.416 C  
BRANCH   4   5
HETATM    5  C   UNL     1     -11.447  15.943  69.271  1.00  0.00    -0.374 C  
BRANCH   5   6
HETATM    6  C   UNL     1     -10.445  17.087  69.408  1.00  0.00    -0.250 C  
BRANCH   6   7
HETATM    7  C   UNL     1      -9.339  16.980  68.358  1.00  0.00    -0.266 C  
BRANCH   7   8
HETATM    8  C   UNL     1      -9.926  17.001  66.948  1.00  0.00    -0.289 C  
BRANCH   8   9
HETATM    9  C   UNL     1      -9.091  16.161  65.983  1.00  0.00    -0.354 C  
BRANCH   9  10
HETATM   10  C   UNL     1      -9.767  14.817  65.711  1.00  0.00    -0.347 C  
BRANCH  10  11
HETATM   11  C   UNL     1     -11.188  15.001  65.184  1.00  0.00    -0.391 C  
HETATM   12  C   UNL     1     -12.146  14.010  65.805  1.00  0.00    -0.427 C  
HETATM   13  O   UNL     1     -13.410  14.164  65.345  1.00  0.00    -0.705 OA 
HETATM   14  O   UNL     1     -11.852  13.157  66.626  1.00  0.00    -0.362 OA 
ENDBRANCH  10  11
ENDBRANCH   9  10
ENDBRANCH   8   9
ENDBRANCH   7   8
ENDBRANCH   6   7
ENDBRANCH   5   6
ENDBRANCH   4   5
ENDBRANCH   3   4
ENDBRANCH   2   3
TORSDOF 9
ENDMDL
MODEL       61
REMARK 921   NORMALIZED FREE ENERGY PREDICTED BY IDOCK:   -3.82 KCAL/MOL
REMARK 922        TOTAL FREE ENERGY PREDICTED BY IDOCK:   -6.38 KCAL/MOL
REMARK 923 INTER-LIGAND FREE ENERGY PREDICTED BY IDOCK:   -5.81 KCAL/MOL
REMARK 924 INTRA-LIGAND FREE ENERGY PREDICTED BY IDOCK:   -0.57 KCAL/MOL
REMARK 927      BINDING AFFINITY PREDICTED BY RF-SCORE:    0.00 PKD
ROOT
HETATM    1  C   UNL     1     -12.492  15.644  74.283  1.00  0.00    -0.804 C  
HETATM    2  C   UNL     1     -13.252  15.702  72.967  1.00  0.00    -0.664 C  
ENDROOT
BRANCH   2   3
HETATM    3  C   UNL     1     -12.295  15.736  71.778  1.00  0.00    -0.523 C  
BRANCH   3   4
HETATM    4  C   UNL     1     -12.394  14.457  70.948  1.00  0.00    -0.419 C  
BRANCH   4   5
HETATM    5  C   UNL     1     -11.711  14.630  69.592  1.00  0.00    -0.358 C  
BRANCH   5   6
HETATM    6  C   UNL     1     -11.906  13.394  68.716  1.00  0.00    -0.386 C  
BRANCH   6   7
HETATM    7  C   UNL     1     -10.625  12.565  68.640  1.00  0.00    -0.240 C  
BRANCH   7   8
HETATM    8  C   UNL     1     -10.892  11.116  69.046  1.00  0.00    -0.276 C  
BRANCH   8   9
HETATM    9  C   UNL     1     -12.146  11.001  69.912  1.00  0.00    -0.435 C  
BRANCH   9  10
HETATM   10  C   UNL     1     -12.080   9.757  70.798  1.00  0.00    -0.364 C  
BRANCH  10  11
HETATM   11  C   UNL     1     -10.649   9.457  71.237  1.00  0.00    -0.400 C  
HETATM   12  C   UNL     1     -10.609   8.429  72.345  1.00  0.00    -0.335 C  
HETATM   13  O   UNL     1      -9.344   8.154  72.741  1.00  0.00    -0.225 OA 
HETATM   14  O   UNL     1     -11.581   7.889  72.847  1.00  0.00    -0.383 OA 
ENDBRANCH  10  11
ENDBRANCH   9  10
ENDBRANCH   8   9
ENDBRANCH   7   8
ENDBRANCH   6   7
ENDBRANCH   5   6
ENDBRANCH   4   5
ENDBRANCH   3   4
ENDBRANCH   2   3
TORSDOF 9
ENDMDL
MODEL       62
REMARK 921   NORMALIZED FREE ENERGY PREDICTED BY IDOCK:   -3.82 KCAL/MOL
REMARK 922        TOTAL FREE ENERGY PREDICTED BY IDOCK:   -6.38 KCAL/MOL
REMARK 923 INTER-LIGAND FREE ENERGY PREDICTED BY IDOCK:   -5.05 KCAL/MOL
REMARK 924 INTRA-LIGAND FREE ENERGY PREDICTED BY IDOCK:   -1.33 KCAL/MOL
REMARK 927      BINDING AFFINITY PREDICTED BY RF-SCORE:    0.00 PKD
ROOT
HETATM    1  C   UNL     1     -11.344  11.966  64.152  1.00  0.00    -0.455 C  
HETATM    2  C   UNL     1     -12.434  12.630  64.979  1.00  0.00    -0.556 C  
ENDROOT
BRANCH   2   3
HETATM    3  C   UNL     1     -12.322  14.152  64.921  1.00  0.00    -0.446 C  
BRANCH   3   4
HETATM    4  C   UNL     1     -10.873  14.596  64.732  1.00  0.00    -0.402 C  
BRANCH   4   5
HETATM    5  C   UNL     1     -10.473  15.622  65.791  1.00  0.00    -0.383 C  
BRANCH   5   6
HETATM    6  C   UNL     1     -10.247  14.955  67.146  1.00  0.00    -0.245 C  
BRANCH   6   7
HETATM    7  C   UNL     1      -9.173  13.872  67.056  1.00  0.00    -0.257 C  
BRANCH   7   8
HETATM    8  C   UNL     1      -9.693  12.544  67.605  1.00  0.00    -0.196 C  
BRANCH   8   9
HETATM    9  C   UNL     1     -10.980  12.737  68.405  1.00  0.00    -0.281 C  
BRANCH   9  10
HETATM   10  C   UNL     1     -11.710  11.406  68.587  1.00  0.00    -0.394 C  
BRANCH  10  11
HETATM   11  C   UNL     1     -11.038  10.540  69.649  1.00  0.00    -0.338 C  
HETATM   12  C   UNL     1     -12.012  10.120  70.726  1.00  0.00    -0.348 C  
HETATM   13  O   UNL     1     -11.427   9.349  71.673  1.00  0.00    -0.369 OA 
HETATM   14  O   UNL     1     -13.194  10.420  70.769  1.00  0.00    -0.375 OA 
ENDBRANCH  10  11
ENDBRANCH   9  10
ENDBRANCH   8   9
ENDBRANCH   7   8
ENDBRANCH   6   7
ENDBRANCH   5   6
ENDBRANCH   4   5
ENDBRANCH   3   4
ENDBRANCH   2   3
TORSDOF 9
ENDMDL
MODEL       63
REMARK 921   NORMALIZED FREE ENERGY PREDICTED BY IDOCK:   -3.82 KCAL/MOL
REMARK 922        TOTAL FREE ENERGY PREDICTED BY IDOCK:   -6.38 KCAL/MOL
REMARK 923 INTER-LIGAND FREE ENERGY PREDICTED BY IDOCK:   -5.90 KCAL/MOL
REMARK 924 INTRA-LIGAND FREE ENERGY PREDICTED BY IDOCK:   -0.48 KCAL/MOL
REMARK 927      BINDING AFFINITY PREDICTED BY RF-SCORE:    0.00 PKD
ROOT
HETATM    1  C   UNL     1     -12.501  12.159  63.411  1.00  0.00    -0.625 C  
HETATM    2  C   UNL     1     -11.836  13.121  64.382  1.00  0.00    -0.441 C  
ENDROOT
BRANCH   2   3
HETATM    3  C   UNL     1     -12.758  13.446  65.556  1.00  0.00    -0.469 C  
BRANCH   3   4
HETATM    4  C   UNL     1     -11.998  14.140  66.684  1.00  0.00    -0.470 C  
BRANCH   4   5
HETATM    5  C   UNL     1     -11.270  13.121  67.561  1.00  0.00    -0.314 C  
BRANCH   5   6
HETATM    6  C   UNL     1     -11.400  13.476  69.040  1.00  0.00    -0.336 C  
BRANCH   6   7
HETATM    7  C   UNL     1     -11.833  12.262  69.862  1.00  0.00    -0.383 C  
BRANCH   7   8
HETATM    8  C   UNL     1     -12.623  12.696  71.096  1.00  0.00    -0.354 C  
BRANCH   8   9
HETATM    9  C   UNL     1     -13.107  11.492  71.902  1.00  0.00    -0.492 C  
BRANCH   9  10
HETATM   10  C   UNL     1     -12.872  10.194  71.129  1.00  0.00    -0.494 C  
BRANCH  10  11
HETATM   11  C   UNL     1     -12.713   9.003  72.069  1.00  0.00    -0.467 C  
HETATM   12  C   UNL     1     -11.267   8.579  72.194  1.00  0.00    -0.362 C  
HETATM   13  O   UNL     1     -11.113   7.523  73.027  1.00  0.00    -0.360 OA 
HETATM   14  O   UNL     1     -10.323   9.103  71.626  1.00  0.00    -0.334 OA 
ENDBRANCH  10  11
ENDBRANCH   9  10
ENDBRANCH   8   9
ENDBRANCH   7   8
ENDBRANCH   6   7
ENDBRANCH   5   6
ENDBRANCH   4   5
ENDBRANCH   3   4
ENDBRANCH   2   3
TORSDOF 9
ENDMDL
MODEL       64
REMARK 921   NORMALIZED FREE ENERGY PREDICTED BY IDOCK:   -3.81 KCAL/MOL
REMARK 922        TOTAL FREE ENERGY PREDICTED BY IDOCK:   -6.36 KCAL/MOL
REMARK 923 INTER-LIGAND FREE ENERGY PREDICTED BY IDOCK:   -5.44 KCAL/MOL
REMARK 924 INTRA-LIGAND FREE ENERGY PREDICTED BY IDOCK:   -0.92 KCAL/MOL
REMARK 927      BINDING AFFINITY PREDICTED BY RF-SCORE:    0.00 PKD
ROOT
HETATM    1  C   UNL     1      -8.571   8.518  65.254  1.00  0.00    -0.192 C  
HETATM    2  C   UNL     1      -9.800   9.196  65.837  1.00  0.00    -0.305 C  
ENDROOT
BRANCH   2   3
HETATM    3  C   UNL     1      -9.883  10.658  65.403  1.00  0.00    -0.325 C  
BRANCH   3   4
HETATM    4  C   UNL     1     -10.070  10.780  63.892  1.00  0.00    -0.397 C  
BRANCH   4   5
HETATM    5  C   UNL     1     -10.751  12.099  63.530  1.00  0.00    -0.509 C  
BRANCH   5   6
HETATM    6  C   UNL     1     -12.252  12.037  63.806  1.00  0.00    -0.600 C  
BRANCH   6   7
HETATM    7  C   UNL     1     -12.639  12.961  64.961  1.00  0.00    -0.538 C  
BRANCH   7   8
HETATM    8  C   UNL     1     -11.674  14.142  65.056  1.00  0.00    -0.376 C  
BRANCH   8   9
HETATM    9  C   UNL     1     -11.448  14.563  66.507  1.00  0.00    -0.366 C  
BRANCH   9  10
HETATM   10  C   UNL     1     -10.752  13.450  67.292  1.00  0.00    -0.265 C  
BRANCH  10  11
HETATM   11  C   UNL     1     -11.142  13.476  68.767  1.00  0.00    -0.298 C  
HETATM   12  C   UNL     1     -11.903  12.232  69.164  1.00  0.00    -0.301 C  
HETATM   13  O   UNL     1     -12.254  12.243  70.472  1.00  0.00    -0.360 OA 
HETATM   14  O   UNL     1     -12.186  11.306  68.422  1.00  0.00    -0.604 OA 
ENDBRANCH  10  11
ENDBRANCH   9  10
ENDBRANCH   8   9
ENDBRANCH   7   8
ENDBRANCH   6   7
ENDBRANCH   5   6
ENDBRANCH   4   5
ENDBRANCH   3   4
ENDBRANCH   2   3
TORSDOF 9
ENDMDL
MODEL       65
REMARK 921   NORMALIZED FREE ENERGY PREDICTED BY IDOCK:   -3.81 KCAL/MOL
REMARK 922        TOTAL FREE ENERGY PREDICTED BY IDOCK:   -6.36 KCAL/MOL
REMARK 923 INTER-LIGAND FREE ENERGY PREDICTED BY IDOCK:   -5.85 KCAL/MOL
REMARK 924 INTRA-LIGAND FREE ENERGY PREDICTED BY IDOCK:   -0.51 KCAL/MOL
REMARK 927      BINDING AFFINITY PREDICTED BY RF-SCORE:    0.00 PKD
ROOT
HETATM    1  C   UNL     1     -10.054   8.263  72.424  1.00  0.00    -0.383 C  
HETATM    2  C   UNL     1     -11.099   9.078  71.681  1.00  0.00    -0.433 C  
ENDROOT
BRANCH   2   3
HETATM    3  C   UNL     1     -12.495   8.842  72.255  1.00  0.00    -0.455 C  
BRANCH   3   4
HETATM    4  C   UNL     1     -13.434  10.000  71.927  1.00  0.00    -0.449 C  
BRANCH   4   5
HETATM    5  C   UNL     1     -12.678  11.144  71.252  1.00  0.00    -0.531 C  
BRANCH   5   6
HETATM    6  C   UNL     1     -13.108  12.496  71.817  1.00  0.00    -0.450 C  
BRANCH   6   7
HETATM    7  C   UNL     1     -12.607  13.644  70.941  1.00  0.00    -0.421 C  
BRANCH   7   8
HETATM    8  C   UNL     1     -12.014  13.112  69.637  1.00  0.00    -0.370 C  
BRANCH   8   9
HETATM    9  C   UNL     1     -11.855  14.224  68.601  1.00  0.00    -0.379 C  
BRANCH   9  10
HETATM   10  C   UNL     1     -11.311  13.665  67.286  1.00  0.00    -0.346 C  
BRANCH  10  11
HETATM   11  C   UNL     1     -11.816  14.463  66.087  1.00  0.00    -0.391 C  
HETATM   12  C   UNL     1     -10.714  15.288  65.462  1.00  0.00    -0.371 C  
HETATM   13  O   UNL     1     -11.150  16.000  64.396  1.00  0.00    -0.560 OA 
HETATM   14  O   UNL     1      -9.557  15.332  65.845  1.00  0.00    -0.313 OA 
ENDBRANCH  10  11
ENDBRANCH   9  10
ENDBRANCH   8   9
ENDBRANCH   7   8
ENDBRANCH   6   7
ENDBRANCH   5   6
ENDBRANCH   4   5
ENDBRANCH   3   4
ENDBRANCH   2   3
TORSDOF 9
ENDMDL
MODEL       66
REMARK 921   NORMALIZED FREE ENERGY PREDICTED BY IDOCK:   -3.81 KCAL/MOL
REMARK 922        TOTAL FREE ENERGY PREDICTED BY IDOCK:   -6.36 KCAL/MOL
REMARK 923 INTER-LIGAND FREE ENERGY PREDICTED BY IDOCK:   -5.16 KCAL/MOL
REMARK 924 INTRA-LIGAND FREE ENERGY PREDICTED BY IDOCK:   -1.20 KCAL/MOL
REMARK 927      BINDING AFFINITY PREDICTED BY RF-SCORE:    0.00 PKD
ROOT
HETATM    1  C   UNL     1     -11.031  15.495  65.100  1.00  0.00    -0.422 C  
HETATM    2  C   UNL     1     -12.213  14.783  64.462  1.00  0.00    -0.443 C  
ENDROOT
BRANCH   2   3
HETATM    3  C   UNL     1     -12.554  13.497  65.212  1.00  0.00    -0.517 C  
BRANCH   3   4
HETATM    4  C   UNL     1     -12.485  12.282  64.290  1.00  0.00    -0.508 C  
BRANCH   4   5
HETATM    5  C   UNL     1     -11.084  12.118  63.704  1.00  0.00    -0.528 C  
BRANCH   5   6
HETATM    6  C   UNL     1     -10.346  10.951  64.358  1.00  0.00    -0.430 C  
BRANCH   6   7
HETATM    7  C   UNL     1      -9.715  11.371  65.684  1.00  0.00    -0.263 C  
BRANCH   7   8
HETATM    8  C   UNL     1     -10.108  10.406  66.802  1.00  0.00    -0.267 C  
BRANCH   8   9
HETATM    9  C   UNL     1     -11.284  10.944  67.616  1.00  0.00    -0.379 C  
BRANCH   9  10
HETATM   10  C   UNL     1     -10.787  11.728  68.831  1.00  0.00    -0.265 C  
BRANCH  10  11
HETATM   11  C   UNL     1     -11.585  13.013  69.034  1.00  0.00    -0.367 C  
HETATM   12  C   UNL     1     -10.798  14.232  68.608  1.00  0.00    -0.253 C  
HETATM   13  O   UNL     1     -11.497  15.378  68.783  1.00  0.00    -0.301 OA 
HETATM   14  O   UNL     1      -9.665  14.223  68.157  1.00  0.00    -0.213 OA 
ENDBRANCH  10  11
ENDBRANCH   9  10
ENDBRANCH   8   9
ENDBRANCH   7   8
ENDBRANCH   6   7
ENDBRANCH   5   6
ENDBRANCH   4   5
ENDBRANCH   3   4
ENDBRANCH   2   3
TORSDOF 9
ENDMDL
MODEL       67
REMARK 921   NORMALIZED FREE ENERGY PREDICTED BY IDOCK:   -3.80 KCAL/MOL
REMARK 922        TOTAL FREE ENERGY PREDICTED BY IDOCK:   -6.35 KCAL/MOL
REMARK 923 INTER-LIGAND FREE ENERGY PREDICTED BY IDOCK:   -5.11 KCAL/MOL
REMARK 924 INTRA-LIGAND FREE ENERGY PREDICTED BY IDOCK:   -1.23 KCAL/MOL
REMARK 927      BINDING AFFINITY PREDICTED BY RF-SCORE:    0.00 PKD
ROOT
HETATM    1  C   UNL     1     -12.811  13.839  65.306  1.00  0.00    -0.430 C  
HETATM    2  C   UNL     1     -11.988  13.586  64.053  1.00  0.00    -0.501 C  
ENDROOT
BRANCH   2   3
HETATM    3  C   UNL     1     -11.936  12.097  63.716  1.00  0.00    -0.607 C  
BRANCH   3   4
HETATM    4  C   UNL     1     -10.544  11.519  63.964  1.00  0.00    -0.437 C  
BRANCH   4   5
HETATM    5  C   UNL     1     -10.351  11.171  65.440  1.00  0.00    -0.331 C  
BRANCH   5   6
HETATM    6  C   UNL     1      -9.318  12.088  66.091  1.00  0.00    -0.217 C  
BRANCH   6   7
HETATM    7  C   UNL     1      -9.782  12.549  67.472  1.00  0.00    -0.196 C  
BRANCH   7   8
HETATM    8  C   UNL     1      -9.932  14.069  67.514  1.00  0.00    -0.236 C  
BRANCH   8   9
HETATM    9  C   UNL     1      -9.320  14.725  66.278  1.00  0.00    -0.310 C  
BRANCH   9  10
HETATM   10  C   UNL     1      -9.895  16.126  66.067  1.00  0.00    -0.375 C  
BRANCH  10  11
HETATM   11  C   UNL     1      -9.960  16.908  67.375  1.00  0.00    -0.269 C  
HETATM   12  C   UNL     1     -10.248  18.373  67.137  1.00  0.00    -0.374 C  
HETATM   13  O   UNL     1     -10.309  19.077  68.292  1.00  0.00    -0.373 OA 
HETATM   14  O   UNL     1     -10.413  18.894  66.047  1.00  0.00    -0.455 OA 
ENDBRANCH  10  11
ENDBRANCH   9  10
ENDBRANCH   8   9
ENDBRANCH   7   8
ENDBRANCH   6   7
ENDBRANCH   5   6
ENDBRANCH   4   5
ENDBRANCH   3   4
ENDBRANCH   2   3
TORSDOF 9
ENDMDL
MODEL       68
REMARK 921   NORMALIZED FREE ENERGY PREDICTED BY IDOCK:   -3.79 KCAL/MOL
REMARK 922        TOTAL FREE ENERGY PREDICTED BY IDOCK:   -6.34 KCAL/MOL
REMARK 923 INTER-LIGAND FREE ENERGY PREDICTED BY IDOCK:   -5.24 KCAL/MOL
REMARK 924 INTRA-LIGAND FREE ENERGY PREDICTED BY IDOCK:   -1.10 KCAL/MOL
REMARK 927      BINDING AFFINITY PREDICTED BY RF-SCORE:    0.00 PKD
ROOT
HETATM    1  C   UNL     1     -12.834  11.071  71.364  1.00  0.00    -0.548 C  
HETATM    2  C   UNL     1     -13.211   9.646  71.736  1.00  0.00    -0.520 C  
ENDROOT
BRANCH   2   3
HETATM    3  C   UNL     1     -11.981   8.838  72.144  1.00  0.00    -0.436 C  
BRANCH   3   4
HETATM    4  C   UNL     1     -11.781   7.631  71.231  1.00  0.00    -0.308 C  
BRANCH   4   5
HETATM    5  C   UNL     1     -10.556   7.818  70.336  1.00  0.00    -0.227 C  
BRANCH   5   6
HETATM    6  C   UNL     1      -9.781   9.076  70.721  1.00  0.00    -0.306 C  
BRANCH   6   7
HETATM    7  C   UNL     1      -9.685  10.047  69.545  1.00  0.00    -0.253 C  
BRANCH   7   8
HETATM    8  C   UNL     1     -10.188   9.392  68.259  1.00  0.00    -0.229 C  
BRANCH   8   9
HETATM    9  C   UNL     1     -10.590  10.437  67.220  1.00  0.00    -0.322 C  
BRANCH   9  10
HETATM   10  C   UNL     1     -11.756  11.286  67.729  1.00  0.00    -0.254 C  
BRANCH  10  11
HETATM   11  C   UNL     1     -11.495  12.775  67.525  1.00  0.00    -0.390 C  
HETATM   12  C   UNL     1     -12.054  13.264  66.208  1.00  0.00    -0.414 C  
HETATM   13  O   UNL     1     -11.829  14.586  66.017  1.00  0.00    -0.373 OA 
HETATM   14  O   UNL     1     -12.644  12.579  65.390  1.00  0.00    -0.656 OA 
ENDBRANCH  10  11
ENDBRANCH   9  10
ENDBRANCH   8   9
ENDBRANCH   7   8
ENDBRANCH   6   7
ENDBRANCH   5   6
ENDBRANCH   4   5
ENDBRANCH   3   4
ENDBRANCH   2   3
TORSDOF 9
ENDMDL
MODEL       69
REMARK 921   NORMALIZED FREE ENERGY PREDICTED BY IDOCK:   -3.79 KCAL/MOL
REMARK 922        TOTAL FREE ENERGY PREDICTED BY IDOCK:   -6.32 KCAL/MOL
REMARK 923 INTER-LIGAND FREE ENERGY PREDICTED BY IDOCK:   -5.63 KCAL/MOL
REMARK 924 INTRA-LIGAND FREE ENERGY PREDICTED BY IDOCK:   -0.70 KCAL/MOL
REMARK 927      BINDING AFFINITY PREDICTED BY RF-SCORE:    0.00 PKD
ROOT
HETATM    1  C   UNL     1     -12.042  12.493  63.442  1.00  0.00    -0.621 C  
HETATM    2  C   UNL     1     -11.728  13.569  64.468  1.00  0.00    -0.431 C  
ENDROOT
BRANCH   2   3
HETATM    3  C   UNL     1     -12.783  13.604  65.572  1.00  0.00    -0.514 C  
BRANCH   3   4
HETATM    4  C   UNL     1     -12.196  14.118  66.885  1.00  0.00    -0.400 C  
BRANCH   4   5
HETATM    5  C   UNL     1     -11.059  13.218  67.366  1.00  0.00    -0.300 C  
BRANCH   5   6
HETATM    6  C   UNL     1     -11.593  11.878  67.868  1.00  0.00    -0.393 C  
BRANCH   6   7
HETATM    7  C   UNL     1     -10.848  10.710  67.222  1.00  0.00    -0.345 C  
BRANCH   7   8
HETATM    8  C   UNL     1     -10.631   9.581  68.228  1.00  0.00    -0.260 C  
BRANCH   8   9
HETATM    9  C   UNL     1     -10.693  10.096  69.666  1.00  0.00    -0.295 C  
BRANCH   9  10
HETATM   10  C   UNL     1     -11.206   9.007  70.609  1.00  0.00    -0.318 C  
BRANCH  10  11
HETATM   11  C   UNL     1     -12.398   9.493  71.428  1.00  0.00    -0.451 C  
HETATM   12  C   UNL     1     -13.318   8.354  71.805  1.00  0.00    -0.357 C  
HETATM   13  O   UNL     1     -14.380   8.774  72.533  1.00  0.00    -0.562 OA 
HETATM   14  O   UNL     1     -13.156   7.183  71.505  1.00  0.00    -0.381 OA 
ENDBRANCH  10  11
ENDBRANCH   9  10
ENDBRANCH   8   9
ENDBRANCH   7   8
ENDBRANCH   6   7
ENDBRANCH   5   6
ENDBRANCH   4   5
ENDBRANCH   3   4
ENDBRANCH   2   3
TORSDOF 9
ENDMDL
MODEL       70
REMARK 921   NORMALIZED FREE ENERGY PREDICTED BY IDOCK:   -3.78 KCAL/MOL
REMARK 922        TOTAL FREE ENERGY PREDICTED BY IDOCK:   -6.32 KCAL/MOL
REMARK 923 INTER-LIGAND FREE ENERGY PREDICTED BY IDOCK:   -5.13 KCAL/MOL
REMARK 924 INTRA-LIGAND FREE ENERGY PREDICTED BY IDOCK:   -1.19 KCAL/MOL
REMARK 927      BINDING AFFINITY PREDICTED BY RF-SCORE:    0.00 PKD
ROOT
HETATM    1  C   UNL     1      -9.862   8.762  71.820  1.00  0.00    -0.391 C  
HETATM    2  C   UNL     1     -10.624   7.693  71.055  1.00  0.00    -0.226 C  
ENDROOT
BRANCH   2   3
HETATM    3  C   UNL     1     -11.637   6.986  71.953  1.00  0.00    -0.320 C  
BRANCH   3   4
HETATM    4  C   UNL     1     -13.068   7.238  71.484  1.00  0.00    -0.434 C  
BRANCH   4   5
HETATM    5  C   UNL     1     -13.663   8.464  72.175  1.00  0.00    -0.378 C  
BRANCH   5   6
HETATM    6  C   UNL     1     -13.711   9.661  71.228  1.00  0.00    -0.222 C  
BRANCH   6   7
HETATM    7  C   UNL     1     -13.041  10.885  71.851  1.00  0.00    -0.537 C  
BRANCH   7   8
HETATM    8  C   UNL     1     -12.265  11.674  70.798  1.00  0.00    -0.443 C  
BRANCH   8   9
HETATM    9  C   UNL     1     -12.058  10.854  69.526  1.00  0.00    -0.380 C  
BRANCH   9  10
HETATM   10  C   UNL     1     -11.001  11.501  68.630  1.00  0.00    -0.270 C  
BRANCH  10  11
HETATM   11  C   UNL     1     -11.614  12.041  67.341  1.00  0.00    -0.388 C  
HETATM   12  C   UNL     1     -11.980  13.503  67.467  1.00  0.00    -0.346 C  
HETATM   13  O   UNL     1     -12.524  13.994  66.328  1.00  0.00    -0.465 OA 
HETATM   14  O   UNL     1     -11.818  14.191  68.461  1.00  0.00    -0.329 OA 
ENDBRANCH  10  11
ENDBRANCH   9  10
ENDBRANCH   8   9
ENDBRANCH   7   8
ENDBRANCH   6   7
ENDBRANCH   5   6
ENDBRANCH   4   5
ENDBRANCH   3   4
ENDBRANCH   2   3
TORSDOF 9
ENDMDL
MODEL       71
REMARK 921   NORMALIZED FREE ENERGY PREDICTED BY IDOCK:   -3.77 KCAL/MOL
REMARK 922        TOTAL FREE ENERGY PREDICTED BY IDOCK:   -6.30 KCAL/MOL
REMARK 923 INTER-LIGAND FREE ENERGY PREDICTED BY IDOCK:   -5.40 KCAL/MOL
REMARK 924 INTRA-LIGAND FREE ENERGY PREDICTED BY IDOCK:   -0.89 KCAL/MOL
REMARK 927      BINDING AFFINITY PREDICTED BY RF-SCORE:    0.00 PKD
ROOT
HETATM    1  C   UNL     1      -8.936  10.823  65.484  1.00  0.00    -0.210 C  
HETATM    2  C   UNL     1      -9.755  10.463  64.254  1.00  0.00    -0.389 C  
ENDROOT
BRANCH   2   3
HETATM    3  C   UNL     1     -10.260  11.715  63.541  1.00  0.00    -0.474 C  
BRANCH   3   4
HETATM    4  C   UNL     1     -11.770  11.877  63.702  1.00  0.00    -0.572 C  
BRANCH   4   5
HETATM    5  C   UNL     1     -12.191  13.329  63.486  1.00  0.00    -0.513 C  
BRANCH   5   6
HETATM    6  C   UNL     1     -12.279  14.080  64.813  1.00  0.00    -0.454 C  
BRANCH   6   7
HETATM    7  C   UNL     1     -11.065  14.986  65.015  1.00  0.00    -0.421 C  
BRANCH   7   8
HETATM    8  C   UNL     1     -10.254  14.541  66.232  1.00  0.00    -0.306 C  
BRANCH   8   9
HETATM    9  C   UNL     1     -11.142  13.876  67.282  1.00  0.00    -0.312 C  
BRANCH   9  10
HETATM   10  C   UNL     1     -11.572  14.886  68.346  1.00  0.00    -0.348 C  
BRANCH  10  11
HETATM   11  C   UNL     1     -12.172  14.193  69.566  1.00  0.00    -0.351 C  
HETATM   12  C   UNL     1     -12.027  15.035  70.814  1.00  0.00    -0.318 C  
HETATM   13  O   UNL     1     -12.556  14.430  71.903  1.00  0.00    -0.333 OA 
HETATM   14  O   UNL     1     -11.500  16.134  70.871  1.00  0.00    -0.403 OA 
ENDBRANCH  10  11
ENDBRANCH   9  10
ENDBRANCH   8   9
ENDBRANCH   7   8
ENDBRANCH   6   7
ENDBRANCH   5   6
ENDBRANCH   4   5
ENDBRANCH   3   4
ENDBRANCH   2   3
TORSDOF 9
ENDMDL
MODEL       72
REMARK 921   NORMALIZED FREE ENERGY PREDICTED BY IDOCK:   -3.76 KCAL/MOL
REMARK 922        TOTAL FREE ENERGY PREDICTED BY IDOCK:   -6.28 KCAL/MOL
REMARK 923 INTER-LIGAND FREE ENERGY PREDICTED BY IDOCK:   -5.44 KCAL/MOL
REMARK 924 INTRA-LIGAND FREE ENERGY PREDICTED BY IDOCK:   -0.84 KCAL/MOL
REMARK 927      BINDING AFFINITY PREDICTED BY RF-SCORE:    0.00 PKD
ROOT
HETATM    1  C   UNL     1     -11.004   6.333  67.734  1.00  0.00    -0.427 C  
HETATM    2  C   UNL     1     -11.100   6.326  69.251  1.00  0.00    -0.461 C  
ENDROOT
BRANCH   2   3
HETATM    3  C   UNL     1     -10.077   5.373  69.866  1.00  0.00    -0.322 C  
BRANCH   3   4
HETATM    4  C   UNL     1      -9.817   5.708  71.333  1.00  0.00    -0.221 C  
BRANCH   4   5
HETATM    5  C   UNL     1     -11.119   6.052  72.055  1.00  0.00    -0.325 C  
BRANCH   5   6
HETATM    6  C   UNL     1     -10.931   7.245  72.990  1.00  0.00    -0.388 C  
BRANCH   6   7
HETATM    7  C   UNL     1     -11.176   8.563  72.257  1.00  0.00    -0.432 C  
BRANCH   7   8
HETATM    8  C   UNL     1     -12.665   8.755  71.971  1.00  0.00    -0.444 C  
BRANCH   8   9
HETATM    9  C   UNL     1     -12.916  10.012  71.139  1.00  0.00    -0.478 C  
BRANCH   9  10
HETATM   10  C   UNL     1     -11.598  10.593  70.624  1.00  0.00    -0.432 C  
BRANCH  10  11
HETATM   11  C   UNL     1     -11.829  11.841  69.777  1.00  0.00    -0.420 C  
HETATM   12  C   UNL     1     -11.767  11.531  68.298  1.00  0.00    -0.301 C  
HETATM   13  O   UNL     1     -11.971  12.631  67.536  1.00  0.00    -0.382 OA 
HETATM   14  O   UNL     1     -11.559  10.431  67.812  1.00  0.00    -0.405 OA 
ENDBRANCH  10  11
ENDBRANCH   9  10
ENDBRANCH   8   9
ENDBRANCH   7   8
ENDBRANCH   6   7
ENDBRANCH   5   6
ENDBRANCH   4   5
ENDBRANCH   3   4
ENDBRANCH   2   3
TORSDOF 9
ENDMDL
MODEL       73
REMARK 921   NORMALIZED FREE ENERGY PREDICTED BY IDOCK:   -3.74 KCAL/MOL
REMARK 922        TOTAL FREE ENERGY PREDICTED BY IDOCK:   -6.25 KCAL/MOL
REMARK 923 INTER-LIGAND FREE ENERGY PREDICTED BY IDOCK:   -5.71 KCAL/MOL
REMARK 924 INTRA-LIGAND FREE ENERGY PREDICTED BY IDOCK:   -0.54 KCAL/MOL
REMARK 927      BINDING AFFINITY PREDICTED BY RF-SCORE:    0.00 PKD
ROOT
HETATM    1  C   UNL     1     -13.300  15.708  73.064  1.00  0.00    -0.668 C  
HETATM    2  C   UNL     1     -13.596  14.358  72.429  1.00  0.00    -0.578 C  
ENDROOT
BRANCH   2   3
HETATM    3  C   UNL     1     -12.989  14.260  71.031  1.00  0.00    -0.411 C  
BRANCH   3   4
HETATM    4  C   UNL     1     -12.359  15.585  70.604  1.00  0.00    -0.462 C  
BRANCH   4   5
HETATM    5  C   UNL     1     -11.814  15.497  69.180  1.00  0.00    -0.373 C  
BRANCH   5   6
HETATM    6  C   UNL     1     -12.019  14.100  68.597  1.00  0.00    -0.373 C  
BRANCH   6   7
HETATM    7  C   UNL     1     -11.422  13.995  67.194  1.00  0.00    -0.373 C  
BRANCH   7   8
HETATM    8  C   UNL     1     -12.500  14.199  66.130  1.00  0.00    -0.426 C  
BRANCH   8   9
HETATM    9  C   UNL     1     -12.474  13.083  65.087  1.00  0.00    -0.552 C  
BRANCH   9  10
HETATM   10  C   UNL     1     -11.054  12.860  64.568  1.00  0.00    -0.373 C  
BRANCH  10  11
HETATM   11  C   UNL     1     -10.747  11.375  64.396  1.00  0.00    -0.405 C  
HETATM   12  C   UNL     1      -9.829  10.864  65.483  1.00  0.00    -0.246 C  
HETATM   13  O   UNL     1      -9.551   9.546  65.341  1.00  0.00    -0.276 OA 
HETATM   14  O   UNL     1      -9.373  11.531  66.397  1.00  0.00    -0.197 OA 
ENDBRANCH  10  11
ENDBRANCH   9  10
ENDBRANCH   8   9
ENDBRANCH   7   8
ENDBRANCH   6   7
ENDBRANCH   5   6
ENDBRANCH   4   5
ENDBRANCH   3   4
ENDBRANCH   2   3
TORSDOF 9
ENDMDL
MODEL       74
REMARK 921   NORMALIZED FREE ENERGY PREDICTED BY IDOCK:   -3.73 KCAL/MOL
REMARK 922        TOTAL FREE ENERGY PREDICTED BY IDOCK:   -6.24 KCAL/MOL
REMARK 923 INTER-LIGAND FREE ENERGY PREDICTED BY IDOCK:   -5.23 KCAL/MOL
REMARK 924 INTRA-LIGAND FREE ENERGY PREDICTED BY IDOCK:   -1.01 KCAL/MOL
REMARK 927      BINDING AFFINITY PREDICTED BY RF-SCORE:    0.00 PKD
ROOT
HETATM    1  C   UNL     1     -10.402  12.749  68.562  1.00  0.00    -0.231 C  
HETATM    2  C   UNL     1     -11.746  12.691  67.854  1.00  0.00    -0.412 C  
ENDROOT
BRANCH   2   3
HETATM    3  C   UNL     1     -11.571  12.497  66.349  1.00  0.00    -0.449 C  
BRANCH   3   4
HETATM    4  C   UNL     1     -10.468  13.398  65.798  1.00  0.00    -0.291 C  
BRANCH   4   5
HETATM    5  C   UNL     1     -11.048  14.475  64.882  1.00  0.00    -0.401 C  
BRANCH   5   6
HETATM    6  C   UNL     1     -10.539  15.861  65.272  1.00  0.00    -0.441 C  
BRANCH   6   7
HETATM    7  C   UNL     1      -9.809  15.823  66.614  1.00  0.00    -0.266 C  
BRANCH   7   8
HETATM    8  C   UNL     1     -10.584  16.603  67.675  1.00  0.00    -0.321 C  
BRANCH   8   9
HETATM    9  C   UNL     1      -9.642  17.321  68.640  1.00  0.00    -0.284 C  
BRANCH   9  10
HETATM   10  C   UNL     1      -9.586  18.817  68.330  1.00  0.00    -0.395 C  
BRANCH  10  11
HETATM   11  C   UNL     1     -10.672  19.224  67.338  1.00  0.00    -0.594 C  
HETATM   12  C   UNL     1     -10.087  19.616  66.000  1.00  0.00    -0.461 C  
HETATM   13  O   UNL     1     -11.042  19.978  65.110  1.00  0.00    -0.289 OA 
HETATM   14  O   UNL     1      -8.900  19.619  65.718  1.00  0.00    -0.393 OA 
ENDBRANCH  10  11
ENDBRANCH   9  10
ENDBRANCH   8   9
ENDBRANCH   7   8
ENDBRANCH   6   7
ENDBRANCH   5   6
ENDBRANCH   4   5
ENDBRANCH   3   4
ENDBRANCH   2   3
TORSDOF 9
ENDMDL
MODEL       75
REMARK 921   NORMALIZED FREE ENERGY PREDICTED BY IDOCK:   -3.72 KCAL/MOL
REMARK 922        TOTAL FREE ENERGY PREDICTED BY IDOCK:   -6.22 KCAL/MOL
REMARK 923 INTER-LIGAND FREE ENERGY PREDICTED BY IDOCK:   -5.31 KCAL/MOL
REMARK 924 INTRA-LIGAND FREE ENERGY PREDICTED BY IDOCK:   -0.91 KCAL/MOL
REMARK 927      BINDING AFFINITY PREDICTED BY RF-SCORE:    0.00 PKD
ROOT
HETATM    1  C   UNL     1     -11.981  13.975  64.432  1.00  0.00    -0.480 C  
HETATM    2  C   UNL     1     -11.911  12.664  63.666  1.00  0.00    -0.615 C  
ENDROOT
BRANCH   2   3
HETATM    3  C   UNL     1     -10.466  12.205  63.488  1.00  0.00    -0.490 C  
BRANCH   3   4
HETATM    4  C   UNL     1     -10.176  10.951  64.310  1.00  0.00    -0.430 C  
BRANCH   4   5
HETATM    5  C   UNL     1      -9.656  11.316  65.700  1.00  0.00    -0.260 C  
BRANCH   5   6
HETATM    6  C   UNL     1      -9.843  10.159  66.679  1.00  0.00    -0.253 C  
BRANCH   6   7
HETATM    7  C   UNL     1     -11.049  10.395  67.588  1.00  0.00    -0.361 C  
BRANCH   7   8
HETATM    8  C   UNL     1     -11.523  11.845  67.494  1.00  0.00    -0.396 C  
BRANCH   8   9
HETATM    9  C   UNL     1     -11.291  12.594  68.805  1.00  0.00    -0.333 C  
BRANCH   9  10
HETATM   10  C   UNL     1     -12.152  13.856  68.867  1.00  0.00    -0.355 C  
BRANCH  10  11
HETATM   11  C   UNL     1     -11.570  14.974  68.006  1.00  0.00    -0.356 C  
HETATM   12  C   UNL     1     -11.010  16.096  68.851  1.00  0.00    -0.324 C  
HETATM   13  O   UNL     1     -10.490  17.093  68.097  1.00  0.00    -0.330 OA 
HETATM   14  O   UNL     1     -11.010  16.133  70.070  1.00  0.00    -0.326 OA 
ENDBRANCH  10  11
ENDBRANCH   9  10
ENDBRANCH   8   9
ENDBRANCH   7   8
ENDBRANCH   6   7
ENDBRANCH   5   6
ENDBRANCH   4   5
ENDBRANCH   3   4
ENDBRANCH   2   3
TORSDOF 9
ENDMDL
MODEL       76
REMARK 921   NORMALIZED FREE ENERGY PREDICTED BY IDOCK:   -3.72 KCAL/MOL
REMARK 922        TOTAL FREE ENERGY PREDICTED BY IDOCK:   -6.22 KCAL/MOL
REMARK 923 INTER-LIGAND FREE ENERGY PREDICTED BY IDOCK:   -5.53 KCAL/MOL
REMARK 924 INTRA-LIGAND FREE ENERGY PREDICTED BY IDOCK:   -0.69 KCAL/MOL
REMARK 927      BINDING AFFINITY PREDICTED BY RF-SCORE:    0.00 PKD
ROOT
HETATM    1  C   UNL     1     -10.918  11.542  64.072  1.00  0.00    -0.454 C  
HETATM    2  C   UNL     1     -10.076  11.140  65.271  1.00  0.00    -0.329 C  
ENDROOT
BRANCH   2   3
HETATM    3  C   UNL     1      -9.475   9.749  65.083  1.00  0.00    -0.338 C  
BRANCH   3   4
HETATM    4  C   UNL     1      -9.608   8.910  66.352  1.00  0.00    -0.304 C  
BRANCH   4   5
HETATM    5  C   UNL     1     -10.731   9.440  67.243  1.00  0.00    -0.258 C  
BRANCH   5   6
HETATM    6  C   UNL     1     -10.350   9.351  68.720  1.00  0.00    -0.230 C  
BRANCH   6   7
HETATM    7  C   UNL     1     -11.015  10.464  69.528  1.00  0.00    -0.307 C  
BRANCH   7   8
HETATM    8  C   UNL     1     -11.676  11.486  68.603  1.00  0.00    -0.389 C  
BRANCH   8   9
HETATM    9  C   UNL     1     -11.647  12.888  69.209  1.00  0.00    -0.368 C  
BRANCH   9  10
HETATM   10  C   UNL     1     -12.305  12.896  70.589  1.00  0.00    -0.385 C  
BRANCH  10  11
HETATM   11  C   UNL     1     -12.552  14.318  71.084  1.00  0.00    -0.432 C  
HETATM   12  C   UNL     1     -13.609  14.358  72.164  1.00  0.00    -0.435 C  
HETATM   13  O   UNL     1     -13.836  15.615  72.612  1.00  0.00    -0.552 OA 
HETATM   14  O   UNL     1     -14.208  13.391  72.606  1.00  0.00    -0.747 OA 
ENDBRANCH  10  11
ENDBRANCH   9  10
ENDBRANCH   8   9
ENDBRANCH   7   8
ENDBRANCH   6   7
ENDBRANCH   5   6
ENDBRANCH   4   5
ENDBRANCH   3   4
ENDBRANCH   2   3
TORSDOF 9
ENDMDL
MODEL       77
REMARK 921   NORMALIZED FREE ENERGY PREDICTED BY IDOCK:   -3.71 KCAL/MOL
REMARK 922        TOTAL FREE ENERGY PREDICTED BY IDOCK:   -6.21 KCAL/MOL
REMARK 923 INTER-LIGAND FREE ENERGY PREDICTED BY IDOCK:   -5.76 KCAL/MOL
REMARK 924 INTRA-LIGAND FREE ENERGY PREDICTED BY IDOCK:   -0.45 KCAL/MOL
REMARK 927      BINDING AFFINITY PREDICTED BY RF-SCORE:    0.00 PKD
ROOT
HETATM    1  C   UNL     1      -9.375  15.919  65.868  1.00  0.00    -0.353 C  
HETATM    2  C   UNL     1     -10.691  16.104  65.131  1.00  0.00    -0.391 C  
ENDROOT
BRANCH   2   3
HETATM    3  C   UNL     1     -11.348  14.759  64.827  1.00  0.00    -0.399 C  
BRANCH   3   4
HETATM    4  C   UNL     1     -12.017  14.174  66.069  1.00  0.00    -0.427 C  
BRANCH   4   5
HETATM    5  C   UNL     1     -11.355  12.860  66.479  1.00  0.00    -0.361 C  
BRANCH   5   6
HETATM    6  C   UNL     1     -11.537  12.595  67.972  1.00  0.00    -0.394 C  
BRANCH   6   7
HETATM    7  C   UNL     1     -10.517  13.377  68.799  1.00  0.00    -0.203 C  
BRANCH   7   8
HETATM    8  C   UNL     1     -11.166  14.602  69.443  1.00  0.00    -0.307 C  
BRANCH   8   9
HETATM    9  C   UNL     1     -12.025  14.211  70.644  1.00  0.00    -0.385 C  
BRANCH   9  10
HETATM   10  C   UNL     1     -13.249  15.121  70.753  1.00  0.00    -0.433 C  
BRANCH  10  11
HETATM   11  C   UNL     1     -13.726  15.249  72.197  1.00  0.00    -0.598 C  
HETATM   12  C   UNL     1     -12.729  16.002  73.049  1.00  0.00    -0.493 C  
HETATM   13  O   UNL     1     -13.142  16.123  74.333  1.00  0.00    -0.516 OA 
HETATM   14  O   UNL     1     -11.668  16.461  72.660  1.00  0.00    -0.501 OA 
ENDBRANCH  10  11
ENDBRANCH   9  10
ENDBRANCH   8   9
ENDBRANCH   7   8
ENDBRANCH   6   7
ENDBRANCH   5   6
ENDBRANCH   4   5
ENDBRANCH   3   4
ENDBRANCH   2   3
TORSDOF 9
ENDMDL
MODEL       78
REMARK 921   NORMALIZED FREE ENERGY PREDICTED BY IDOCK:   -3.71 KCAL/MOL
REMARK 922        TOTAL FREE ENERGY PREDICTED BY IDOCK:   -6.20 KCAL/MOL
REMARK 923 INTER-LIGAND FREE ENERGY PREDICTED BY IDOCK:   -5.23 KCAL/MOL
REMARK 924 INTRA-LIGAND FREE ENERGY PREDICTED BY IDOCK:   -0.97 KCAL/MOL
REMARK 927      BINDING AFFINITY PREDICTED BY RF-SCORE:    0.00 PKD
ROOT
HETATM    1  C   UNL     1     -12.438  13.476  65.418  1.00  0.00    -0.540 C  
HETATM    2  C   UNL     1     -11.224  14.122  64.770  1.00  0.00    -0.379 C  
ENDROOT
BRANCH   2   3
HETATM    3  C   UNL     1     -10.335  13.078  64.097  1.00  0.00    -0.345 C  
BRANCH   3   4
HETATM    4  C   UNL     1     -11.057  11.739  63.959  1.00  0.00    -0.461 C  
BRANCH   4   5
HETATM    5  C   UNL     1     -10.159  10.585  64.403  1.00  0.00    -0.395 C  
BRANCH   5   6
HETATM    6  C   UNL     1      -9.512  10.879  65.754  1.00  0.00    -0.246 C  
BRANCH   6   7
HETATM    7  C   UNL     1     -10.423  10.455  66.906  1.00  0.00    -0.300 C  
BRANCH   7   8
HETATM    8  C   UNL     1     -10.690  11.629  67.847  1.00  0.00    -0.241 C  
BRANCH   8   9
HETATM    9  C   UNL     1     -12.031  11.476  68.563  1.00  0.00    -0.293 C  
BRANCH   9  10
HETATM   10  C   UNL     1     -11.844  11.534  70.080  1.00  0.00    -0.435 C  
BRANCH  10  11
HETATM   11  C   UNL     1     -11.372  10.194  70.637  1.00  0.00    -0.433 C  
HETATM   12  C   UNL     1     -12.335   9.647  71.666  1.00  0.00    -0.404 C  
HETATM   13  O   UNL     1     -11.927   8.457  72.167  1.00  0.00    -0.326 OA 
HETATM   14  O   UNL     1     -13.367  10.186  72.028  1.00  0.00    -0.434 OA 
ENDBRANCH  10  11
ENDBRANCH   9  10
ENDBRANCH   8   9
ENDBRANCH   7   8
ENDBRANCH   6   7
ENDBRANCH   5   6
ENDBRANCH   4   5
ENDBRANCH   3   4
ENDBRANCH   2   3
TORSDOF 9
ENDMDL
MODEL       79
REMARK 921   NORMALIZED FREE ENERGY PREDICTED BY IDOCK:   -3.70 KCAL/MOL
REMARK 922        TOTAL FREE ENERGY PREDICTED BY IDOCK:   -6.19 KCAL/MOL
REMARK 923 INTER-LIGAND FREE ENERGY PREDICTED BY IDOCK:   -5.30 KCAL/MOL
REMARK 924 INTRA-LIGAND FREE ENERGY PREDICTED BY IDOCK:   -0.89 KCAL/MOL
REMARK 927      BINDING AFFINITY PREDICTED BY RF-SCORE:    0.00 PKD
ROOT
HETATM    1  C   UNL     1      -9.746   9.351  65.995  1.00  0.00    -0.345 C  
HETATM    2  C   UNL     1     -10.273  10.560  66.751  1.00  0.00    -0.288 C  
ENDROOT
BRANCH   2   3
HETATM    3  C   UNL     1     -11.157  10.136  67.922  1.00  0.00    -0.303 C  
BRANCH   3   4
HETATM    4  C   UNL     1     -10.754  10.851  69.210  1.00  0.00    -0.271 C  
BRANCH   4   5
HETATM    5  C   UNL     1     -11.858  11.796  69.681  1.00  0.00    -0.407 C  
BRANCH   5   6
HETATM    6  C   UNL     1     -11.377  13.246  69.684  1.00  0.00    -0.191 C  
BRANCH   6   7
HETATM    7  C   UNL     1     -11.828  13.979  68.421  1.00  0.00    -0.397 C  
BRANCH   7   8
HETATM    8  C   UNL     1     -10.690  14.055  67.403  1.00  0.00    -0.285 C  
BRANCH   8   9
HETATM    9  C   UNL     1     -10.751  15.349  66.594  1.00  0.00    -0.309 C  
BRANCH   9  10
HETATM   10  C   UNL     1     -11.072  15.057  65.128  1.00  0.00    -0.408 C  
BRANCH  10  11
HETATM   11  C   UNL     1     -10.683  13.632  64.743  1.00  0.00    -0.420 C  
HETATM   12  C   UNL     1     -11.639  13.048  63.727  1.00  0.00    -0.457 C  
HETATM   13  O   UNL     1     -11.303  11.784  63.376  1.00  0.00    -0.402 OA 
HETATM   14  O   UNL     1     -12.609  13.618  63.256  1.00  0.00    -0.816 OA 
ENDBRANCH  10  11
ENDBRANCH   9  10
ENDBRANCH   8   9
ENDBRANCH   7   8
ENDBRANCH   6   7
ENDBRANCH   5   6
ENDBRANCH   4   5
ENDBRANCH   3   4
ENDBRANCH   2   3
TORSDOF 9
ENDMDL
MODEL       80
REMARK 921   NORMALIZED FREE ENERGY PREDICTED BY IDOCK:   -3.69 KCAL/MOL
REMARK 922        TOTAL FREE ENERGY PREDICTED BY IDOCK:   -6.18 KCAL/MOL
REMARK 923 INTER-LIGAND FREE ENERGY PREDICTED BY IDOCK:   -5.67 KCAL/MOL
REMARK 924 INTRA-LIGAND FREE ENERGY PREDICTED BY IDOCK:   -0.51 KCAL/MOL
REMARK 927      BINDING AFFINITY PREDICTED BY RF-SCORE:    0.00 PKD
ROOT
HETATM    1  C   UNL     1     -12.446  15.797  74.217  1.00  0.00    -0.800 C  
HETATM    2  C   UNL     1     -13.235  15.364  72.992  1.00  0.00    -0.638 C  
ENDROOT
BRANCH   2   3
HETATM    3  C   UNL     1     -12.318  14.769  71.926  1.00  0.00    -0.417 C  
BRANCH   3   4
HETATM    4  C   UNL     1     -12.904  13.485  71.343  1.00  0.00    -0.440 C  
BRANCH   4   5
HETATM    5  C   UNL     1     -11.997  12.915  70.253  1.00  0.00    -0.359 C  
BRANCH   5   6
HETATM    6  C   UNL     1     -12.264  11.426  70.038  1.00  0.00    -0.377 C  
BRANCH   6   7
HETATM    7  C   UNL     1     -10.961  10.660  69.812  1.00  0.00    -0.340 C  
BRANCH   7   8
HETATM    8  C   UNL     1     -10.966   9.343  70.587  1.00  0.00    -0.352 C  
BRANCH   8   9
HETATM    9  C   UNL     1     -12.035   9.340  71.678  1.00  0.00    -0.448 C  
BRANCH   9  10
HETATM   10  C   UNL     1     -12.552   7.923  71.926  1.00  0.00    -0.348 C  
BRANCH  10  11
HETATM   11  C   UNL     1     -11.937   6.923  70.951  1.00  0.00    -0.430 C  
HETATM   12  C   UNL     1     -11.033   5.939  71.658  1.00  0.00    -0.268 C  
HETATM   13  O   UNL     1     -10.482   5.046  70.802  1.00  0.00    -0.227 OA 
HETATM   14  O   UNL     1     -10.802   5.920  72.855  1.00  0.00    -0.229 OA 
ENDBRANCH  10  11
ENDBRANCH   9  10
ENDBRANCH   8   9
ENDBRANCH   7   8
ENDBRANCH   6   7
ENDBRANCH   5   6
ENDBRANCH   4   5
ENDBRANCH   3   4
ENDBRANCH   2   3
TORSDOF 9
ENDMDL
MODEL       81
REMARK 921   NORMALIZED FREE ENERGY PREDICTED BY IDOCK:   -3.69 KCAL/MOL
REMARK 922        TOTAL FREE ENERGY PREDICTED BY IDOCK:   -6.17 KCAL/MOL
REMARK 923 INTER-LIGAND FREE ENERGY PREDICTED BY IDOCK:   -5.28 KCAL/MOL
REMARK 924 INTRA-LIGAND FREE ENERGY PREDICTED BY IDOCK:   -0.89 KCAL/MOL
REMARK 927      BINDING AFFINITY PREDICTED BY RF-SCORE:    0.00 PKD
ROOT
HETATM    1  C   UNL     1      -9.303  12.812  67.777  1.00  0.00    -0.199 C  
HETATM    2  C   UNL     1      -8.921  11.360  67.536  1.00  0.00    -0.150 C  
ENDROOT
BRANCH   2   3
HETATM    3  C   UNL     1      -8.232  11.187  66.184  1.00  0.00    -0.128 C  
BRANCH   3   4
HETATM    4  C   UNL     1      -8.670   9.894  65.499  1.00  0.00    -0.170 C  
BRANCH   4   5
HETATM    5  C   UNL     1      -9.312  10.184  64.143  1.00  0.00    -0.340 C  
BRANCH   5   6
HETATM    6  C   UNL     1     -10.659  10.883  64.310  1.00  0.00    -0.336 C  
BRANCH   6   7
HETATM    7  C   UNL     1     -10.923  11.854  63.160  1.00  0.00    -0.281 C  
BRANCH   7   8
HETATM    8  C   UNL     1     -12.199  12.658  63.410  1.00  0.00    -0.610 C  
BRANCH   8   9
HETATM    9  C   UNL     1     -12.642  12.561  64.869  1.00  0.00    -0.469 C  
BRANCH   9  10
HETATM   10  C   UNL     1     -12.760  13.952  65.493  1.00  0.00    -0.536 C  
BRANCH  10  11
HETATM   11  C   UNL     1     -11.390  14.596  65.690  1.00  0.00    -0.338 C  
HETATM   12  C   UNL     1     -11.209  15.806  64.802  1.00  0.00    -0.366 C  
HETATM   13  O   UNL     1      -9.997  16.386  64.970  1.00  0.00    -0.401 OA 
HETATM   14  O   UNL     1     -12.034  16.238  64.015  1.00  0.00    -0.955 OA 
ENDBRANCH  10  11
ENDBRANCH   9  10
ENDBRANCH   8   9
ENDBRANCH   7   8
ENDBRANCH   6   7
ENDBRANCH   5   6
ENDBRANCH   4   5
ENDBRANCH   3   4
ENDBRANCH   2   3
TORSDOF 9
ENDMDL
MODEL       82
REMARK 921   NORMALIZED FREE ENERGY PREDICTED BY IDOCK:   -3.69 KCAL/MOL
REMARK 922        TOTAL FREE ENERGY PREDICTED BY IDOCK:   -6.17 KCAL/MOL
REMARK 923 INTER-LIGAND FREE ENERGY PREDICTED BY IDOCK:   -5.45 KCAL/MOL
REMARK 924 INTRA-LIGAND FREE ENERGY PREDICTED BY IDOCK:   -0.72 KCAL/MOL
REMARK 927      BINDING AFFINITY PREDICTED BY RF-SCORE:    0.00 PKD
ROOT
HETATM    1  C   UNL     1     -12.930  10.932  71.763  1.00  0.00    -0.557 C  
HETATM    2  C   UNL     1     -11.812  10.117  71.133  1.00  0.00    -0.472 C  
ENDROOT
BRANCH   2   3
HETATM    3  C   UNL     1     -11.088  10.915  70.051  1.00  0.00    -0.285 C  
BRANCH   3   4
HETATM    4  C   UNL     1     -12.076  11.645  69.144  1.00  0.00    -0.315 C  
BRANCH   4   5
HETATM    5  C   UNL     1     -11.630  13.085  68.896  1.00  0.00    -0.355 C  
BRANCH   5   6
HETATM    6  C   UNL     1     -12.379  14.058  69.804  1.00  0.00    -0.344 C  
BRANCH   6   7
HETATM    7  C   UNL     1     -11.411  14.991  70.530  1.00  0.00    -0.333 C  
BRANCH   7   8
HETATM    8  C   UNL     1     -10.229  15.351  69.632  1.00  0.00    -0.283 C  
BRANCH   8   9
HETATM    9  C   UNL     1     -10.163  16.855  69.371  1.00  0.00    -0.208 C  
BRANCH   9  10
HETATM   10  C   UNL     1     -10.831  17.204  68.041  1.00  0.00    -0.317 C  
BRANCH  10  11
HETATM   11  C   UNL     1     -10.478  18.620  67.591  1.00  0.00    -0.468 C  
HETATM   12  C   UNL     1     -10.486  18.745  66.085  1.00  0.00    -0.446 C  
HETATM   13  O   UNL     1     -10.175  19.998  65.675  1.00  0.00    -0.429 OA 
HETATM   14  O   UNL     1     -10.736  17.846  65.299  1.00  0.00    -0.640 OA 
ENDBRANCH  10  11
ENDBRANCH   9  10
ENDBRANCH   8   9
ENDBRANCH   7   8
ENDBRANCH   6   7
ENDBRANCH   5   6
ENDBRANCH   4   5
ENDBRANCH   3   4
ENDBRANCH   2   3
TORSDOF 9
ENDMDL
MODEL       83
REMARK 921   NORMALIZED FREE ENERGY PREDICTED BY IDOCK:   -3.68 KCAL/MOL
REMARK 922        TOTAL FREE ENERGY PREDICTED BY IDOCK:   -6.17 KCAL/MOL
REMARK 923 INTER-LIGAND FREE ENERGY PREDICTED BY IDOCK:   -5.06 KCAL/MOL
REMARK 924 INTRA-LIGAND FREE ENERGY PREDICTED BY IDOCK:   -1.11 KCAL/MOL
REMARK 927      BINDING AFFINITY PREDICTED BY RF-SCORE:    0.00 PKD
ROOT
HETATM    1  C   UNL     1     -13.115   9.717  72.047  1.00  0.00    -0.537 C  
HETATM    2  C   UNL     1     -14.018   8.534  71.735  1.00  0.00    -0.491 C  
ENDROOT
BRANCH   2   3
HETATM    3  C   UNL     1     -13.201   7.273  71.459  1.00  0.00    -0.434 C  
BRANCH   3   4
HETATM    4  C   UNL     1     -11.903   7.264  72.264  1.00  0.00    -0.287 C  
BRANCH   4   5
HETATM    5  C   UNL     1     -10.725   6.823  71.397  1.00  0.00    -0.253 C  
BRANCH   5   6
HETATM    6  C   UNL     1     -11.129   6.727  69.927  1.00  0.00    -0.374 C  
BRANCH   6   7
HETATM    7  C   UNL     1     -10.319   7.698  69.069  1.00  0.00    -0.220 C  
BRANCH   7   8
HETATM    8  C   UNL     1     -10.061   9.003  69.822  1.00  0.00    -0.209 C  
BRANCH   8   9
HETATM    9  C   UNL     1     -10.198  10.215  68.902  1.00  0.00    -0.213 C  
BRANCH   9  10
HETATM   10  C   UNL     1     -11.649  10.696  68.853  1.00  0.00    -0.320 C  
BRANCH  10  11
HETATM   11  C   UNL     1     -11.736  12.219  68.913  1.00  0.00    -0.380 C  
HETATM   12  C   UNL     1     -11.906  12.822  67.537  1.00  0.00    -0.343 C  
HETATM   13  O   UNL     1     -11.986  14.174  67.578  1.00  0.00    -0.383 OA 
HETATM   14  O   UNL     1     -11.969  12.198  66.492  1.00  0.00    -0.618 OA 
ENDBRANCH  10  11
ENDBRANCH   9  10
ENDBRANCH   8   9
ENDBRANCH   7   8
ENDBRANCH   6   7
ENDBRANCH   5   6
ENDBRANCH   4   5
ENDBRANCH   3   4
ENDBRANCH   2   3
TORSDOF 9
ENDMDL
MODEL       84
REMARK 921   NORMALIZED FREE ENERGY PREDICTED BY IDOCK:   -3.68 KCAL/MOL
REMARK 922        TOTAL FREE ENERGY PREDICTED BY IDOCK:   -6.16 KCAL/MOL
REMARK 923 INTER-LIGAND FREE ENERGY PREDICTED BY IDOCK:   -5.48 KCAL/MOL
REMARK 924 INTRA-LIGAND FREE ENERGY PREDICTED BY IDOCK:   -0.68 KCAL/MOL
REMARK 927      BINDING AFFINITY PREDICTED BY RF-SCORE:    0.00 PKD
ROOT
HETATM    1  C   UNL     1     -12.988  11.069  71.434  1.00  0.00    -0.517 C  
HETATM    2  C   UNL     1     -12.336   9.734  71.112  1.00  0.00    -0.451 C  
ENDROOT
BRANCH   2   3
HETATM    3  C   UNL     1     -10.911   9.924  70.596  1.00  0.00    -0.405 C  
BRANCH   3   4
HETATM    4  C   UNL     1     -10.567   8.895  69.522  1.00  0.00    -0.233 C  
BRANCH   4   5
HETATM    5  C   UNL     1     -10.123   9.579  68.230  1.00  0.00    -0.210 C  
BRANCH   5   6
HETATM    6  C   UNL     1     -10.618  11.023  68.175  1.00  0.00    -0.226 C  
BRANCH   6   7
HETATM    7  C   UNL     1     -11.313  11.317  66.847  1.00  0.00    -0.231 C  
BRANCH   7   8
HETATM    8  C   UNL     1     -10.304  11.778  65.796  1.00  0.00    -0.293 C  
BRANCH   8   9
HETATM    9  C   UNL     1     -10.782  11.454  64.382  1.00  0.00    -0.405 C  
BRANCH   9  10
HETATM   10  C   UNL     1     -12.173  12.037  64.133  1.00  0.00    -0.459 C  
BRANCH  10  11
HETATM   11  C   UNL     1     -12.094  13.417  63.486  1.00  0.00    -0.497 C  
HETATM   12  C   UNL     1     -12.358  14.519  64.487  1.00  0.00    -0.414 C  
HETATM   13  O   UNL     1     -12.290  15.748  63.923  1.00  0.00    -0.728 OA 
HETATM   14  O   UNL     1     -12.607  14.358  65.670  1.00  0.00    -0.408 OA 
ENDBRANCH  10  11
ENDBRANCH   9  10
ENDBRANCH   8   9
ENDBRANCH   7   8
ENDBRANCH   6   7
ENDBRANCH   5   6
ENDBRANCH   4   5
ENDBRANCH   3   4
ENDBRANCH   2   3
TORSDOF 9
ENDMDL
MODEL       85
REMARK 921   NORMALIZED FREE ENERGY PREDICTED BY IDOCK:   -3.68 KCAL/MOL
REMARK 922        TOTAL FREE ENERGY PREDICTED BY IDOCK:   -6.16 KCAL/MOL
REMARK 923 INTER-LIGAND FREE ENERGY PREDICTED BY IDOCK:   -5.46 KCAL/MOL
REMARK 924 INTRA-LIGAND FREE ENERGY PREDICTED BY IDOCK:   -0.70 KCAL/MOL
REMARK 927      BINDING AFFINITY PREDICTED BY RF-SCORE:    0.00 PKD
ROOT
HETATM    1  C   UNL     1     -10.814   6.121  68.308  1.00  0.00    -0.387 C  
HETATM    2  C   UNL     1     -11.019   6.998  67.083  1.00  0.00    -0.393 C  
ENDROOT
BRANCH   2   3
HETATM    3  C   UNL     1      -9.875   7.996  66.920  1.00  0.00    -0.318 C  
BRANCH   3   4
HETATM    4  C   UNL     1     -10.218   9.343  67.553  1.00  0.00    -0.288 C  
BRANCH   4   5
HETATM    5  C   UNL     1      -9.919   9.335  69.052  1.00  0.00    -0.187 C  
BRANCH   5   6
HETATM    6  C   UNL     1     -10.843  10.291  69.802  1.00  0.00    -0.332 C  
BRANCH   6   7
HETATM    7  C   UNL     1     -11.755  11.048  68.837  1.00  0.00    -0.400 C  
BRANCH   7   8
HETATM    8  C   UNL     1     -11.291  12.496  68.676  1.00  0.00    -0.329 C  
BRANCH   8   9
HETATM    9  C   UNL     1     -11.882  13.134  67.420  1.00  0.00    -0.412 C  
BRANCH   9  10
HETATM   10  C   UNL     1     -10.948  12.942  66.224  1.00  0.00    -0.305 C  
BRANCH  10  11
HETATM   11  C   UNL     1     -11.578  12.048  65.160  1.00  0.00    -0.330 C  
HETATM   12  C   UNL     1     -12.378  12.851  64.159  1.00  0.00    -0.376 C  
HETATM   13  O   UNL     1     -12.941  12.067  63.209  1.00  0.00    -0.736 OA 
HETATM   14  O   UNL     1     -12.522  14.061  64.174  1.00  0.00    -0.665 OA 
ENDBRANCH  10  11
ENDBRANCH   9  10
ENDBRANCH   8   9
ENDBRANCH   7   8
ENDBRANCH   6   7
ENDBRANCH   5   6
ENDBRANCH   4   5
ENDBRANCH   3   4
ENDBRANCH   2   3
TORSDOF 9
ENDMDL
MODEL       86
REMARK 921   NORMALIZED FREE ENERGY PREDICTED BY IDOCK:   -3.68 KCAL/MOL
REMARK 922        TOTAL FREE ENERGY PREDICTED BY IDOCK:   -6.16 KCAL/MOL
REMARK 923 INTER-LIGAND FREE ENERGY PREDICTED BY IDOCK:   -4.99 KCAL/MOL
REMARK 924 INTRA-LIGAND FREE ENERGY PREDICTED BY IDOCK:   -1.17 KCAL/MOL
REMARK 927      BINDING AFFINITY PREDICTED BY RF-SCORE:    0.00 PKD
ROOT
HETATM    1  C   UNL     1     -10.630   6.020  67.404  1.00  0.00    -0.355 C  
HETATM    2  C   UNL     1     -11.283   6.345  68.737  1.00  0.00    -0.358 C  
ENDROOT
BRANCH   2   3
HETATM    3  C   UNL     1     -10.557   5.657  69.891  1.00  0.00    -0.399 C  
BRANCH   3   4
HETATM    4  C   UNL     1     -11.047   6.172  71.243  1.00  0.00    -0.351 C  
BRANCH   4   5
HETATM    5  C   UNL     1     -12.303   7.027  71.080  1.00  0.00    -0.423 C  
BRANCH   5   6
HETATM    6  C   UNL     1     -12.174   8.346  71.839  1.00  0.00    -0.395 C  
BRANCH   6   7
HETATM    7  C   UNL     1     -10.941   9.126  71.382  1.00  0.00    -0.414 C  
BRANCH   7   8
HETATM    8  C   UNL     1     -11.290  10.063  70.227  1.00  0.00    -0.376 C  
BRANCH   8   9
HETATM    9  C   UNL     1     -10.282   9.941  69.085  1.00  0.00    -0.218 C  
BRANCH   9  10
HETATM   10  C   UNL     1     -10.997   9.910  67.734  1.00  0.00    -0.278 C  
BRANCH  10  11
HETATM   11  C   UNL     1     -10.270  10.761  66.696  1.00  0.00    -0.283 C  
HETATM   12  C   UNL     1     -11.028  12.032  66.387  1.00  0.00    -0.296 C  
HETATM   13  O   UNL     1     -10.391  12.796  65.468  1.00  0.00    -0.276 OA 
HETATM   14  O   UNL     1     -12.089  12.364  66.887  1.00  0.00    -0.564 OA 
ENDBRANCH  10  11
ENDBRANCH   9  10
ENDBRANCH   8   9
ENDBRANCH   7   8
ENDBRANCH   6   7
ENDBRANCH   5   6
ENDBRANCH   4   5
ENDBRANCH   3   4
ENDBRANCH   2   3
TORSDOF 9
ENDMDL
MODEL       87
REMARK 921   NORMALIZED FREE ENERGY PREDICTED BY IDOCK:   -3.68 KCAL/MOL
REMARK 922        TOTAL FREE ENERGY PREDICTED BY IDOCK:   -6.15 KCAL/MOL
REMARK 923 INTER-LIGAND FREE ENERGY PREDICTED BY IDOCK:   -5.24 KCAL/MOL
REMARK 924 INTRA-LIGAND FREE ENERGY PREDICTED BY IDOCK:   -0.92 KCAL/MOL
REMARK 927      BINDING AFFINITY PREDICTED BY RF-SCORE:    0.00 PKD
ROOT
HETATM    1  C   UNL     1     -11.171  12.472  63.403  1.00  0.00    -0.460 C  
HETATM    2  C   UNL     1     -11.606  12.228  64.838  1.00  0.00    -0.395 C  
ENDROOT
BRANCH   2   3
HETATM    3  C   UNL     1     -10.680  11.234  65.536  1.00  0.00    -0.283 C  
BRANCH   3   4
HETATM    4  C   UNL     1     -10.815  11.319  67.054  1.00  0.00    -0.332 C  
BRANCH   4   5
HETATM    5  C   UNL     1     -11.869  12.351  67.453  1.00  0.00    -0.360 C  
BRANCH   5   6
HETATM    6  C   UNL     1     -11.268  13.435  68.345  1.00  0.00    -0.311 C  
BRANCH   6   7
HETATM    7  C   UNL     1     -11.684  14.828  67.875  1.00  0.00    -0.367 C  
BRANCH   7   8
HETATM    8  C   UNL     1     -11.015  15.174  66.546  1.00  0.00    -0.318 C  
BRANCH   8   9
HETATM    9  C   UNL     1      -9.497  15.268  66.692  1.00  0.00    -0.281 C  
BRANCH   9  10
HETATM   10  C   UNL     1      -8.974  16.573  66.089  1.00  0.00    -0.344 C  
BRANCH  10  11
HETATM   11  C   UNL     1      -9.390  17.781  66.923  1.00  0.00    -0.272 C  
HETATM   12  C   UNL     1     -10.453  18.601  66.227  1.00  0.00    -0.424 C  
HETATM   13  O   UNL     1     -10.830  19.676  66.959  1.00  0.00    -0.487 OA 
HETATM   14  O   UNL     1     -10.937  18.353  65.135  1.00  0.00    -0.604 OA 
ENDBRANCH  10  11
ENDBRANCH   9  10
ENDBRANCH   8   9
ENDBRANCH   7   8
ENDBRANCH   6   7
ENDBRANCH   5   6
ENDBRANCH   4   5
ENDBRANCH   3   4
ENDBRANCH   2   3
TORSDOF 9
ENDMDL
MODEL       88
REMARK 921   NORMALIZED FREE ENERGY PREDICTED BY IDOCK:   -3.65 KCAL/MOL
REMARK 922        TOTAL FREE ENERGY PREDICTED BY IDOCK:   -6.12 KCAL/MOL
REMARK 923 INTER-LIGAND FREE ENERGY PREDICTED BY IDOCK:   -5.71 KCAL/MOL
REMARK 924 INTRA-LIGAND FREE ENERGY PREDICTED BY IDOCK:   -0.41 KCAL/MOL
REMARK 927      BINDING AFFINITY PREDICTED BY RF-SCORE:    0.00 PKD
ROOT
HETATM    1  C   UNL     1      -8.631   7.407  73.838  1.00  0.00    -0.245 C  
HETATM    2  C   UNL     1      -9.802   6.690  73.185  1.00  0.00    -0.188 C  
ENDROOT
BRANCH   2   3
HETATM    3  C   UNL     1     -11.015   7.609  73.063  1.00  0.00    -0.457 C  
BRANCH   3   4
HETATM    4  C   UNL     1     -11.835   7.285  71.816  1.00  0.00    -0.330 C  
BRANCH   4   5
HETATM    5  C   UNL     1     -12.434   8.553  71.211  1.00  0.00    -0.275 C  
BRANCH   5   6
HETATM    6  C   UNL     1     -11.545   9.765  71.481  1.00  0.00    -0.424 C  
BRANCH   6   7
HETATM    7  C   UNL     1     -12.047  10.996  70.727  1.00  0.00    -0.467 C  
BRANCH   7   8
HETATM    8  C   UNL     1     -11.780  10.860  69.228  1.00  0.00    -0.395 C  
BRANCH   8   9
HETATM    9  C   UNL     1     -11.865  12.212  68.521  1.00  0.00    -0.365 C  
BRANCH   9  10
HETATM   10  C   UNL     1     -11.624  12.054  67.020  1.00  0.00    -0.387 C  
BRANCH  10  11
HETATM   11  C   UNL     1     -11.574  13.406  66.315  1.00  0.00    -0.378 C  
HETATM   12  C   UNL     1     -12.577  13.486  65.186  1.00  0.00    -0.436 C  
HETATM   13  O   UNL     1     -12.541  14.683  64.554  1.00  0.00    -0.626 OA 
HETATM   14  O   UNL     1     -13.344  12.597  64.855  1.00  0.00    -0.741 OA 
ENDBRANCH  10  11
ENDBRANCH   9  10
ENDBRANCH   8   9
ENDBRANCH   7   8
ENDBRANCH   6   7
ENDBRANCH   5   6
ENDBRANCH   4   5
ENDBRANCH   3   4
ENDBRANCH   2   3
TORSDOF 9
ENDMDL
MODEL       89
REMARK 921   NORMALIZED FREE ENERGY PREDICTED BY IDOCK:   -3.65 KCAL/MOL
REMARK 922        TOTAL FREE ENERGY PREDICTED BY IDOCK:   -6.12 KCAL/MOL
REMARK 923 INTER-LIGAND FREE ENERGY PREDICTED BY IDOCK:   -5.04 KCAL/MOL
REMARK 924 INTRA-LIGAND FREE ENERGY PREDICTED BY IDOCK:   -1.08 KCAL/MOL
REMARK 927      BINDING AFFINITY PREDICTED BY RF-SCORE:    0.00 PKD
ROOT
HETATM    1  C   UNL     1     -11.769  12.695  67.952  1.00  0.00    -0.412 C  
HETATM    2  C   UNL     1     -11.430  11.847  66.737  1.00  0.00    -0.384 C  
ENDROOT
BRANCH   2   3
HETATM    3  C   UNL     1     -11.393  12.692  65.466  1.00  0.00    -0.356 C  
BRANCH   3   4
HETATM    4  C   UNL     1     -12.174  13.993  65.640  1.00  0.00    -0.462 C  
BRANCH   4   5
HETATM    5  C   UNL     1     -11.452  15.159  64.969  1.00  0.00    -0.339 C  
BRANCH   5   6
HETATM    6  C   UNL     1     -10.194  15.547  65.744  1.00  0.00    -0.390 C  
BRANCH   6   7
HETATM    7  C   UNL     1     -10.243  17.011  66.179  1.00  0.00    -0.346 C  
BRANCH   7   8
HETATM    8  C   UNL     1     -10.705  17.130  67.630  1.00  0.00    -0.302 C  
BRANCH   8   9
HETATM    9  C   UNL     1      -9.679  16.537  68.594  1.00  0.00    -0.247 C  
BRANCH   9  10
HETATM   10  C   UNL     1     -10.369  15.702  69.673  1.00  0.00    -0.287 C  
BRANCH  10  11
HETATM   11  C   UNL     1     -11.863  16.002  69.744  1.00  0.00    -0.234 C  
HETATM   12  C   UNL     1     -12.516  15.314  70.921  1.00  0.00    -0.388 C  
HETATM   13  O   UNL     1     -13.843  15.574  70.994  1.00  0.00    -0.545 OA 
HETATM   14  O   UNL     1     -11.947  14.601  71.730  1.00  0.00    -0.345 OA 
ENDBRANCH  10  11
ENDBRANCH   9  10
ENDBRANCH   8   9
ENDBRANCH   7   8
ENDBRANCH   6   7
ENDBRANCH   5   6
ENDBRANCH   4   5
ENDBRANCH   3   4
ENDBRANCH   2   3
TORSDOF 9
ENDMDL
MODEL       90
REMARK 921   NORMALIZED FREE ENERGY PREDICTED BY IDOCK:   -3.64 KCAL/MOL
REMARK 922        TOTAL FREE ENERGY PREDICTED BY IDOCK:   -6.10 KCAL/MOL
REMARK 923 INTER-LIGAND FREE ENERGY PREDICTED BY IDOCK:   -5.17 KCAL/MOL
REMARK 924 INTRA-LIGAND FREE ENERGY PREDICTED BY IDOCK:   -0.92 KCAL/MOL
REMARK 927      BINDING AFFINITY PREDICTED BY RF-SCORE:    0.00 PKD
ROOT
HETATM    1  C   UNL     1      -9.935  11.009  67.724  1.00  0.00    -0.194 C  
HETATM    2  C   UNL     1     -10.963   9.889  67.734  1.00  0.00    -0.278 C  
ENDROOT
BRANCH   2   3
HETATM    3  C   UNL     1     -10.386   8.603  67.148  1.00  0.00    -0.369 C  
BRANCH   3   4
HETATM    4  C   UNL     1      -9.772   7.723  68.236  1.00  0.00    -0.169 C  
BRANCH   4   5
HETATM    5  C   UNL     1     -10.460   6.360  68.289  1.00  0.00    -0.270 C  
BRANCH   5   6
HETATM    6  C   UNL     1     -11.349   6.240  69.526  1.00  0.00    -0.475 C  
BRANCH   6   7
HETATM    7  C   UNL     1     -10.852   7.147  70.651  1.00  0.00    -0.268 C  
BRANCH   7   8
HETATM    8  C   UNL     1     -12.022   7.857  71.331  1.00  0.00    -0.331 C  
BRANCH   8   9
HETATM    9  C   UNL     1     -11.634   9.263  71.787  1.00  0.00    -0.458 C  
BRANCH   9  10
HETATM   10  C   UNL     1     -12.472  10.317  71.064  1.00  0.00    -0.484 C  
BRANCH  10  11
HETATM   11  C   UNL     1     -13.280  11.161  72.046  1.00  0.00    -0.428 C  
HETATM   12  C   UNL     1     -13.103  12.640  71.788  1.00  0.00    -0.360 C  
HETATM   13  O   UNL     1     -13.816  13.398  72.654  1.00  0.00    -0.726 OA 
HETATM   14  O   UNL     1     -12.408  13.129  70.914  1.00  0.00    -0.364 OA 
ENDBRANCH  10  11
ENDBRANCH   9  10
ENDBRANCH   8   9
ENDBRANCH   7   8
ENDBRANCH   6   7
ENDBRANCH   5   6
ENDBRANCH   4   5
ENDBRANCH   3   4
ENDBRANCH   2   3
TORSDOF 9
ENDMDL
MODEL       91
REMARK 921   NORMALIZED FREE ENERGY PREDICTED BY IDOCK:   -3.64 KCAL/MOL
REMARK 922        TOTAL FREE ENERGY PREDICTED BY IDOCK:   -6.10 KCAL/MOL
REMARK 923 INTER-LIGAND FREE ENERGY PREDICTED BY IDOCK:   -5.58 KCAL/MOL
REMARK 924 INTRA-LIGAND FREE ENERGY PREDICTED BY IDOCK:   -0.51 KCAL/MOL
REMARK 927      BINDING AFFINITY PREDICTED BY RF-SCORE:    0.00 PKD
ROOT
HETATM    1  C   UNL     1     -13.986   7.858  71.316  1.00  0.00    -0.296 C  
HETATM    2  C   UNL     1     -13.600   8.821  72.427  1.00  0.00    -0.456 C  
ENDROOT
BRANCH   2   3
HETATM    3  C   UNL     1     -12.851  10.031  71.874  1.00  0.00    -0.524 C  
BRANCH   3   4
HETATM    4  C   UNL     1     -11.590   9.609  71.122  1.00  0.00    -0.456 C  
BRANCH   4   5
HETATM    5  C   UNL     1     -11.410  10.436  69.849  1.00  0.00    -0.370 C  
BRANCH   5   6
HETATM    6  C   UNL     1     -12.025  11.825  70.004  1.00  0.00    -0.421 C  
BRANCH   6   7
HETATM    7  C   UNL     1     -12.033  12.575  68.672  1.00  0.00    -0.268 C  
BRANCH   7   8
HETATM    8  C   UNL     1     -10.751  13.390  68.501  1.00  0.00    -0.278 C  
BRANCH   8   9
HETATM    9  C   UNL     1     -10.003  12.993  67.230  1.00  0.00    -0.232 C  
BRANCH   9  10
HETATM   10  C   UNL     1      -9.358  14.216  66.577  1.00  0.00    -0.285 C  
BRANCH  10  11
HETATM   11  C   UNL     1     -10.233  14.783  65.463  1.00  0.00    -0.400 C  
HETATM   12  C   UNL     1     -10.292  16.293  65.513  1.00  0.00    -0.338 C  
HETATM   13  O   UNL     1     -11.065  16.808  64.528  1.00  0.00    -0.989 OA 
HETATM   14  O   UNL     1      -9.723  16.998  66.330  1.00  0.00    -0.267 OA 
ENDBRANCH  10  11
ENDBRANCH   9  10
ENDBRANCH   8   9
ENDBRANCH   7   8
ENDBRANCH   6   7
ENDBRANCH   5   6
ENDBRANCH   4   5
ENDBRANCH   3   4
ENDBRANCH   2   3
TORSDOF 9
ENDMDL
MODEL       92
REMARK 921   NORMALIZED FREE ENERGY PREDICTED BY IDOCK:   -3.63 KCAL/MOL
REMARK 922        TOTAL FREE ENERGY PREDICTED BY IDOCK:   -6.09 KCAL/MOL
REMARK 923 INTER-LIGAND FREE ENERGY PREDICTED BY IDOCK:   -5.02 KCAL/MOL
REMARK 924 INTRA-LIGAND FREE ENERGY PREDICTED BY IDOCK:   -1.07 KCAL/MOL
REMARK 927      BINDING AFFINITY PREDICTED BY RF-SCORE:    0.00 PKD
ROOT
HETATM    1  C   UNL     1     -11.154  15.914  64.731  1.00  0.00    -0.397 C  
HETATM    2  C   UNL     1     -10.141  14.876  65.185  1.00  0.00    -0.354 C  
ENDROOT
BRANCH   2   3
HETATM    3  C   UNL     1     -10.518  13.481  64.691  1.00  0.00    -0.439 C  
BRANCH   3   4
HETATM    4  C   UNL     1     -10.499  12.464  65.829  1.00  0.00    -0.288 C  
BRANCH   4   5
HETATM    5  C   UNL     1     -11.757  12.581  66.689  1.00  0.00    -0.453 C  
BRANCH   5   6
HETATM    6  C   UNL     1     -11.417  13.065  68.097  1.00  0.00    -0.356 C  
BRANCH   6   7
HETATM    7  C   UNL     1     -12.024  14.441  68.368  1.00  0.00    -0.328 C  
BRANCH   7   8
HETATM    8  C   UNL     1     -11.669  14.923  69.774  1.00  0.00    -0.344 C  
BRANCH   8   9
HETATM    9  C   UNL     1     -10.964  16.278  69.738  1.00  0.00    -0.354 C  
BRANCH   9  10
HETATM   10  C   UNL     1     -10.789  16.760  68.298  1.00  0.00    -0.366 C  
BRANCH  10  11
HETATM   11  C   UNL     1      -9.444  17.452  68.098  1.00  0.00    -0.288 C  
HETATM   12  C   UNL     1      -9.611  18.843  67.529  1.00  0.00    -0.305 C  
HETATM   13  O   UNL     1      -8.423  19.467  67.349  1.00  0.00    -0.285 OA 
HETATM   14  O   UNL     1     -10.674  19.373  67.253  1.00  0.00    -0.459 OA 
ENDBRANCH  10  11
ENDBRANCH   9  10
ENDBRANCH   8   9
ENDBRANCH   7   8
ENDBRANCH   6   7
ENDBRANCH   5   6
ENDBRANCH   4   5
ENDBRANCH   3   4
ENDBRANCH   2   3
TORSDOF 9
ENDMDL
MODEL       93
REMARK 921   NORMALIZED FREE ENERGY PREDICTED BY IDOCK:   -3.63 KCAL/MOL
REMARK 922        TOTAL FREE ENERGY PREDICTED BY IDOCK:   -6.08 KCAL/MOL
REMARK 923 INTER-LIGAND FREE ENERGY PREDICTED BY IDOCK:   -5.40 KCAL/MOL
REMARK 924 INTRA-LIGAND FREE ENERGY PREDICTED BY IDOCK:   -0.68 KCAL/MOL
REMARK 927      BINDING AFFINITY PREDICTED BY RF-SCORE:    0.00 PKD
ROOT
HETATM    1  C   UNL     1     -10.904   6.312  68.221  1.00  0.00    -0.397 C  
HETATM    2  C   UNL     1     -10.595   6.521  69.695  1.00  0.00    -0.291 C  
ENDROOT
BRANCH   2   3
HETATM    3  C   UNL     1     -11.875   6.687  70.511  1.00  0.00    -0.430 C  
BRANCH   3   4
HETATM    4  C   UNL     1     -11.567   6.901  71.991  1.00  0.00    -0.322 C  
BRANCH   4   5
HETATM    5  C   UNL     1     -11.553   8.390  72.337  1.00  0.00    -0.450 C  
BRANCH   5   6
HETATM    6  C   UNL     1     -12.933   9.013  72.142  1.00  0.00    -0.490 C  
BRANCH   6   7
HETATM    7  C   UNL     1     -12.823  10.446  71.623  1.00  0.00    -0.579 C  
BRANCH   7   8
HETATM    8  C   UNL     1     -11.617  10.597  70.697  1.00  0.00    -0.432 C  
BRANCH   8   9
HETATM    9  C   UNL     1     -12.023  11.164  69.339  1.00  0.00    -0.420 C  
BRANCH   9  10
HETATM   10  C   UNL     1     -11.735  12.665  69.271  1.00  0.00    -0.379 C  
BRANCH  10  11
HETATM   11  C   UNL     1     -10.464  12.955  68.477  1.00  0.00    -0.260 C  
HETATM   12  C   UNL     1     -10.756  13.764  67.234  1.00  0.00    -0.283 C  
HETATM   13  O   UNL     1      -9.634  14.029  66.522  1.00  0.00    -0.277 OA 
HETATM   14  O   UNL     1     -11.857  14.150  66.881  1.00  0.00    -0.391 OA 
ENDBRANCH  10  11
ENDBRANCH   9  10
ENDBRANCH   8   9
ENDBRANCH   7   8
ENDBRANCH   6   7
ENDBRANCH   5   6
ENDBRANCH   4   5
ENDBRANCH   3   4
ENDBRANCH   2   3
TORSDOF 9
ENDMDL
MODEL       94
REMARK 921   NORMALIZED FREE ENERGY PREDICTED BY IDOCK:   -3.62 KCAL/MOL
REMARK 922        TOTAL FREE ENERGY PREDICTED BY IDOCK:   -6.08 KCAL/MOL
REMARK 923 INTER-LIGAND FREE ENERGY PREDICTED BY IDOCK:   -5.08 KCAL/MOL
REMARK 924 INTRA-LIGAND FREE ENERGY PREDICTED BY IDOCK:   -0.99 KCAL/MOL
REMARK 927      BINDING AFFINITY PREDICTED BY RF-SCORE:    0.00 PKD
ROOT
HETATM    1  C   UNL     1     -14.119  14.314  72.134  1.00  0.00    -0.634 C  
HETATM    2  C   UNL     1     -13.441  15.355  71.258  1.00  0.00    -0.598 C  
ENDROOT
BRANCH   2   3
HETATM    3  C   UNL     1     -12.378  14.720  70.365  1.00  0.00    -0.402 C  
BRANCH   3   4
HETATM    4  C   UNL     1     -12.185  13.241  70.696  1.00  0.00    -0.417 C  
BRANCH   4   5
HETATM    5  C   UNL     1     -11.965  12.421  69.426  1.00  0.00    -0.319 C  
BRANCH   5   6
HETATM    6  C   UNL     1     -11.733  13.327  68.219  1.00  0.00    -0.388 C  
BRANCH   6   7
HETATM    7  C   UNL     1     -10.295  13.213  67.713  1.00  0.00    -0.230 C  
BRANCH   7   8
HETATM    8  C   UNL     1      -9.730  14.591  67.371  1.00  0.00    -0.222 C  
BRANCH   8   9
HETATM    9  C   UNL     1     -10.843  15.589  67.058  1.00  0.00    -0.314 C  
BRANCH   9  10
HETATM   10  C   UNL     1     -10.736  16.821  67.957  1.00  0.00    -0.355 C  
BRANCH  10  11
HETATM   11  C   UNL     1      -9.310  17.023  68.462  1.00  0.00    -0.265 C  
HETATM   12  C   UNL     1      -8.896  18.476  68.398  1.00  0.00    -0.322 C  
HETATM   13  O   UNL     1      -7.632  18.668  68.844  1.00  0.00    -0.302 OA 
HETATM   14  O   UNL     1      -9.591  19.394  67.997  1.00  0.00    -0.315 OA 
ENDBRANCH  10  11
ENDBRANCH   9  10
ENDBRANCH   8   9
ENDBRANCH   7   8
ENDBRANCH   6   7
ENDBRANCH   5   6
ENDBRANCH   4   5
ENDBRANCH   3   4
ENDBRANCH   2   3
TORSDOF 9
ENDMDL
MODEL       95
REMARK 921   NORMALIZED FREE ENERGY PREDICTED BY IDOCK:   -3.61 KCAL/MOL
REMARK 922        TOTAL FREE ENERGY PREDICTED BY IDOCK:   -6.05 KCAL/MOL
REMARK 923 INTER-LIGAND FREE ENERGY PREDICTED BY IDOCK:   -4.74 KCAL/MOL
REMARK 924 INTRA-LIGAND FREE ENERGY PREDICTED BY IDOCK:   -1.31 KCAL/MOL
REMARK 927      BINDING AFFINITY PREDICTED BY RF-SCORE:    0.00 PKD
ROOT
HETATM    1  C   UNL     1      -8.194  12.265  67.856  1.00  0.00    -0.161 C  
HETATM    2  C   UNL     1      -8.385  11.514  66.548  1.00  0.00    -0.147 C  
ENDROOT
BRANCH   2   3
HETATM    3  C   UNL     1      -9.376  10.363  66.711  1.00  0.00    -0.181 C  
BRANCH   3   4
HETATM    4  C   UNL     1      -9.696   9.711  65.368  1.00  0.00    -0.365 C  
BRANCH   4   5
HETATM    5  C   UNL     1      -9.213  10.581  64.208  1.00  0.00    -0.281 C  
BRANCH   5   6
HETATM    6  C   UNL     1     -10.391  11.189  63.448  1.00  0.00    -0.419 C  
BRANCH   6   7
HETATM    7  C   UNL     1     -10.657  12.624  63.902  1.00  0.00    -0.460 C  
BRANCH   7   8
HETATM    8  C   UNL     1     -12.159  12.901  63.970  1.00  0.00    -0.526 C  
BRANCH   8   9
HETATM    9  C   UNL     1     -12.528  13.664  65.240  1.00  0.00    -0.517 C  
BRANCH   9  10
HETATM   10  C   UNL     1     -11.394  13.595  66.263  1.00  0.00    -0.325 C  
BRANCH  10  11
HETATM   11  C   UNL     1     -11.889  13.097  67.617  1.00  0.00    -0.405 C  
HETATM   12  C   UNL     1     -12.013  14.225  68.616  1.00  0.00    -0.313 C  
HETATM   13  O   UNL     1     -12.453  13.794  69.822  1.00  0.00    -0.287 OA 
HETATM   14  O   UNL     1     -11.755  15.396  68.398  1.00  0.00    -0.352 OA 
ENDBRANCH  10  11
ENDBRANCH   9  10
ENDBRANCH   8   9
ENDBRANCH   7   8
ENDBRANCH   6   7
ENDBRANCH   5   6
ENDBRANCH   4   5
ENDBRANCH   3   4
ENDBRANCH   2   3
TORSDOF 9
ENDMDL
MODEL       96
REMARK 921   NORMALIZED FREE ENERGY PREDICTED BY IDOCK:   -3.60 KCAL/MOL
REMARK 922        TOTAL FREE ENERGY PREDICTED BY IDOCK:   -6.04 KCAL/MOL
REMARK 923 INTER-LIGAND FREE ENERGY PREDICTED BY IDOCK:   -5.22 KCAL/MOL
REMARK 924 INTRA-LIGAND FREE ENERGY PREDICTED BY IDOCK:   -0.82 KCAL/MOL
REMARK 927      BINDING AFFINITY PREDICTED BY RF-SCORE:    0.00 PKD
ROOT
HETATM    1  C   UNL     1     -13.752  14.019  72.233  1.00  0.00    -0.646 C  
HETATM    2  C   UNL     1     -12.897  13.051  71.432  1.00  0.00    -0.385 C  
ENDROOT
BRANCH   2   3
HETATM    3  C   UNL     1     -13.048  11.622  71.948  1.00  0.00    -0.490 C  
BRANCH   3   4
HETATM    4  C   UNL     1     -12.879  10.603  70.823  1.00  0.00    -0.439 C  
BRANCH   4   5
HETATM    5  C   UNL     1     -11.428  10.132  70.725  1.00  0.00    -0.442 C  
BRANCH   5   6
HETATM    6  C   UNL     1     -10.755  10.683  69.471  1.00  0.00    -0.290 C  
BRANCH   6   7
HETATM    7  C   UNL     1     -11.781  10.975  68.376  1.00  0.00    -0.329 C  
BRANCH   7   8
HETATM    8  C   UNL     1     -11.664  12.421  67.895  1.00  0.00    -0.421 C  
BRANCH   8   9
HETATM    9  C   UNL     1     -11.555  12.495  66.373  1.00  0.00    -0.449 C  
BRANCH   9  10
HETATM   10  C   UNL     1     -10.375  13.373  65.957  1.00  0.00    -0.297 C  
BRANCH  10  11
HETATM   11  C   UNL     1      -9.788  14.125  67.148  1.00  0.00    -0.253 C  
HETATM   12  C   UNL     1      -9.963  15.620  67.006  1.00  0.00    -0.240 C  
HETATM   13  O   UNL     1      -9.447  16.298  68.058  1.00  0.00    -0.219 OA 
HETATM   14  O   UNL     1     -10.500  16.185  66.068  1.00  0.00    -0.321 OA 
ENDBRANCH  10  11
ENDBRANCH   9  10
ENDBRANCH   8   9
ENDBRANCH   7   8
ENDBRANCH   6   7
ENDBRANCH   5   6
ENDBRANCH   4   5
ENDBRANCH   3   4
ENDBRANCH   2   3
TORSDOF 9
ENDMDL
MODEL       97
REMARK 921   NORMALIZED FREE ENERGY PREDICTED BY IDOCK:   -3.58 KCAL/MOL
REMARK 922        TOTAL FREE ENERGY PREDICTED BY IDOCK:   -6.00 KCAL/MOL
REMARK 923 INTER-LIGAND FREE ENERGY PREDICTED BY IDOCK:   -5.32 KCAL/MOL
REMARK 924 INTRA-LIGAND FREE ENERGY PREDICTED BY IDOCK:   -0.68 KCAL/MOL
REMARK 927      BINDING AFFINITY PREDICTED BY RF-SCORE:    0.00 PKD
ROOT
HETATM    1  C   UNL     1      -9.778   7.472  72.511  1.00  0.00    -0.218 C  
HETATM    2  C   UNL     1     -11.045   8.261  72.223  1.00  0.00    -0.429 C  
ENDROOT
BRANCH   2   3
HETATM    3  C   UNL     1     -11.478   8.100  70.768  1.00  0.00    -0.272 C  
BRANCH   3   4
HETATM    4  C   UNL     1     -10.979   6.781  70.182  1.00  0.00    -0.340 C  
BRANCH   4   5
HETATM    5  C   UNL     1     -10.783   6.893  68.671  1.00  0.00    -0.256 C  
BRANCH   5   6
HETATM    6  C   UNL     1     -10.140   8.226  68.297  1.00  0.00    -0.231 C  
BRANCH   6   7
HETATM    7  C   UNL     1      -9.930   8.333  66.787  1.00  0.00    -0.355 C  
BRANCH   7   8
HETATM    8  C   UNL     1     -10.262   9.740  66.291  1.00  0.00    -0.282 C  
BRANCH   8   9
HETATM    9  C   UNL     1     -10.918  10.578  67.387  1.00  0.00    -0.352 C  
BRANCH   9  10
HETATM   10  C   UNL     1     -11.373  11.929  66.836  1.00  0.00    -0.392 C  
BRANCH  10  11
HETATM   11  C   UNL     1     -11.406  11.930  65.311  1.00  0.00    -0.333 C  
HETATM   12  C   UNL     1     -12.404  12.932  64.774  1.00  0.00    -0.459 C  
HETATM   13  O   UNL     1     -12.441  12.942  63.421  1.00  0.00    -0.695 OA 
HETATM   14  O   UNL     1     -13.110  13.661  65.450  1.00  0.00    -0.704 OA 
ENDBRANCH  10  11
ENDBRANCH   9  10
ENDBRANCH   8   9
ENDBRANCH   7   8
ENDBRANCH   6   7
ENDBRANCH   5   6
ENDBRANCH   4   5
ENDBRANCH   3   4
ENDBRANCH   2   3
TORSDOF 9
ENDMDL
MODEL       98
REMARK 921   NORMALIZED FREE ENERGY PREDICTED BY IDOCK:   -3.57 KCAL/MOL
REMARK 922        TOTAL FREE ENERGY PREDICTED BY IDOCK:   -6.00 KCAL/MOL
REMARK 923 INTER-LIGAND FREE ENERGY PREDICTED BY IDOCK:   -5.40 KCAL/MOL
REMARK 924 INTRA-LIGAND FREE ENERGY PREDICTED BY IDOCK:   -0.60 KCAL/MOL
REMARK 927      BINDING AFFINITY PREDICTED BY RF-SCORE:    0.00 PKD
ROOT
HETATM    1  C   UNL     1     -12.582   7.121  71.432  1.00  0.00    -0.432 C  
HETATM    2  C   UNL     1     -12.569   8.286  72.408  1.00  0.00    -0.323 C  
ENDROOT
BRANCH   2   3
HETATM    3  C   UNL     1     -12.198   9.591  71.706  1.00  0.00    -0.465 C  
BRANCH   3   4
HETATM    4  C   UNL     1     -10.823   9.497  71.049  1.00  0.00    -0.423 C  
BRANCH   4   5
HETATM    5  C   UNL     1     -10.778  10.309  69.755  1.00  0.00    -0.328 C  
BRANCH   5   6
HETATM    6  C   UNL     1     -12.005  11.210  69.629  1.00  0.00    -0.429 C  
BRANCH   6   7
HETATM    7  C   UNL     1     -11.770  12.321  68.606  1.00  0.00    -0.377 C  
BRANCH   7   8
HETATM    8  C   UNL     1     -11.303  11.740  67.272  1.00  0.00    -0.379 C  
BRANCH   8   9
HETATM    9  C   UNL     1     -11.670  12.656  66.105  1.00  0.00    -0.461 C  
BRANCH   9  10
HETATM   10  C   UNL     1     -12.155  14.013  66.615  1.00  0.00    -0.487 C  
BRANCH  10  11
HETATM   11  C   UNL     1     -11.056  15.068  66.532  1.00  0.00    -0.329 C  
HETATM   12  C   UNL     1     -11.021  15.936  67.769  1.00  0.00    -0.315 C  
HETATM   13  O   UNL     1     -10.048  16.876  67.707  1.00  0.00    -0.272 OA 
HETATM   14  O   UNL     1     -11.765  15.832  68.730  1.00  0.00    -0.382 OA 
ENDBRANCH  10  11
ENDBRANCH   9  10
ENDBRANCH   8   9
ENDBRANCH   7   8
ENDBRANCH   6   7
ENDBRANCH   5   6
ENDBRANCH   4   5
ENDBRANCH   3   4
ENDBRANCH   2   3
TORSDOF 9
ENDMDL
MODEL       99
REMARK 921   NORMALIZED FREE ENERGY PREDICTED BY IDOCK:   -3.57 KCAL/MOL
REMARK 922        TOTAL FREE ENERGY PREDICTED BY IDOCK:   -6.00 KCAL/MOL
REMARK 923 INTER-LIGAND FREE ENERGY PREDICTED BY IDOCK:   -4.86 KCAL/MOL
REMARK 924 INTRA-LIGAND FREE ENERGY PREDICTED BY IDOCK:   -1.14 KCAL/MOL
REMARK 927      BINDING AFFINITY PREDICTED BY RF-SCORE:    0.00 PKD
ROOT
HETATM    1  C   UNL     1      -9.339   8.742  66.856  1.00  0.00    -0.213 C  
HETATM    2  C   UNL     1     -10.748   8.222  67.091  1.00  0.00    -0.240 C  
ENDROOT
BRANCH   2   3
HETATM    3  C   UNL     1     -10.742   7.006  68.014  1.00  0.00    -0.252 C  
BRANCH   3   4
HETATM    4  C   UNL     1     -10.633   7.421  69.480  1.00  0.00    -0.244 C  
BRANCH   4   5
HETATM    5  C   UNL     1     -11.607   6.626  70.348  1.00  0.00    -0.457 C  
BRANCH   5   6
HETATM    6  C   UNL     1     -12.380   7.546  71.290  1.00  0.00    -0.356 C  
BRANCH   6   7
HETATM    7  C   UNL     1     -11.707   8.913  71.402  1.00  0.00    -0.385 C  
BRANCH   7   8
HETATM    8  C   UNL     1     -12.751  10.027  71.471  1.00  0.00    -0.532 C  
BRANCH   8   9
HETATM    9  C   UNL     1     -12.315  11.250  70.665  1.00  0.00    -0.477 C  
BRANCH   9  10
HETATM   10  C   UNL     1     -11.917  10.849  69.244  1.00  0.00    -0.382 C  
BRANCH  10  11
HETATM   11  C   UNL     1     -10.696  11.628  68.763  1.00  0.00    -0.254 C  
HETATM   12  C   UNL     1     -10.960  12.320  67.445  1.00  0.00    -0.253 C  
HETATM   13  O   UNL     1      -9.883  13.016  67.009  1.00  0.00    -0.228 OA 
HETATM   14  O   UNL     1     -12.006  12.280  66.820  1.00  0.00    -0.586 OA 
ENDBRANCH  10  11
ENDBRANCH   9  10
ENDBRANCH   8   9
ENDBRANCH   7   8
ENDBRANCH   6   7
ENDBRANCH   5   6
ENDBRANCH   4   5
ENDBRANCH   3   4
ENDBRANCH   2   3
TORSDOF 9
ENDMDL
MODEL      100
REMARK 921   NORMALIZED FREE ENERGY PREDICTED BY IDOCK:   -3.55 KCAL/MOL
REMARK 922        TOTAL FREE ENERGY PREDICTED BY IDOCK:   -5.97 KCAL/MOL
REMARK 923 INTER-LIGAND FREE ENERGY PREDICTED BY IDOCK:   -4.94 KCAL/MOL
REMARK 924 INTRA-LIGAND FREE ENERGY PREDICTED BY IDOCK:   -1.03 KCAL/MOL
REMARK 927      BINDING AFFINITY PREDICTED BY RF-SCORE:    0.00 PKD
ROOT
HETATM    1  C   UNL     1      -8.262   6.972  70.545  1.00  0.00    -0.123 C  
HETATM    2  C   UNL     1      -9.221   6.575  69.435  1.00  0.00    -0.144 C  
ENDROOT
BRANCH   2   3
HETATM    3  C   UNL     1     -10.327   5.663  69.961  1.00  0.00    -0.345 C  
BRANCH   3   4
HETATM    4  C   UNL     1     -10.297   5.574  71.485  1.00  0.00    -0.282 C  
BRANCH   4   5
HETATM    5  C   UNL     1     -11.596   6.104  72.090  1.00  0.00    -0.369 C  
BRANCH   5   6
HETATM    6  C   UNL     1     -11.321   7.234  73.080  1.00  0.00    -0.246 C  
BRANCH   6   7
HETATM    7  C   UNL     1     -10.996   8.538  72.351  1.00  0.00    -0.390 C  
BRANCH   7   8
HETATM    8  C   UNL     1     -12.176   8.987  71.491  1.00  0.00    -0.403 C  
BRANCH   8   9
HETATM    9  C   UNL     1     -11.710   9.800  70.285  1.00  0.00    -0.253 C  
BRANCH   9  10
HETATM   10  C   UNL     1     -11.788  11.299  70.579  1.00  0.00    -0.421 C  
BRANCH  10  11
HETATM   11  C   UNL     1     -12.924  11.622  71.546  1.00  0.00    -0.463 C  
HETATM   12  C   UNL     1     -13.081  13.112  71.744  1.00  0.00    -0.383 C  
HETATM   13  O   UNL     1     -14.087  13.411  72.600  1.00  0.00    -0.767 OA 
HETATM   14  O   UNL     1     -12.401  13.974  71.213  1.00  0.00    -0.347 OA 
ENDBRANCH  10  11
ENDBRANCH   9  10
ENDBRANCH   8   9
ENDBRANCH   7   8
ENDBRANCH   6   7
ENDBRANCH   5   6
ENDBRANCH   4   5
ENDBRANCH   3   4
ENDBRANCH   2   3
TORSDOF 9
ENDMDL
MODEL      101
REMARK 921   NORMALIZED FREE ENERGY PREDICTED BY IDOCK:   -3.53 KCAL/MOL
REMARK 922        TOTAL FREE ENERGY PREDICTED BY IDOCK:   -5.94 KCAL/MOL
REMARK 923 INTER-LIGAND FREE ENERGY PREDICTED BY IDOCK:   -4.77 KCAL/MOL
REMARK 924 INTRA-LIGAND FREE ENERGY PREDICTED BY IDOCK:   -1.17 KCAL/MOL
REMARK 927      BINDING AFFINITY PREDICTED BY RF-SCORE:    0.00 PKD
ROOT
HETATM    1  C   UNL     1      -7.670  11.948  67.306  1.00  0.00    -0.164 C  
HETATM    2  C   UNL     1      -8.336  13.282  67.604  1.00  0.00    -0.181 C  
ENDROOT
BRANCH   2   3
HETATM    3  C   UNL     1      -9.737  13.085  68.179  1.00  0.00    -0.228 C  
BRANCH   3   4
HETATM    4  C   UNL     1     -10.249  11.669  67.923  1.00  0.00    -0.203 C  
BRANCH   4   5
HETATM    5  C   UNL     1     -11.499  11.690  67.045  1.00  0.00    -0.336 C  
BRANCH   5   6
HETATM    6  C   UNL     1     -11.134  11.835  65.569  1.00  0.00    -0.336 C  
BRANCH   6   7
HETATM    7  C   UNL     1     -12.255  12.519  64.788  1.00  0.00    -0.532 C  
BRANCH   7   8
HETATM    8  C   UNL     1     -12.192  14.035  64.965  1.00  0.00    -0.448 C  
BRANCH   8   9
HETATM    9  C   UNL     1     -10.785  14.570  64.707  1.00  0.00    -0.414 C  
BRANCH   9  10
HETATM   10  C   UNL     1     -10.718  16.073  64.977  1.00  0.00    -0.400 C  
BRANCH  10  11
HETATM   11  C   UNL     1     -10.377  16.365  66.435  1.00  0.00    -0.319 C  
HETATM   12  C   UNL     1     -10.251  17.850  66.692  1.00  0.00    -0.371 C  
HETATM   13  O   UNL     1      -9.949  18.121  67.984  1.00  0.00    -0.310 OA 
HETATM   14  O   UNL     1     -10.397  18.729  65.860  1.00  0.00    -0.524 OA 
ENDBRANCH  10  11
ENDBRANCH   9  10
ENDBRANCH   8   9
ENDBRANCH   7   8
ENDBRANCH   6   7
ENDBRANCH   5   6
ENDBRANCH   4   5
ENDBRANCH   3   4
ENDBRANCH   2   3
TORSDOF 9
ENDMDL
MODEL      102
REMARK 921   NORMALIZED FREE ENERGY PREDICTED BY IDOCK:   -3.53 KCAL/MOL
REMARK 922        TOTAL FREE ENERGY PREDICTED BY IDOCK:   -5.94 KCAL/MOL
REMARK 923 INTER-LIGAND FREE ENERGY PREDICTED BY IDOCK:   -5.47 KCAL/MOL
REMARK 924 INTRA-LIGAND FREE ENERGY PREDICTED BY IDOCK:   -0.47 KCAL/MOL
REMARK 927      BINDING AFFINITY PREDICTED BY RF-SCORE:    0.00 PKD
ROOT
HETATM    1  C   UNL     1     -12.836   7.317  71.389  1.00  0.00    -0.425 C  
HETATM    2  C   UNL     1     -13.956   8.254  71.810  1.00  0.00    -0.476 C  
ENDROOT
BRANCH   2   3
HETATM    3  C   UNL     1     -13.557   9.715  71.619  1.00  0.00    -0.402 C  
BRANCH   3   4
HETATM    4  C   UNL     1     -12.050   9.858  71.416  1.00  0.00    -0.501 C  
BRANCH   4   5
HETATM    5  C   UNL     1     -11.732  11.019  70.475  1.00  0.00    -0.416 C  
BRANCH   5   6
HETATM    6  C   UNL     1     -12.639  12.216  70.752  1.00  0.00    -0.305 C  
BRANCH   6   7
HETATM    7  C   UNL     1     -11.913  13.533  70.478  1.00  0.00    -0.344 C  
BRANCH   7   8
HETATM    8  C   UNL     1     -12.238  14.049  69.076  1.00  0.00    -0.280 C  
BRANCH   8   9
HETATM    9  C   UNL     1     -11.354  15.236  68.700  1.00  0.00    -0.327 C  
BRANCH   9  10
HETATM   10  C   UNL     1     -11.059  15.238  67.200  1.00  0.00    -0.323 C  
BRANCH  10  11
HETATM   11  C   UNL     1     -10.821  13.825  66.674  1.00  0.00    -0.288 C  
HETATM   12  C   UNL     1     -11.903  13.399  65.708  1.00  0.00    -0.377 C  
HETATM   13  O   UNL     1     -11.701  12.147  65.234  1.00  0.00    -0.350 OA 
HETATM   14  O   UNL     1     -12.859  14.077  65.371  1.00  0.00    -0.658 OA 
ENDBRANCH  10  11
ENDBRANCH   9  10
ENDBRANCH   8   9
ENDBRANCH   7   8
ENDBRANCH   6   7
ENDBRANCH   5   6
ENDBRANCH   4   5
ENDBRANCH   3   4
ENDBRANCH   2   3
TORSDOF 9
ENDMDL
MODEL      103
REMARK 921   NORMALIZED FREE ENERGY PREDICTED BY IDOCK:   -3.53 KCAL/MOL
REMARK 922        TOTAL FREE ENERGY PREDICTED BY IDOCK:   -5.94 KCAL/MOL
REMARK 923 INTER-LIGAND FREE ENERGY PREDICTED BY IDOCK:   -5.21 KCAL/MOL
REMARK 924 INTRA-LIGAND FREE ENERGY PREDICTED BY IDOCK:   -0.72 KCAL/MOL
REMARK 927      BINDING AFFINITY PREDICTED BY RF-SCORE:    0.00 PKD
ROOT
HETATM    1  C   UNL     1     -12.614  13.197  65.515  1.00  0.00    -0.468 C  
HETATM    2  C   UNL     1     -11.921  13.371  66.857  1.00  0.00    -0.437 C  
ENDROOT
BRANCH   2   3
HETATM    3  C   UNL     1     -11.532  12.022  67.457  1.00  0.00    -0.403 C  
BRANCH   3   4
HETATM    4  C   UNL     1     -11.499  12.081  68.983  1.00  0.00    -0.357 C  
BRANCH   4   5
HETATM    5  C   UNL     1     -11.990  10.769  69.592  1.00  0.00    -0.385 C  
BRANCH   5   6
HETATM    6  C   UNL     1     -11.936  10.816  71.118  1.00  0.00    -0.361 C  
BRANCH   6   7
HETATM    7  C   UNL     1     -13.333  10.683  71.724  1.00  0.00    -0.437 C  
BRANCH   7   8
HETATM    8  C   UNL     1     -13.461   9.378  72.508  1.00  0.00    -0.437 C  
BRANCH   8   9
HETATM    9  C   UNL     1     -14.241   8.327  71.720  1.00  0.00    -0.544 C  
BRANCH   9  10
HETATM   10  C   UNL     1     -13.410   7.056  71.544  1.00  0.00    -0.370 C  
BRANCH  10  11
HETATM   11  C   UNL     1     -11.990   7.237  72.072  1.00  0.00    -0.333 C  
HETATM   12  C   UNL     1     -10.972   7.224  70.954  1.00  0.00    -0.253 C  
HETATM   13  O   UNL     1      -9.708   7.385  71.411  1.00  0.00    -0.167 OA 
HETATM   14  O   UNL     1     -11.223   7.087  69.768  1.00  0.00    -0.262 OA 
ENDBRANCH  10  11
ENDBRANCH   9  10
ENDBRANCH   8   9
ENDBRANCH   7   8
ENDBRANCH   6   7
ENDBRANCH   5   6
ENDBRANCH   4   5
ENDBRANCH   3   4
ENDBRANCH   2   3
TORSDOF 9
ENDMDL
MODEL      104
REMARK 921   NORMALIZED FREE ENERGY PREDICTED BY IDOCK:   -3.53 KCAL/MOL
REMARK 922        TOTAL FREE ENERGY PREDICTED BY IDOCK:   -5.94 KCAL/MOL
REMARK 923 INTER-LIGAND FREE ENERGY PREDICTED BY IDOCK:   -5.69 KCAL/MOL
REMARK 924 INTRA-LIGAND FREE ENERGY PREDICTED BY IDOCK:   -0.24 KCAL/MOL
REMARK 927      BINDING AFFINITY PREDICTED BY RF-SCORE:    0.00 PKD
ROOT
HETATM    1  C   UNL     1     -12.048   9.609  71.576  1.00  0.00    -0.482 C  
HETATM    2  C   UNL     1     -13.269  10.499  71.735  1.00  0.00    -0.522 C  
ENDROOT
BRANCH   2   3
HETATM    3  C   UNL     1     -12.897  11.975  71.611  1.00  0.00    -0.399 C  
BRANCH   3   4
HETATM    4  C   UNL     1     -13.910  12.866  72.327  1.00  0.00    -0.464 C  
BRANCH   4   5
HETATM    5  C   UNL     1     -13.296  14.221  72.676  1.00  0.00    -0.619 C  
BRANCH   5   6
HETATM    6  C   UNL     1     -13.604  15.259  71.599  1.00  0.00    -0.586 C  
BRANCH   6   7
HETATM    7  C   UNL     1     -12.766  15.018  70.344  1.00  0.00    -0.371 C  
BRANCH   7   8
HETATM    8  C   UNL     1     -11.596  15.998  70.277  1.00  0.00    -0.335 C  
BRANCH   8   9
HETATM    9  C   UNL     1     -10.579  15.583  69.215  1.00  0.00    -0.236 C  
BRANCH   9  10
HETATM   10  C   UNL     1     -10.455  16.658  68.135  1.00  0.00    -0.321 C  
BRANCH  10  11
HETATM   11  C   UNL     1      -9.121  17.393  68.226  1.00  0.00    -0.272 C  
HETATM   12  C   UNL     1      -9.310  18.853  68.568  1.00  0.00    -0.366 C  
HETATM   13  O   UNL     1      -8.132  19.515  68.653  1.00  0.00    -0.352 OA 
HETATM   14  O   UNL     1     -10.382  19.405  68.753  1.00  0.00    -0.366 OA 
ENDBRANCH  10  11
ENDBRANCH   9  10
ENDBRANCH   8   9
ENDBRANCH   7   8
ENDBRANCH   6   7
ENDBRANCH   5   6
ENDBRANCH   4   5
ENDBRANCH   3   4
ENDBRANCH   2   3
TORSDOF 9
ENDMDL
MODEL      105
REMARK 921   NORMALIZED FREE ENERGY PREDICTED BY IDOCK:   -3.52 KCAL/MOL
REMARK 922        TOTAL FREE ENERGY PREDICTED BY IDOCK:   -5.92 KCAL/MOL
REMARK 923 INTER-LIGAND FREE ENERGY PREDICTED BY IDOCK:   -4.94 KCAL/MOL
REMARK 924 INTRA-LIGAND FREE ENERGY PREDICTED BY IDOCK:   -0.98 KCAL/MOL
REMARK 927      BINDING AFFINITY PREDICTED BY RF-SCORE:    0.00 PKD
ROOT
HETATM    1  C   UNL     1     -11.088   6.433  68.724  1.00  0.00    -0.404 C  
HETATM    2  C   UNL     1     -10.476   5.615  69.849  1.00  0.00    -0.378 C  
ENDROOT
BRANCH   2   3
HETATM    3  C   UNL     1     -11.043   6.029  71.205  1.00  0.00    -0.337 C  
BRANCH   3   4
HETATM    4  C   UNL     1     -12.266   6.930  71.045  1.00  0.00    -0.427 C  
BRANCH   4   5
HETATM    5  C   UNL     1     -12.192   8.126  71.994  1.00  0.00    -0.385 C  
BRANCH   5   6
HETATM    6  C   UNL     1     -10.805   8.763  71.969  1.00  0.00    -0.428 C  
BRANCH   6   7
HETATM    7  C   UNL     1     -10.632   9.660  70.744  1.00  0.00    -0.392 C  
BRANCH   7   8
HETATM    8  C   UNL     1     -11.800  10.637  70.618  1.00  0.00    -0.463 C  
BRANCH   8   9
HETATM    9  C   UNL     1     -12.094  10.969  69.156  1.00  0.00    -0.333 C  
BRANCH   9  10
HETATM   10  C   UNL     1     -10.841  10.793  68.298  1.00  0.00    -0.276 C  
BRANCH  10  11
HETATM   11  C   UNL     1     -11.039  11.358  66.894  1.00  0.00    -0.356 C  
HETATM   12  C   UNL     1     -10.327  10.526  65.852  1.00  0.00    -0.206 C  
HETATM   13  O   UNL     1     -10.497  11.018  64.601  1.00  0.00    -0.324 OA 
HETATM   14  O   UNL     1      -9.667   9.525  66.073  1.00  0.00    -0.232 OA 
ENDBRANCH  10  11
ENDBRANCH   9  10
ENDBRANCH   8   9
ENDBRANCH   7   8
ENDBRANCH   6   7
ENDBRANCH   5   6
ENDBRANCH   4   5
ENDBRANCH   3   4
ENDBRANCH   2   3
TORSDOF 9
ENDMDL
MODEL      106
REMARK 921   NORMALIZED FREE ENERGY PREDICTED BY IDOCK:   -3.52 KCAL/MOL
REMARK 922        TOTAL FREE ENERGY PREDICTED BY IDOCK:   -5.92 KCAL/MOL
REMARK 923 INTER-LIGAND FREE ENERGY PREDICTED BY IDOCK:   -5.20 KCAL/MOL
REMARK 924 INTRA-LIGAND FREE ENERGY PREDICTED BY IDOCK:   -0.72 KCAL/MOL
REMARK 927      BINDING AFFINITY PREDICTED BY RF-SCORE:    0.00 PKD
ROOT
HETATM    1  C   UNL     1     -12.732  13.929  70.992  1.00  0.00    -0.428 C  
HETATM    2  C   UNL     1     -12.644  15.398  70.612  1.00  0.00    -0.491 C  
ENDROOT
BRANCH   2   3
HETATM    3  C   UNL     1     -11.310  15.715  69.939  1.00  0.00    -0.340 C  
BRANCH   3   4
HETATM    4  C   UNL     1     -11.003  14.724  68.818  1.00  0.00    -0.267 C  
BRANCH   4   5
HETATM    5  C   UNL     1      -9.973  15.299  67.847  1.00  0.00    -0.228 C  
BRANCH   5   6
HETATM    6  C   UNL     1     -10.651  15.898  66.617  1.00  0.00    -0.305 C  
BRANCH   6   7
HETATM    7  C   UNL     1     -10.486  14.990  65.399  1.00  0.00    -0.406 C  
BRANCH   7   8
HETATM    8  C   UNL     1     -11.798  14.880  64.624  1.00  0.00    -0.412 C  
BRANCH   8   9
HETATM    9  C   UNL     1     -12.779  13.937  65.318  1.00  0.00    -0.485 C  
BRANCH   9  10
HETATM   10  C   UNL     1     -12.212  12.519  65.387  1.00  0.00    -0.475 C  
BRANCH  10  11
HETATM   11  C   UNL     1     -11.729  12.042  64.020  1.00  0.00    -0.498 C  
HETATM   12  C   UNL     1     -10.355  11.416  64.101  1.00  0.00    -0.344 C  
HETATM   13  O   UNL     1      -9.917  10.988  62.893  1.00  0.00    -0.299 OA 
HETATM   14  O   UNL     1      -9.691  11.293  65.116  1.00  0.00    -0.226 OA 
ENDBRANCH  10  11
ENDBRANCH   9  10
ENDBRANCH   8   9
ENDBRANCH   7   8
ENDBRANCH   6   7
ENDBRANCH   5   6
ENDBRANCH   4   5
ENDBRANCH   3   4
ENDBRANCH   2   3
TORSDOF 9
ENDMDL
MODEL      107
REMARK 921   NORMALIZED FREE ENERGY PREDICTED BY IDOCK:   -3.52 KCAL/MOL
REMARK 922        TOTAL FREE ENERGY PREDICTED BY IDOCK:   -5.92 KCAL/MOL
REMARK 923 INTER-LIGAND FREE ENERGY PREDICTED BY IDOCK:   -4.88 KCAL/MOL
REMARK 924 INTRA-LIGAND FREE ENERGY PREDICTED BY IDOCK:   -1.04 KCAL/MOL
REMARK 927      BINDING AFFINITY PREDICTED BY RF-SCORE:    0.00 PKD
ROOT
HETATM    1  C   UNL     1     -11.040  11.690  68.659  1.00  0.00    -0.287 C  
HETATM    2  C   UNL     1     -11.543  10.962  69.895  1.00  0.00    -0.410 C  
ENDROOT
BRANCH   2   3
HETATM    3  C   UNL     1     -12.301  11.909  70.824  1.00  0.00    -0.416 C  
BRANCH   3   4
HETATM    4  C   UNL     1     -12.307  13.335  70.279  1.00  0.00    -0.334 C  
BRANCH   4   5
HETATM    5  C   UNL     1     -12.392  14.354  71.414  1.00  0.00    -0.433 C  
BRANCH   5   6
HETATM    6  C   UNL     1     -11.390  15.489  71.212  1.00  0.00    -0.449 C  
BRANCH   6   7
HETATM    7  C   UNL     1     -11.033  15.652  69.735  1.00  0.00    -0.307 C  
BRANCH   7   8
HETATM    8  C   UNL     1      -9.519  15.594  69.533  1.00  0.00    -0.275 C  
BRANCH   8   9
HETATM    9  C   UNL     1      -9.158  14.931  68.205  1.00  0.00    -0.179 C  
BRANCH   9  10
HETATM   10  C   UNL     1     -10.037  15.468  67.075  1.00  0.00    -0.254 C  
BRANCH  10  11
HETATM   11  C   UNL     1      -9.325  16.561  66.283  1.00  0.00    -0.334 C  
HETATM   12  C   UNL     1      -9.864  17.934  66.619  1.00  0.00    -0.342 C  
HETATM   13  O   UNL     1      -9.238  18.912  65.922  1.00  0.00    -0.455 OA 
HETATM   14  O   UNL     1     -10.755  18.170  67.417  1.00  0.00    -0.403 OA 
ENDBRANCH  10  11
ENDBRANCH   9  10
ENDBRANCH   8   9
ENDBRANCH   7   8
ENDBRANCH   6   7
ENDBRANCH   5   6
ENDBRANCH   4   5
ENDBRANCH   3   4
ENDBRANCH   2   3
TORSDOF 9
ENDMDL
MODEL      108
REMARK 921   NORMALIZED FREE ENERGY PREDICTED BY IDOCK:   -3.52 KCAL/MOL
REMARK 922        TOTAL FREE ENERGY PREDICTED BY IDOCK:   -5.92 KCAL/MOL
REMARK 923 INTER-LIGAND FREE ENERGY PREDICTED BY IDOCK:   -4.85 KCAL/MOL
REMARK 924 INTRA-LIGAND FREE ENERGY PREDICTED BY IDOCK:   -1.07 KCAL/MOL
REMARK 927      BINDING AFFINITY PREDICTED BY RF-SCORE:    0.00 PKD
ROOT
HETATM    1  C   UNL     1      -9.756  10.802  63.764  1.00  0.00    -0.372 C  
HETATM    2  C   UNL     1     -10.483  12.127  63.593  1.00  0.00    -0.495 C  
ENDROOT
BRANCH   2   3
HETATM    3  C   UNL     1     -11.983  11.969  63.827  1.00  0.00    -0.588 C  
BRANCH   3   4
HETATM    4  C   UNL     1     -12.496  12.977  64.853  1.00  0.00    -0.512 C  
BRANCH   4   5
HETATM    5  C   UNL     1     -11.783  14.320  64.703  1.00  0.00    -0.439 C  
BRANCH   5   6
HETATM    6  C   UNL     1     -11.171  14.769  66.029  1.00  0.00    -0.341 C  
BRANCH   6   7
HETATM    7  C   UNL     1      -9.861  14.033  66.309  1.00  0.00    -0.318 C  
BRANCH   7   8
HETATM    8  C   UNL     1      -9.800  13.569  67.764  1.00  0.00    -0.233 C  
BRANCH   8   9
HETATM    9  C   UNL     1     -11.199  13.385  68.350  1.00  0.00    -0.311 C  
BRANCH   9  10
HETATM   10  C   UNL     1     -11.679  11.946  68.162  1.00  0.00    -0.388 C  
BRANCH  10  11
HETATM   11  C   UNL     1     -10.511  10.989  67.943  1.00  0.00    -0.223 C  
HETATM   12  C   UNL     1     -10.277  10.108  69.149  1.00  0.00    -0.214 C  
HETATM   13  O   UNL     1      -9.243   9.254  68.966  1.00  0.00    -0.140 OA 
HETATM   14  O   UNL     1     -10.924  10.135  70.183  1.00  0.00    -0.273 OA 
ENDBRANCH  10  11
ENDBRANCH   9  10
ENDBRANCH   8   9
ENDBRANCH   7   8
ENDBRANCH   6   7
ENDBRANCH   5   6
ENDBRANCH   4   5
ENDBRANCH   3   4
ENDBRANCH   2   3
TORSDOF 9
ENDMDL
MODEL      109
REMARK 921   NORMALIZED FREE ENERGY PREDICTED BY IDOCK:   -3.51 KCAL/MOL
REMARK 922        TOTAL FREE ENERGY PREDICTED BY IDOCK:   -5.91 KCAL/MOL
REMARK 923 INTER-LIGAND FREE ENERGY PREDICTED BY IDOCK:   -5.22 KCAL/MOL
REMARK 924 INTRA-LIGAND FREE ENERGY PREDICTED BY IDOCK:   -0.69 KCAL/MOL
REMARK 927      BINDING AFFINITY PREDICTED BY RF-SCORE:    0.00 PKD
ROOT
HETATM    1  C   UNL     1     -10.914   6.447  67.645  1.00  0.00    -0.441 C  
HETATM    2  C   UNL     1     -10.250   5.351  68.463  1.00  0.00    -0.237 C  
ENDROOT
BRANCH   2   3
HETATM    3  C   UNL     1     -10.501   5.548  69.957  1.00  0.00    -0.373 C  
BRANCH   3   4
HETATM    4  C   UNL     1     -11.566   6.614  70.206  1.00  0.00    -0.454 C  
BRANCH   4   5
HETATM    5  C   UNL     1     -11.809   6.806  71.702  1.00  0.00    -0.370 C  
BRANCH   5   6
HETATM    6  C   UNL     1     -11.016   7.994  72.241  1.00  0.00    -0.377 C  
BRANCH   6   7
HETATM    7  C   UNL     1     -10.861   9.081  71.178  1.00  0.00    -0.364 C  
BRANCH   7   8
HETATM    8  C   UNL     1     -11.963  10.131  71.311  1.00  0.00    -0.473 C  
BRANCH   8   9
HETATM    9  C   UNL     1     -12.409  10.649  69.944  1.00  0.00    -0.304 C  
BRANCH   9  10
HETATM   10  C   UNL     1     -11.266  11.387  69.246  1.00  0.00    -0.342 C  
BRANCH  10  11
HETATM   11  C   UNL     1     -11.641  11.780  67.820  1.00  0.00    -0.374 C  
HETATM   12  C   UNL     1     -11.901  13.264  67.700  1.00  0.00    -0.357 C  
HETATM   13  O   UNL     1     -12.234  13.624  66.438  1.00  0.00    -0.425 OA 
HETATM   14  O   UNL     1     -11.829  14.073  68.610  1.00  0.00    -0.326 OA 
ENDBRANCH  10  11
ENDBRANCH   9  10
ENDBRANCH   8   9
ENDBRANCH   7   8
ENDBRANCH   6   7
ENDBRANCH   5   6
ENDBRANCH   4   5
ENDBRANCH   3   4
ENDBRANCH   2   3
TORSDOF 9
ENDMDL
MODEL      110
REMARK 921   NORMALIZED FREE ENERGY PREDICTED BY IDOCK:   -3.48 KCAL/MOL
REMARK 922        TOTAL FREE ENERGY PREDICTED BY IDOCK:   -5.86 KCAL/MOL
REMARK 923 INTER-LIGAND FREE ENERGY PREDICTED BY IDOCK:   -5.10 KCAL/MOL
REMARK 924 INTRA-LIGAND FREE ENERGY PREDICTED BY IDOCK:   -0.76 KCAL/MOL
REMARK 927      BINDING AFFINITY PREDICTED BY RF-SCORE:    0.00 PKD
ROOT
HETATM    1  C   UNL     1      -9.320   4.082  69.458  1.00  0.00    -0.243 C  
HETATM    2  C   UNL     1     -10.259   4.945  70.284  1.00  0.00    -0.299 C  
ENDROOT
BRANCH   2   3
HETATM    3  C   UNL     1     -10.947   5.999  69.419  1.00  0.00    -0.455 C  
BRANCH   3   4
HETATM    4  C   UNL     1     -10.238   6.165  68.077  1.00  0.00    -0.210 C  
BRANCH   4   5
HETATM    5  C   UNL     1     -11.018   7.105  67.159  1.00  0.00    -0.342 C  
BRANCH   5   6
HETATM    6  C   UNL     1     -10.180   8.325  66.780  1.00  0.00    -0.375 C  
BRANCH   6   7
HETATM    7  C   UNL     1     -10.055   9.294  67.954  1.00  0.00    -0.246 C  
BRANCH   7   8
HETATM    8  C   UNL     1     -10.912  10.538  67.724  1.00  0.00    -0.372 C  
BRANCH   8   9
HETATM    9  C   UNL     1     -11.775  10.856  68.944  1.00  0.00    -0.376 C  
BRANCH   9  10
HETATM   10  C   UNL     1     -11.104  10.361  70.225  1.00  0.00    -0.379 C  
BRANCH  10  11
HETATM   11  C   UNL     1     -11.979   9.351  70.962  1.00  0.00    -0.389 C  
HETATM   12  C   UNL     1     -13.007  10.035  71.834  1.00  0.00    -0.447 C  
HETATM   13  O   UNL     1     -13.791   9.149  72.493  1.00  0.00    -0.475 OA 
HETATM   14  O   UNL     1     -13.144  11.241  71.956  1.00  0.00    -0.495 OA 
ENDBRANCH  10  11
ENDBRANCH   9  10
ENDBRANCH   8   9
ENDBRANCH   7   8
ENDBRANCH   6   7
ENDBRANCH   5   6
ENDBRANCH   4   5
ENDBRANCH   3   4
ENDBRANCH   2   3
TORSDOF 9
ENDMDL
MODEL      111
REMARK 921   NORMALIZED FREE ENERGY PREDICTED BY IDOCK:   -3.47 KCAL/MOL
REMARK 922        TOTAL FREE ENERGY PREDICTED BY IDOCK:   -5.85 KCAL/MOL
REMARK 923 INTER-LIGAND FREE ENERGY PREDICTED BY IDOCK:   -5.27 KCAL/MOL
REMARK 924 INTRA-LIGAND FREE ENERGY PREDICTED BY IDOCK:   -0.57 KCAL/MOL
REMARK 927      BINDING AFFINITY PREDICTED BY RF-SCORE:    0.00 PKD
ROOT
HETATM    1  C   UNL     1      -8.480   9.292  68.357  1.00  0.00    -0.120 C  
HETATM    2  C   UNL     1      -8.447  10.002  69.700  1.00  0.00    -0.193 C  
ENDROOT
BRANCH   2   3
HETATM    3  C   UNL     1      -8.967   9.098  70.816  1.00  0.00    -0.296 C  
BRANCH   3   4
HETATM    4  C   UNL     1      -9.814   7.957  70.258  1.00  0.00    -0.184 C  
BRANCH   4   5
HETATM    5  C   UNL     1     -11.181   7.908  70.938  1.00  0.00    -0.284 C  
BRANCH   5   6
HETATM    6  C   UNL     1     -11.472   9.208  71.685  1.00  0.00    -0.451 C  
BRANCH   6   7
HETATM    7  C   UNL     1     -12.923   9.644  71.488  1.00  0.00    -0.486 C  
BRANCH   7   8
HETATM    8  C   UNL     1     -12.991  11.048  70.888  1.00  0.00    -0.314 C  
BRANCH   8   9
HETATM    9  C   UNL     1     -13.140  12.112  71.973  1.00  0.00    -0.462 C  
BRANCH   9  10
HETATM   10  C   UNL     1     -13.012  13.515  71.378  1.00  0.00    -0.421 C  
BRANCH  10  11
HETATM   11  C   UNL     1     -13.723  14.556  72.237  1.00  0.00    -0.559 C  
HETATM   12  C   UNL     1     -12.742  15.401  73.017  1.00  0.00    -0.451 C  
HETATM   13  O   UNL     1     -13.363  16.330  73.782  1.00  0.00    -0.670 OA 
HETATM   14  O   UNL     1     -11.528  15.290  72.985  1.00  0.00    -0.383 OA 
ENDBRANCH  10  11
ENDBRANCH   9  10
ENDBRANCH   8   9
ENDBRANCH   7   8
ENDBRANCH   6   7
ENDBRANCH   5   6
ENDBRANCH   4   5
ENDBRANCH   3   4
ENDBRANCH   2   3
TORSDOF 9
ENDMDL
MODEL      112
REMARK 921   NORMALIZED FREE ENERGY PREDICTED BY IDOCK:   -3.47 KCAL/MOL
REMARK 922        TOTAL FREE ENERGY PREDICTED BY IDOCK:   -5.84 KCAL/MOL
REMARK 923 INTER-LIGAND FREE ENERGY PREDICTED BY IDOCK:   -5.12 KCAL/MOL
REMARK 924 INTRA-LIGAND FREE ENERGY PREDICTED BY IDOCK:   -0.72 KCAL/MOL
REMARK 927      BINDING AFFINITY PREDICTED BY RF-SCORE:    0.00 PKD
ROOT
HETATM    1  C   UNL     1      -9.478   9.055  65.833  1.00  0.00    -0.317 C  
HETATM    2  C   UNL     1     -10.448   9.462  66.931  1.00  0.00    -0.281 C  
ENDROOT
BRANCH   2   3
HETATM    3  C   UNL     1     -10.314  10.946  67.264  1.00  0.00    -0.255 C  
BRANCH   3   4
HETATM    4  C   UNL     1     -11.585  11.486  67.917  1.00  0.00    -0.352 C  
BRANCH   4   5
HETATM    5  C   UNL     1     -11.777  10.893  69.312  1.00  0.00    -0.395 C  
BRANCH   5   6
HETATM    6  C   UNL     1     -12.135  11.978  70.326  1.00  0.00    -0.395 C  
BRANCH   6   7
HETATM    7  C   UNL     1     -12.803  11.377  71.562  1.00  0.00    -0.508 C  
BRANCH   7   8
HETATM    8  C   UNL     1     -13.206   9.925  71.310  1.00  0.00    -0.465 C  
BRANCH   8   9
HETATM    9  C   UNL     1     -12.995   9.063  72.554  1.00  0.00    -0.429 C  
BRANCH   9  10
HETATM   10  C   UNL     1     -11.708   8.246  72.434  1.00  0.00    -0.463 C  
BRANCH  10  11
HETATM   11  C   UNL     1     -11.920   6.987  71.597  1.00  0.00    -0.365 C  
HETATM   12  C   UNL     1     -11.061   6.993  70.353  1.00  0.00    -0.287 C  
HETATM   13  O   UNL     1     -11.241   5.880  69.603  1.00  0.00    -0.395 OA 
HETATM   14  O   UNL     1     -10.287   7.878  70.030  1.00  0.00    -0.211 OA 
ENDBRANCH  10  11
ENDBRANCH   9  10
ENDBRANCH   8   9
ENDBRANCH   7   8
ENDBRANCH   6   7
ENDBRANCH   5   6
ENDBRANCH   4   5
ENDBRANCH   3   4
ENDBRANCH   2   3
TORSDOF 9
ENDMDL
MODEL      113
REMARK 921   NORMALIZED FREE ENERGY PREDICTED BY IDOCK:   -3.46 KCAL/MOL
REMARK 922        TOTAL FREE ENERGY PREDICTED BY IDOCK:   -5.83 KCAL/MOL
REMARK 923 INTER-LIGAND FREE ENERGY PREDICTED BY IDOCK:   -4.79 KCAL/MOL
REMARK 924 INTRA-LIGAND FREE ENERGY PREDICTED BY IDOCK:   -1.04 KCAL/MOL
REMARK 927      BINDING AFFINITY PREDICTED BY RF-SCORE:    0.00 PKD
ROOT
HETATM    1  C   UNL     1      -9.586  11.177  68.477  1.00  0.00    -0.193 C  
HETATM    2  C   UNL     1     -10.300  10.327  69.515  1.00  0.00    -0.267 C  
ENDROOT
BRANCH   2   3
HETATM    3  C   UNL     1     -11.793  10.646  69.558  1.00  0.00    -0.345 C  
BRANCH   3   4
HETATM    4  C   UNL     1     -12.118  11.638  70.672  1.00  0.00    -0.432 C  
BRANCH   4   5
HETATM    5  C   UNL     1     -13.092  11.030  71.680  1.00  0.00    -0.543 C  
BRANCH   5   6
HETATM    6  C   UNL     1     -13.491   9.613  71.273  1.00  0.00    -0.359 C  
BRANCH   6   7
HETATM    7  C   UNL     1     -13.076   8.597  72.336  1.00  0.00    -0.396 C  
BRANCH   7   8
HETATM    8  C   UNL     1     -11.722   7.977  71.994  1.00  0.00    -0.375 C  
BRANCH   8   9
HETATM    9  C   UNL     1     -11.846   6.955  70.865  1.00  0.00    -0.424 C  
BRANCH   9  10
HETATM   10  C   UNL     1     -10.505   6.768  70.155  1.00  0.00    -0.240 C  
BRANCH  10  11
HETATM   11  C   UNL     1     -10.597   5.718  69.051  1.00  0.00    -0.351 C  
HETATM   12  C   UNL     1     -10.682   6.353  67.682  1.00  0.00    -0.311 C  
HETATM   13  O   UNL     1     -10.764   5.431  66.694  1.00  0.00    -0.295 OA 
HETATM   14  O   UNL     1     -10.681   7.552  67.455  1.00  0.00    -0.256 OA 
ENDBRANCH  10  11
ENDBRANCH   9  10
ENDBRANCH   8   9
ENDBRANCH   7   8
ENDBRANCH   6   7
ENDBRANCH   5   6
ENDBRANCH   4   5
ENDBRANCH   3   4
ENDBRANCH   2   3
TORSDOF 9
ENDMDL
MODEL      114
REMARK 921   NORMALIZED FREE ENERGY PREDICTED BY IDOCK:   -3.46 KCAL/MOL
REMARK 922        TOTAL FREE ENERGY PREDICTED BY IDOCK:   -5.82 KCAL/MOL
REMARK 923 INTER-LIGAND FREE ENERGY PREDICTED BY IDOCK:   -4.80 KCAL/MOL
REMARK 924 INTRA-LIGAND FREE ENERGY PREDICTED BY IDOCK:   -1.02 KCAL/MOL
REMARK 927      BINDING AFFINITY PREDICTED BY RF-SCORE:    0.00 PKD
ROOT
HETATM    1  C   UNL     1      -9.377  12.823  66.911  1.00  0.00    -0.234 C  
HETATM    2  C   UNL     1      -9.369  11.352  67.294  1.00  0.00    -0.173 C  
ENDROOT
BRANCH   2   3
HETATM    3  C   UNL     1     -10.770  10.870  67.666  1.00  0.00    -0.288 C  
BRANCH   3   4
HETATM    4  C   UNL     1     -11.662  12.033  68.093  1.00  0.00    -0.398 C  
BRANCH   4   5
HETATM    5  C   UNL     1     -11.979  11.959  69.586  1.00  0.00    -0.365 C  
BRANCH   5   6
HETATM    6  C   UNL     1     -12.118  13.355  70.189  1.00  0.00    -0.415 C  
BRANCH   6   7
HETATM    7  C   UNL     1     -11.913  14.437  69.129  1.00  0.00    -0.357 C  
BRANCH   7   8
HETATM    8  C   UNL     1     -11.248  15.671  69.736  1.00  0.00    -0.322 C  
BRANCH   8   9
HETATM    9  C   UNL     1      -9.738  15.662  69.503  1.00  0.00    -0.287 C  
BRANCH   9  10
HETATM   10  C   UNL     1      -9.293  16.938  68.787  1.00  0.00    -0.260 C  
BRANCH  10  11
HETATM   11  C   UNL     1      -9.578  16.868  67.290  1.00  0.00    -0.246 C  
HETATM   12  C   UNL     1     -10.402  18.047  66.823  1.00  0.00    -0.367 C  
HETATM   13  O   UNL     1     -10.660  17.995  65.495  1.00  0.00    -0.639 OA 
HETATM   14  O   UNL     1     -10.804  18.955  67.530  1.00  0.00    -0.450 OA 
ENDBRANCH  10  11
ENDBRANCH   9  10
ENDBRANCH   8   9
ENDBRANCH   7   8
ENDBRANCH   6   7
ENDBRANCH   5   6
ENDBRANCH   4   5
ENDBRANCH   3   4
ENDBRANCH   2   3
TORSDOF 9
ENDMDL
MODEL      115
REMARK 921   NORMALIZED FREE ENERGY PREDICTED BY IDOCK:   -3.46 KCAL/MOL
REMARK 922        TOTAL FREE ENERGY PREDICTED BY IDOCK:   -5.82 KCAL/MOL
REMARK 923 INTER-LIGAND FREE ENERGY PREDICTED BY IDOCK:   -5.26 KCAL/MOL
REMARK 924 INTRA-LIGAND FREE ENERGY PREDICTED BY IDOCK:   -0.56 KCAL/MOL
REMARK 927      BINDING AFFINITY PREDICTED BY RF-SCORE:    0.00 PKD
ROOT
HETATM    1  C   UNL     1     -10.394   5.383  70.558  1.00  0.00    -0.344 C  
HETATM    2  C   UNL     1     -11.337   6.448  70.023  1.00  0.00    -0.496 C  
ENDROOT
BRANCH   2   3
HETATM    3  C   UNL     1     -12.226   7.007  71.132  1.00  0.00    -0.427 C  
BRANCH   3   4
HETATM    4  C   UNL     1     -11.394   7.650  72.240  1.00  0.00    -0.355 C  
BRANCH   4   5
HETATM    5  C   UNL     1     -10.765   8.958  71.763  1.00  0.00    -0.432 C  
BRANCH   5   6
HETATM    6  C   UNL     1     -11.810   9.870  71.123  1.00  0.00    -0.472 C  
BRANCH   6   7
HETATM    7  C   UNL     1     -11.348  10.362  69.752  1.00  0.00    -0.353 C  
BRANCH   7   8
HETATM    8  C   UNL     1     -11.807  11.799  69.509  1.00  0.00    -0.402 C  
BRANCH   8   9
HETATM    9  C   UNL     1     -11.513  12.244  68.077  1.00  0.00    -0.378 C  
BRANCH   9  10
HETATM   10  C   UNL     1     -12.014  13.669  67.839  1.00  0.00    -0.382 C  
BRANCH  10  11
HETATM   11  C   UNL     1     -12.021  14.483  69.130  1.00  0.00    -0.344 C  
HETATM   12  C   UNL     1     -11.083  15.666  69.048  1.00  0.00    -0.279 C  
HETATM   13  O   UNL     1     -11.082  16.397  70.188  1.00  0.00    -0.355 OA 
HETATM   14  O   UNL     1     -10.393  15.960  68.086  1.00  0.00    -0.244 OA 
ENDBRANCH  10  11
ENDBRANCH   9  10
ENDBRANCH   8   9
ENDBRANCH   7   8
ENDBRANCH   6   7
ENDBRANCH   5   6
ENDBRANCH   4   5
ENDBRANCH   3   4
ENDBRANCH   2   3
TORSDOF 9
ENDMDL
MODEL      116
REMARK 921   NORMALIZED FREE ENERGY PREDICTED BY IDOCK:   -3.45 KCAL/MOL
REMARK 922        TOTAL FREE ENERGY PREDICTED BY IDOCK:   -5.81 KCAL/MOL
REMARK 923 INTER-LIGAND FREE ENERGY PREDICTED BY IDOCK:   -4.68 KCAL/MOL
REMARK 924 INTRA-LIGAND FREE ENERGY PREDICTED BY IDOCK:   -1.13 KCAL/MOL
REMARK 927      BINDING AFFINITY PREDICTED BY RF-SCORE:    0.00 PKD
ROOT
HETATM    1  C   UNL     1     -10.317   9.337  67.444  1.00  0.00    -0.327 C  
HETATM    2  C   UNL     1      -9.811  10.761  67.281  1.00  0.00    -0.208 C  
ENDROOT
BRANCH   2   3
HETATM    3  C   UNL     1     -10.424  11.428  66.052  1.00  0.00    -0.305 C  
BRANCH   3   4
HETATM    4  C   UNL     1     -11.784  12.044  66.374  1.00  0.00    -0.326 C  
BRANCH   4   5
HETATM    5  C   UNL     1     -12.447  12.595  65.112  1.00  0.00    -0.531 C  
BRANCH   5   6
HETATM    6  C   UNL     1     -12.750  14.085  65.257  1.00  0.00    -0.468 C  
BRANCH   6   7
HETATM    7  C   UNL     1     -11.975  14.908  64.228  1.00  0.00    -0.355 C  
BRANCH   7   8
HETATM    8  C   UNL     1     -11.031  15.890  64.920  1.00  0.00    -0.427 C  
BRANCH   8   9
HETATM    9  C   UNL     1      -9.874  15.164  65.605  1.00  0.00    -0.378 C  
BRANCH   9  10
HETATM   10  C   UNL     1      -9.563  15.800  66.960  1.00  0.00    -0.236 C  
BRANCH  10  11
HETATM   11  C   UNL     1     -10.835  16.059  67.762  1.00  0.00    -0.324 C  
HETATM   12  C   UNL     1     -11.112  14.943  68.744  1.00  0.00    -0.264 C  
HETATM   13  O   UNL     1     -12.238  15.163  69.463  1.00  0.00    -0.292 OA 
HETATM   14  O   UNL     1     -10.425  13.947  68.899  1.00  0.00    -0.237 OA 
ENDBRANCH  10  11
ENDBRANCH   9  10
ENDBRANCH   8   9
ENDBRANCH   7   8
ENDBRANCH   6   7
ENDBRANCH   5   6
ENDBRANCH   4   5
ENDBRANCH   3   4
ENDBRANCH   2   3
TORSDOF 9
ENDMDL
MODEL      117
REMARK 921   NORMALIZED FREE ENERGY PREDICTED BY IDOCK:   -3.45 KCAL/MOL
REMARK 922        TOTAL FREE ENERGY PREDICTED BY IDOCK:   -5.81 KCAL/MOL
REMARK 923 INTER-LIGAND FREE ENERGY PREDICTED BY IDOCK:   -4.92 KCAL/MOL
REMARK 924 INTRA-LIGAND FREE ENERGY PREDICTED BY IDOCK:   -0.89 KCAL/MOL
REMARK 927      BINDING AFFINITY PREDICTED BY RF-SCORE:    0.00 PKD
ROOT
HETATM    1  C   UNL     1     -11.856  13.082  67.607  1.00  0.00    -0.401 C  
HETATM    2  C   UNL     1     -11.052  12.396  68.699  1.00  0.00    -0.297 C  
ENDROOT
BRANCH   2   3
HETATM    3  C   UNL     1     -11.944  11.514  69.571  1.00  0.00    -0.402 C  
BRANCH   3   4
HETATM    4  C   UNL     1     -12.395  12.252  70.829  1.00  0.00    -0.383 C  
BRANCH   4   5
HETATM    5  C   UNL     1     -13.158  11.318  71.768  1.00  0.00    -0.527 C  
BRANCH   5   6
HETATM    6  C   UNL     1     -13.091   9.872  71.279  1.00  0.00    -0.487 C  
BRANCH   6   7
HETATM    7  C   UNL     1     -12.361   8.983  72.285  1.00  0.00    -0.402 C  
BRANCH   7   8
HETATM    8  C   UNL     1     -10.941   8.680  71.810  1.00  0.00    -0.396 C  
BRANCH   8   9
HETATM    9  C   UNL     1     -10.940   8.052  70.418  1.00  0.00    -0.248 C  
BRANCH   9  10
HETATM   10  C   UNL     1     -11.442   6.609  70.474  1.00  0.00    -0.432 C  
BRANCH  10  11
HETATM   11  C   UNL     1     -10.347   5.652  70.938  1.00  0.00    -0.303 C  
HETATM   12  C   UNL     1     -10.638   5.097  72.314  1.00  0.00    -0.218 C  
HETATM   13  O   UNL     1      -9.673   4.246  72.736  1.00  0.00    -0.128 OA 
HETATM   14  O   UNL     1     -11.615   5.362  72.994  1.00  0.00    -0.296 OA 
ENDBRANCH  10  11
ENDBRANCH   9  10
ENDBRANCH   8   9
ENDBRANCH   7   8
ENDBRANCH   6   7
ENDBRANCH   5   6
ENDBRANCH   4   5
ENDBRANCH   3   4
ENDBRANCH   2   3
TORSDOF 9
ENDMDL
MODEL      118
REMARK 921   NORMALIZED FREE ENERGY PREDICTED BY IDOCK:   -3.44 KCAL/MOL
REMARK 922        TOTAL FREE ENERGY PREDICTED BY IDOCK:   -5.79 KCAL/MOL
REMARK 923 INTER-LIGAND FREE ENERGY PREDICTED BY IDOCK:   -5.27 KCAL/MOL
REMARK 924 INTRA-LIGAND FREE ENERGY PREDICTED BY IDOCK:   -0.52 KCAL/MOL
REMARK 927      BINDING AFFINITY PREDICTED BY RF-SCORE:    0.00 PKD
ROOT
HETATM    1  C   UNL     1     -12.535   7.335  71.456  1.00  0.00    -0.408 C  
HETATM    2  C   UNL     1     -11.486   7.971  72.353  1.00  0.00    -0.449 C  
ENDROOT
BRANCH   2   3
HETATM    3  C   UNL     1     -10.807   9.150  71.659  1.00  0.00    -0.442 C  
BRANCH   3   4
HETATM    4  C   UNL     1     -11.704   9.750  70.578  1.00  0.00    -0.343 C  
BRANCH   4   5
HETATM    5  C   UNL     1     -12.453  10.973  71.105  1.00  0.00    -0.502 C  
BRANCH   5   6
HETATM    6  C   UNL     1     -12.119  12.218  70.285  1.00  0.00    -0.376 C  
BRANCH   6   7
HETATM    7  C   UNL     1     -12.455  13.493  71.058  1.00  0.00    -0.451 C  
BRANCH   7   8
HETATM    8  C   UNL     1     -12.251  14.728  70.181  1.00  0.00    -0.391 C  
BRANCH   8   9
HETATM    9  C   UNL     1     -11.662  14.356  68.821  1.00  0.00    -0.372 C  
BRANCH   9  10
HETATM   10  C   UNL     1     -10.228  14.870  68.693  1.00  0.00    -0.236 C  
BRANCH  10  11
HETATM   11  C   UNL     1     -10.067  16.247  69.333  1.00  0.00    -0.253 C  
HETATM   12  C   UNL     1     -10.186  17.354  68.311  1.00  0.00    -0.362 C  
HETATM   13  O   UNL     1     -10.046  18.581  68.868  1.00  0.00    -0.386 OA 
HETATM   14  O   UNL     1     -10.383  17.200  67.117  1.00  0.00    -0.303 OA 
ENDBRANCH  10  11
ENDBRANCH   9  10
ENDBRANCH   8   9
ENDBRANCH   7   8
ENDBRANCH   6   7
ENDBRANCH   5   6
ENDBRANCH   4   5
ENDBRANCH   3   4
ENDBRANCH   2   3
TORSDOF 9
ENDMDL
MODEL      119
REMARK 921   NORMALIZED FREE ENERGY PREDICTED BY IDOCK:   -3.43 KCAL/MOL
REMARK 922        TOTAL FREE ENERGY PREDICTED BY IDOCK:   -5.78 KCAL/MOL
REMARK 923 INTER-LIGAND FREE ENERGY PREDICTED BY IDOCK:   -4.45 KCAL/MOL
REMARK 924 INTRA-LIGAND FREE ENERGY PREDICTED BY IDOCK:   -1.33 KCAL/MOL
REMARK 927      BINDING AFFINITY PREDICTED BY RF-SCORE:    0.00 PKD
ROOT
HETATM    1  C   UNL     1     -11.016  12.017  64.530  1.00  0.00    -0.369 C  
HETATM    2  C   UNL     1     -12.409  12.624  64.565  1.00  0.00    -0.537 C  
ENDROOT
BRANCH   2   3
HETATM    3  C   UNL     1     -12.345  14.149  64.617  1.00  0.00    -0.432 C  
BRANCH   3   4
HETATM    4  C   UNL     1     -11.016  14.631  65.195  1.00  0.00    -0.395 C  
BRANCH   4   5
HETATM    5  C   UNL     1     -11.170  15.033  66.661  1.00  0.00    -0.311 C  
BRANCH   5   6
HETATM    6  C   UNL     1      -9.903  14.718  67.453  1.00  0.00    -0.222 C  
BRANCH   6   7
HETATM    7  C   UNL     1      -9.951  13.303  68.030  1.00  0.00    -0.233 C  
BRANCH   7   8
HETATM    8  C   UNL     1     -11.340  12.990  68.584  1.00  0.00    -0.329 C  
BRANCH   8   9
HETATM    9  C   UNL     1     -11.748  11.548  68.286  1.00  0.00    -0.371 C  
BRANCH   9  10
HETATM   10  C   UNL     1     -10.529  10.625  68.308  1.00  0.00    -0.214 C  
BRANCH  10  11
HETATM   11  C   UNL     1     -10.605   9.572  67.206  1.00  0.00    -0.317 C  
HETATM   12  C   UNL     1     -10.502   8.171  67.764  1.00  0.00    -0.214 C  
HETATM   13  O   UNL     1     -10.569   7.228  66.795  1.00  0.00    -0.298 OA 
HETATM   14  O   UNL     1     -10.373   7.885  68.943  1.00  0.00    -0.210 OA 
ENDBRANCH  10  11
ENDBRANCH   9  10
ENDBRANCH   8   9
ENDBRANCH   7   8
ENDBRANCH   6   7
ENDBRANCH   5   6
ENDBRANCH   4   5
ENDBRANCH   3   4
ENDBRANCH   2   3
TORSDOF 9
ENDMDL
MODEL      120
REMARK 921   NORMALIZED FREE ENERGY PREDICTED BY IDOCK:   -3.42 KCAL/MOL
REMARK 922        TOTAL FREE ENERGY PREDICTED BY IDOCK:   -5.77 KCAL/MOL
REMARK 923 INTER-LIGAND FREE ENERGY PREDICTED BY IDOCK:   -4.87 KCAL/MOL
REMARK 924 INTRA-LIGAND FREE ENERGY PREDICTED BY IDOCK:   -0.90 KCAL/MOL
REMARK 927      BINDING AFFINITY PREDICTED BY RF-SCORE:    0.00 PKD
ROOT
HETATM    1  C   UNL     1     -13.917  13.821  72.228  1.00  0.00    -0.672 C  
HETATM    2  C   UNL     1     -13.133  12.854  71.355  1.00  0.00    -0.331 C  
ENDROOT
BRANCH   2   3
HETATM    3  C   UNL     1     -13.161  11.441  71.933  1.00  0.00    -0.505 C  
BRANCH   3   4
HETATM    4  C   UNL     1     -12.981  10.390  70.840  1.00  0.00    -0.475 C  
BRANCH   4   5
HETATM    5  C   UNL     1     -11.523   9.944  70.745  1.00  0.00    -0.433 C  
BRANCH   5   6
HETATM    6  C   UNL     1     -10.799  10.669  69.612  1.00  0.00    -0.318 C  
BRANCH   6   7
HETATM    7  C   UNL     1     -11.740  10.939  68.439  1.00  0.00    -0.290 C  
BRANCH   7   8
HETATM    8  C   UNL     1     -11.572  12.369  67.927  1.00  0.00    -0.415 C  
BRANCH   8   9
HETATM    9  C   UNL     1     -10.098  12.762  67.842  1.00  0.00    -0.231 C  
BRANCH   9  10
HETATM   10  C   UNL     1      -9.546  12.493  66.442  1.00  0.00    -0.247 C  
BRANCH  10  11
HETATM   11  C   UNL     1      -8.851  11.136  66.366  1.00  0.00    -0.182 C  
HETATM   12  C   UNL     1      -9.456  10.258  65.294  1.00  0.00    -0.240 C  
HETATM   13  O   UNL     1      -8.846   9.052  65.216  1.00  0.00    -0.183 OA 
HETATM   14  O   UNL     1     -10.384  10.567  64.565  1.00  0.00    -0.348 OA 
ENDBRANCH  10  11
ENDBRANCH   9  10
ENDBRANCH   8   9
ENDBRANCH   7   8
ENDBRANCH   6   7
ENDBRANCH   5   6
ENDBRANCH   4   5
ENDBRANCH   3   4
ENDBRANCH   2   3
TORSDOF 9
ENDMDL
MODEL      121
REMARK 921   NORMALIZED FREE ENERGY PREDICTED BY IDOCK:   -3.42 KCAL/MOL
REMARK 922        TOTAL FREE ENERGY PREDICTED BY IDOCK:   -5.76 KCAL/MOL
REMARK 923 INTER-LIGAND FREE ENERGY PREDICTED BY IDOCK:   -5.08 KCAL/MOL
REMARK 924 INTRA-LIGAND FREE ENERGY PREDICTED BY IDOCK:   -0.68 KCAL/MOL
REMARK 927      BINDING AFFINITY PREDICTED BY RF-SCORE:    0.00 PKD
ROOT
HETATM    1  C   UNL     1     -12.626  13.956  65.376  1.00  0.00    -0.538 C  
HETATM    2  C   UNL     1     -12.153  13.675  63.959  1.00  0.00    -0.474 C  
ENDROOT
BRANCH   2   3
HETATM    3  C   UNL     1     -12.093  12.174  63.684  1.00  0.00    -0.648 C  
BRANCH   3   4
HETATM    4  C   UNL     1     -10.658  11.654  63.741  1.00  0.00    -0.473 C  
BRANCH   4   5
HETATM    5  C   UNL     1     -10.501  10.600  64.835  1.00  0.00    -0.282 C  
BRANCH   5   6
HETATM    6  C   UNL     1      -9.997  11.225  66.134  1.00  0.00    -0.268 C  
BRANCH   6   7
HETATM    7  C   UNL     1     -11.108  11.293  67.181  1.00  0.00    -0.364 C  
BRANCH   7   8
HETATM    8  C   UNL     1     -11.159  10.004  68.002  1.00  0.00    -0.263 C  
BRANCH   8   9
HETATM    9  C   UNL     1     -10.002   9.930  68.996  1.00  0.00    -0.193 C  
BRANCH   9  10
HETATM   10  C   UNL     1     -10.002   8.588  69.728  1.00  0.00    -0.191 C  
BRANCH  10  11
HETATM   11  C   UNL     1     -11.148   8.497  70.732  1.00  0.00    -0.288 C  
HETATM   12  C   UNL     1     -11.807   7.137  70.706  1.00  0.00    -0.325 C  
HETATM   13  O   UNL     1     -12.825   7.045  71.594  1.00  0.00    -0.366 OA 
HETATM   14  O   UNL     1     -11.487   6.208  69.983  1.00  0.00    -0.406 OA 
ENDBRANCH  10  11
ENDBRANCH   9  10
ENDBRANCH   8   9
ENDBRANCH   7   8
ENDBRANCH   6   7
ENDBRANCH   5   6
ENDBRANCH   4   5
ENDBRANCH   3   4
ENDBRANCH   2   3
TORSDOF 9
ENDMDL
MODEL      122
REMARK 921   NORMALIZED FREE ENERGY PREDICTED BY IDOCK:   -3.42 KCAL/MOL
REMARK 922        TOTAL FREE ENERGY PREDICTED BY IDOCK:   -5.76 KCAL/MOL
REMARK 923 INTER-LIGAND FREE ENERGY PREDICTED BY IDOCK:   -4.87 KCAL/MOL
REMARK 924 INTRA-LIGAND FREE ENERGY PREDICTED BY IDOCK:   -0.89 KCAL/MOL
REMARK 927      BINDING AFFINITY PREDICTED BY RF-SCORE:    0.00 PKD
ROOT
HETATM    1  C   UNL     1      -9.509   4.037  66.937  1.00  0.00    -0.220 C  
HETATM    2  C   UNL     1     -10.475   4.870  66.110  1.00  0.00    -0.346 C  
ENDROOT
BRANCH   2   3
HETATM    3  C   UNL     1     -10.727   6.229  66.758  1.00  0.00    -0.364 C  
BRANCH   3   4
HETATM    4  C   UNL     1      -9.592   6.613  67.706  1.00  0.00    -0.129 C  
BRANCH   4   5
HETATM    5  C   UNL     1     -10.141   7.166  69.020  1.00  0.00    -0.183 C  
BRANCH   5   6
HETATM    6  C   UNL     1     -11.284   6.301  69.547  1.00  0.00    -0.500 C  
BRANCH   6   7
HETATM    7  C   UNL     1     -11.266   6.233  71.073  1.00  0.00    -0.372 C  
BRANCH   7   8
HETATM    8  C   UNL     1     -10.255   7.224  71.648  1.00  0.00    -0.207 C  
BRANCH   8   9
HETATM    9  C   UNL     1     -10.923   8.211  72.605  1.00  0.00    -0.440 C  
BRANCH   9  10
HETATM   10  C   UNL     1     -12.129   8.876  71.942  1.00  0.00    -0.443 C  
BRANCH  10  11
HETATM   11  C   UNL     1     -11.698   9.932  70.927  1.00  0.00    -0.449 C  
HETATM   12  C   UNL     1     -12.440  11.234  71.127  1.00  0.00    -0.373 C  
HETATM   13  O   UNL     1     -12.065  12.178  70.232  1.00  0.00    -0.339 OA 
HETATM   14  O   UNL     1     -13.283  11.445  71.982  1.00  0.00    -0.503 OA 
ENDBRANCH  10  11
ENDBRANCH   9  10
ENDBRANCH   8   9
ENDBRANCH   7   8
ENDBRANCH   6   7
ENDBRANCH   5   6
ENDBRANCH   4   5
ENDBRANCH   3   4
ENDBRANCH   2   3
TORSDOF 9
ENDMDL
MODEL      123
REMARK 921   NORMALIZED FREE ENERGY PREDICTED BY IDOCK:   -3.40 KCAL/MOL
REMARK 922        TOTAL FREE ENERGY PREDICTED BY IDOCK:   -5.74 KCAL/MOL
REMARK 923 INTER-LIGAND FREE ENERGY PREDICTED BY IDOCK:   -5.16 KCAL/MOL
REMARK 924 INTRA-LIGAND FREE ENERGY PREDICTED BY IDOCK:   -0.58 KCAL/MOL
REMARK 927      BINDING AFFINITY PREDICTED BY RF-SCORE:    0.00 PKD
ROOT
HETATM    1  C   UNL     1      -7.670   8.866  63.735  1.00  0.00    -0.129 C  
HETATM    2  C   UNL     1      -8.287   8.092  64.889  1.00  0.00    -0.133 C  
ENDROOT
BRANCH   2   3
HETATM    3  C   UNL     1      -9.118   9.007  65.785  1.00  0.00    -0.272 C  
BRANCH   3   4
HETATM    4  C   UNL     1      -9.039  10.460  65.323  1.00  0.00    -0.227 C  
BRANCH   4   5
HETATM    5  C   UNL     1     -10.422  11.110  65.321  1.00  0.00    -0.326 C  
BRANCH   5   6
HETATM    6  C   UNL     1     -10.757  11.687  63.947  1.00  0.00    -0.459 C  
BRANCH   6   7
HETATM    7  C   UNL     1     -11.799  12.799  64.055  1.00  0.00    -0.506 C  
BRANCH   7   8
HETATM    8  C   UNL     1     -12.376  12.866  65.469  1.00  0.00    -0.517 C  
BRANCH   8   9
HETATM    9  C   UNL     1     -12.003  14.176  66.161  1.00  0.00    -0.437 C  
BRANCH   9  10
HETATM   10  C   UNL     1     -10.814  14.838  65.464  1.00  0.00    -0.359 C  
BRANCH  10  11
HETATM   11  C   UNL     1     -10.276  16.017  66.271  1.00  0.00    -0.329 C  
HETATM   12  C   UNL     1     -10.608  17.339  65.617  1.00  0.00    -0.166 C  
HETATM   13  O   UNL     1     -10.136  18.392  66.326  1.00  0.00    -0.371 OA 
HETATM   14  O   UNL     1     -11.225  17.479  64.575  1.00  0.00    -0.926 OA 
ENDBRANCH  10  11
ENDBRANCH   9  10
ENDBRANCH   8   9
ENDBRANCH   7   8
ENDBRANCH   6   7
ENDBRANCH   5   6
ENDBRANCH   4   5
ENDBRANCH   3   4
ENDBRANCH   2   3
TORSDOF 9
ENDMDL
MODEL      124
REMARK 921   NORMALIZED FREE ENERGY PREDICTED BY IDOCK:   -3.40 KCAL/MOL
REMARK 922        TOTAL FREE ENERGY PREDICTED BY IDOCK:   -5.74 KCAL/MOL
REMARK 923 INTER-LIGAND FREE ENERGY PREDICTED BY IDOCK:   -4.32 KCAL/MOL
REMARK 924 INTRA-LIGAND FREE ENERGY PREDICTED BY IDOCK:   -1.42 KCAL/MOL
REMARK 927      BINDING AFFINITY PREDICTED BY RF-SCORE:    0.00 PKD
ROOT
HETATM    1  C   UNL     1     -11.216   6.315  69.315  1.00  0.00    -0.458 C  
HETATM    2  C   UNL     1     -11.083   6.293  70.830  1.00  0.00    -0.377 C  
ENDROOT
BRANCH   2   3
HETATM    3  C   UNL     1     -12.331   6.859  71.503  1.00  0.00    -0.420 C  
BRANCH   3   4
HETATM    4  C   UNL     1     -11.996   8.081  72.356  1.00  0.00    -0.405 C  
BRANCH   4   5
HETATM    5  C   UNL     1     -13.219   8.981  72.526  1.00  0.00    -0.467 C  
BRANCH   5   6
HETATM    6  C   UNL     1     -13.349   9.958  71.360  1.00  0.00    -0.447 C  
BRANCH   6   7
HETATM    7  C   UNL     1     -11.983  10.497  70.936  1.00  0.00    -0.481 C  
BRANCH   7   8
HETATM    8  C   UNL     1     -11.785  10.349  69.428  1.00  0.00    -0.231 C  
BRANCH   8   9
HETATM    9  C   UNL     1     -10.405   9.781  69.099  1.00  0.00    -0.225 C  
BRANCH   9  10
HETATM   10  C   UNL     1      -9.493   9.831  70.325  1.00  0.00    -0.250 C  
BRANCH  10  11
HETATM   11  C   UNL     1      -8.524   8.652  70.350  1.00  0.00    -0.144 C  
HETATM   12  C   UNL     1      -7.094   9.108  70.528  1.00  0.00    -0.088 C  
HETATM   13  O   UNL     1      -6.225   8.070  70.553  1.00  0.00    -0.036 OA 
HETATM   14  O   UNL     1      -6.728  10.266  70.640  1.00  0.00    -0.287 OA 
ENDBRANCH  10  11
ENDBRANCH   9  10
ENDBRANCH   8   9
ENDBRANCH   7   8
ENDBRANCH   6   7
ENDBRANCH   5   6
ENDBRANCH   4   5
ENDBRANCH   3   4
ENDBRANCH   2   3
TORSDOF 9
ENDMDL
MODEL      125
REMARK 921   NORMALIZED FREE ENERGY PREDICTED BY IDOCK:   -3.39 KCAL/MOL
REMARK 922        TOTAL FREE ENERGY PREDICTED BY IDOCK:   -5.73 KCAL/MOL
REMARK 923 INTER-LIGAND FREE ENERGY PREDICTED BY IDOCK:   -4.44 KCAL/MOL
REMARK 924 INTRA-LIGAND FREE ENERGY PREDICTED BY IDOCK:   -1.29 KCAL/MOL
REMARK 927      BINDING AFFINITY PREDICTED BY RF-SCORE:    0.00 PKD
ROOT
HETATM    1  C   UNL     1      -8.998  10.143  64.232  1.00  0.00    -0.267 C  
HETATM    2  C   UNL     1      -9.070   9.939  65.737  1.00  0.00    -0.208 C  
ENDROOT
BRANCH   2   3
HETATM    3  C   UNL     1     -10.031   8.808  66.096  1.00  0.00    -0.244 C  
BRANCH   3   4
HETATM    4  C   UNL     1     -10.609   8.994  67.498  1.00  0.00    -0.306 C  
BRANCH   4   5
HETATM    5  C   UNL     1      -9.499   9.230  68.521  1.00  0.00    -0.150 C  
BRANCH   5   6
HETATM    6  C   UNL     1      -9.805  10.445  69.394  1.00  0.00    -0.235 C  
BRANCH   6   7
HETATM    7  C   UNL     1     -11.300  10.542  69.699  1.00  0.00    -0.345 C  
BRANCH   7   8
HETATM    8  C   UNL     1     -11.810  11.962  69.459  1.00  0.00    -0.395 C  
BRANCH   8   9
HETATM    9  C   UNL     1     -10.850  12.760  68.579  1.00  0.00    -0.279 C  
BRANCH   9  10
HETATM   10  C   UNL     1     -11.577  13.329  67.361  1.00  0.00    -0.396 C  
BRANCH  10  11
HETATM   11  C   UNL     1     -11.766  12.272  66.277  1.00  0.00    -0.431 C  
HETATM   12  C   UNL     1     -11.900  12.897  64.906  1.00  0.00    -0.366 C  
HETATM   13  O   UNL     1     -12.067  11.967  63.935  1.00  0.00    -0.440 OA 
HETATM   14  O   UNL     1     -11.867  14.092  64.665  1.00  0.00    -0.376 OA 
ENDBRANCH  10  11
ENDBRANCH   9  10
ENDBRANCH   8   9
ENDBRANCH   7   8
ENDBRANCH   6   7
ENDBRANCH   5   6
ENDBRANCH   4   5
ENDBRANCH   3   4
ENDBRANCH   2   3
TORSDOF 9
ENDMDL
MODEL      126
REMARK 921   NORMALIZED FREE ENERGY PREDICTED BY IDOCK:   -3.37 KCAL/MOL
REMARK 922        TOTAL FREE ENERGY PREDICTED BY IDOCK:   -5.69 KCAL/MOL
REMARK 923 INTER-LIGAND FREE ENERGY PREDICTED BY IDOCK:   -5.13 KCAL/MOL
REMARK 924 INTRA-LIGAND FREE ENERGY PREDICTED BY IDOCK:   -0.56 KCAL/MOL
REMARK 927      BINDING AFFINITY PREDICTED BY RF-SCORE:    0.00 PKD
ROOT
HETATM    1  C   UNL     1      -7.414  20.258  67.315  1.00  0.00    -0.338 C  
HETATM    2  C   UNL     1      -8.179  19.753  66.103  1.00  0.00    -0.363 C  
ENDROOT
BRANCH   2   3
HETATM    3  C   UNL     1      -9.678  20.010  66.248  1.00  0.00    -0.546 C  
BRANCH   3   4
HETATM    4  C   UNL     1     -10.247  19.302  67.475  1.00  0.00    -0.514 C  
BRANCH   4   5
HETATM    5  C   UNL     1     -10.750  17.905  67.116  1.00  0.00    -0.241 C  
BRANCH   5   6
HETATM    6  C   UNL     1     -10.335  16.882  68.172  1.00  0.00    -0.336 C  
BRANCH   6   7
HETATM    7  C   UNL     1     -10.231  15.481  67.572  1.00  0.00    -0.254 C  
BRANCH   7   8
HETATM    8  C   UNL     1     -10.952  15.412  66.226  1.00  0.00    -0.278 C  
BRANCH   8   9
HETATM    9  C   UNL     1     -10.040  14.862  65.131  1.00  0.00    -0.354 C  
BRANCH   9  10
HETATM   10  C   UNL     1     -10.624  13.581  64.534  1.00  0.00    -0.439 C  
BRANCH  10  11
HETATM   11  C   UNL     1     -11.658  12.951  65.462  1.00  0.00    -0.395 C  
HETATM   12  C   UNL     1     -11.031  11.928  66.382  1.00  0.00    -0.292 C  
HETATM   13  O   UNL     1     -11.940  11.362  67.212  1.00  0.00    -0.580 OA 
HETATM   14  O   UNL     1      -9.851  11.622  66.404  1.00  0.00    -0.199 OA 
ENDBRANCH  10  11
ENDBRANCH   9  10
ENDBRANCH   8   9
ENDBRANCH   7   8
ENDBRANCH   6   7
ENDBRANCH   5   6
ENDBRANCH   4   5
ENDBRANCH   3   4
ENDBRANCH   2   3
TORSDOF 9
ENDMDL
MODEL      127
REMARK 921   NORMALIZED FREE ENERGY PREDICTED BY IDOCK:   -3.37 KCAL/MOL
REMARK 922        TOTAL FREE ENERGY PREDICTED BY IDOCK:   -5.68 KCAL/MOL
REMARK 923 INTER-LIGAND FREE ENERGY PREDICTED BY IDOCK:   -4.51 KCAL/MOL
REMARK 924 INTRA-LIGAND FREE ENERGY PREDICTED BY IDOCK:   -1.17 KCAL/MOL
REMARK 927      BINDING AFFINITY PREDICTED BY RF-SCORE:    0.00 PKD
ROOT
HETATM    1  C   UNL     1      -6.590  14.740  67.628  1.00  0.00    -0.181 C  
HETATM    2  C   UNL     1      -8.070  14.574  67.321  1.00  0.00    -0.219 C  
ENDROOT
BRANCH   2   3
HETATM    3  C   UNL     1      -8.455  13.099  67.240  1.00  0.00    -0.199 C  
BRANCH   3   4
HETATM    4  C   UNL     1      -9.873  12.865  67.758  1.00  0.00    -0.221 C  
BRANCH   4   5
HETATM    5  C   UNL     1     -10.191  11.372  67.825  1.00  0.00    -0.202 C  
BRANCH   5   6
HETATM    6  C   UNL     1      -9.368  10.587  66.806  1.00  0.00    -0.180 C  
BRANCH   6   7
HETATM    7  C   UNL     1     -10.259   9.994  65.716  1.00  0.00    -0.270 C  
BRANCH   7   8
HETATM    8  C   UNL     1      -9.489   9.848  64.405  1.00  0.00    -0.304 C  
BRANCH   8   9
HETATM    9  C   UNL     1      -9.289  11.199  63.721  1.00  0.00    -0.204 C  
BRANCH   9  10
HETATM   10  C   UNL     1     -10.633  11.885  63.474  1.00  0.00    -0.507 C  
BRANCH  10  11
HETATM   11  C   UNL     1     -10.736  13.205  64.234  1.00  0.00    -0.431 C  
HETATM   12  C   UNL     1     -12.111  13.398  64.832  1.00  0.00    -0.392 C  
HETATM   13  O   UNL     1     -12.214  14.566  65.510  1.00  0.00    -0.353 OA 
HETATM   14  O   UNL     1     -13.042  12.617  64.736  1.00  0.00    -0.852 OA 
ENDBRANCH  10  11
ENDBRANCH   9  10
ENDBRANCH   8   9
ENDBRANCH   7   8
ENDBRANCH   6   7
ENDBRANCH   5   6
ENDBRANCH   4   5
ENDBRANCH   3   4
ENDBRANCH   2   3
TORSDOF 9
ENDMDL
MODEL      128
REMARK 921   NORMALIZED FREE ENERGY PREDICTED BY IDOCK:   -3.36 KCAL/MOL
REMARK 922        TOTAL FREE ENERGY PREDICTED BY IDOCK:   -5.68 KCAL/MOL
REMARK 923 INTER-LIGAND FREE ENERGY PREDICTED BY IDOCK:   -5.10 KCAL/MOL
REMARK 924 INTRA-LIGAND FREE ENERGY PREDICTED BY IDOCK:   -0.58 KCAL/MOL
REMARK 927      BINDING AFFINITY PREDICTED BY RF-SCORE:    0.00 PKD
ROOT
HETATM    1  C   UNL     1     -12.260  13.020  63.578  1.00  0.00    -0.580 C  
HETATM    2  C   UNL     1     -12.315  13.653  64.959  1.00  0.00    -0.462 C  
ENDROOT
BRANCH   2   3
HETATM    3  C   UNL     1     -11.035  13.377  65.744  1.00  0.00    -0.288 C  
BRANCH   3   4
HETATM    4  C   UNL     1     -10.821  14.418  66.842  1.00  0.00    -0.301 C  
BRANCH   4   5
HETATM    5  C   UNL     1      -9.374  14.909  66.855  1.00  0.00    -0.258 C  
BRANCH   5   6
HETATM    6  C   UNL     1      -9.210  16.110  67.785  1.00  0.00    -0.202 C  
BRANCH   6   7
HETATM    7  C   UNL     1      -7.870  16.808  67.553  1.00  0.00    -0.187 C  
BRANCH   7   8
HETATM    8  C   UNL     1      -7.675  17.950  68.549  1.00  0.00    -0.299 C  
BRANCH   8   9
HETATM    9  C   UNL     1      -7.204  19.225  67.850  1.00  0.00    -0.285 C  
BRANCH   9  10
HETATM   10  C   UNL     1      -8.383  20.160  67.578  1.00  0.00    -0.383 C  
BRANCH  10  11
HETATM   11  C   UNL     1      -8.999  19.901  66.206  1.00  0.00    -0.419 C  
HETATM   12  C   UNL     1     -10.412  19.373  66.320  1.00  0.00    -0.493 C  
HETATM   13  O   UNL     1     -10.969  19.140  65.108  1.00  0.00    -0.464 OA 
HETATM   14  O   UNL     1     -11.011  19.168  67.362  1.00  0.00    -0.475 OA 
ENDBRANCH  10  11
ENDBRANCH   9  10
ENDBRANCH   8   9
ENDBRANCH   7   8
ENDBRANCH   6   7
ENDBRANCH   5   6
ENDBRANCH   4   5
ENDBRANCH   3   4
ENDBRANCH   2   3
TORSDOF 9
ENDMDL
MODEL      129
REMARK 921   NORMALIZED FREE ENERGY PREDICTED BY IDOCK:   -3.36 KCAL/MOL
REMARK 922        TOTAL FREE ENERGY PREDICTED BY IDOCK:   -5.67 KCAL/MOL
REMARK 923 INTER-LIGAND FREE ENERGY PREDICTED BY IDOCK:   -5.11 KCAL/MOL
REMARK 924 INTRA-LIGAND FREE ENERGY PREDICTED BY IDOCK:   -0.56 KCAL/MOL
REMARK 927      BINDING AFFINITY PREDICTED BY RF-SCORE:    0.00 PKD
ROOT
HETATM    1  C   UNL     1     -12.277  11.593  70.629  1.00  0.00    -0.461 C  
HETATM    2  C   UNL     1     -13.286  11.565  71.766  1.00  0.00    -0.456 C  
ENDROOT
BRANCH   2   3
HETATM    3  C   UNL     1     -13.542  12.968  72.312  1.00  0.00    -0.643 C  
BRANCH   3   4
HETATM    4  C   UNL     1     -13.098  14.041  71.320  1.00  0.00    -0.399 C  
BRANCH   4   5
HETATM    5  C   UNL     1     -12.246  15.105  72.011  1.00  0.00    -0.438 C  
BRANCH   5   6
HETATM    6  C   UNL     1     -10.941  15.342  71.253  1.00  0.00    -0.210 C  
BRANCH   6   7
HETATM    7  C   UNL     1     -11.179  16.168  69.990  1.00  0.00    -0.359 C  
BRANCH   7   8
HETATM    8  C   UNL     1     -11.216  15.270  68.754  1.00  0.00    -0.293 C  
BRANCH   8   9
HETATM    9  C   UNL     1     -10.840  16.043  67.491  1.00  0.00    -0.292 C  
BRANCH   9  10
HETATM   10  C   UNL     1     -10.063  15.152  66.521  1.00  0.00    -0.279 C  
BRANCH  10  11
HETATM   11  C   UNL     1     -10.937  14.699  65.355  1.00  0.00    -0.358 C  
HETATM   12  C   UNL     1     -11.305  13.237  65.468  1.00  0.00    -0.294 C  
HETATM   13  O   UNL     1     -12.082  12.824  64.439  1.00  0.00    -0.370 OA 
HETATM   14  O   UNL     1     -10.962  12.487  66.367  1.00  0.00    -0.258 OA 
ENDBRANCH  10  11
ENDBRANCH   9  10
ENDBRANCH   8   9
ENDBRANCH   7   8
ENDBRANCH   6   7
ENDBRANCH   5   6
ENDBRANCH   4   5
ENDBRANCH   3   4
ENDBRANCH   2   3
TORSDOF 9
ENDMDL
MODEL      130
REMARK 921   NORMALIZED FREE ENERGY PREDICTED BY IDOCK:   -3.36 KCAL/MOL
REMARK 922        TOTAL FREE ENERGY PREDICTED BY IDOCK:   -5.67 KCAL/MOL
REMARK 923 INTER-LIGAND FREE ENERGY PREDICTED BY IDOCK:   -4.99 KCAL/MOL
REMARK 924 INTRA-LIGAND FREE ENERGY PREDICTED BY IDOCK:   -0.68 KCAL/MOL
REMARK 927      BINDING AFFINITY PREDICTED BY RF-SCORE:    0.00 PKD
ROOT
HETATM    1  C   UNL     1      -8.789   9.568  69.146  1.00  0.00    -0.147 C  
HETATM    2  C   UNL     1      -9.753   8.801  70.037  1.00  0.00    -0.182 C  
ENDROOT
BRANCH   2   3
HETATM    3  C   UNL     1     -11.192   9.268  69.826  1.00  0.00    -0.104 C  
BRANCH   3   4
HETATM    4  C   UNL     1     -11.811   9.768  71.130  1.00  0.00    -0.466 C  
BRANCH   4   5
HETATM    5  C   UNL     1     -12.462  11.137  70.937  1.00  0.00    -0.509 C  
BRANCH   5   6
HETATM    6  C   UNL     1     -12.153  11.703  69.553  1.00  0.00    -0.336 C  
BRANCH   6   7
HETATM    7  C   UNL     1     -11.849  13.199  69.624  1.00  0.00    -0.390 C  
BRANCH   7   8
HETATM    8  C   UNL     1     -11.628  13.774  68.226  1.00  0.00    -0.373 C  
BRANCH   8   9
HETATM    9  C   UNL     1     -10.143  13.809  67.865  1.00  0.00    -0.246 C  
BRANCH   9  10
HETATM   10  C   UNL     1      -9.956  13.937  66.353  1.00  0.00    -0.303 C  
BRANCH  10  11
HETATM   11  C   UNL     1     -11.029  14.826  65.730  1.00  0.00    -0.334 C  
HETATM   12  C   UNL     1     -11.685  14.160  64.542  1.00  0.00    -0.413 C  
HETATM   13  O   UNL     1     -12.640  14.939  63.981  1.00  0.00    -0.832 OA 
HETATM   14  O   UNL     1     -11.413  13.052  64.111  1.00  0.00    -0.360 OA 
ENDBRANCH  10  11
ENDBRANCH   9  10
ENDBRANCH   8   9
ENDBRANCH   7   8
ENDBRANCH   6   7
ENDBRANCH   5   6
ENDBRANCH   4   5
ENDBRANCH   3   4
ENDBRANCH   2   3
TORSDOF 9
ENDMDL
MODEL      131
REMARK 921   NORMALIZED FREE ENERGY PREDICTED BY IDOCK:   -3.36 KCAL/MOL
REMARK 922        TOTAL FREE ENERGY PREDICTED BY IDOCK:   -5.67 KCAL/MOL
REMARK 923 INTER-LIGAND FREE ENERGY PREDICTED BY IDOCK:   -4.20 KCAL/MOL
REMARK 924 INTRA-LIGAND FREE ENERGY PREDICTED BY IDOCK:   -1.46 KCAL/MOL
REMARK 927      BINDING AFFINITY PREDICTED BY RF-SCORE:    0.00 PKD
ROOT
HETATM    1  C   UNL     1     -10.463   5.714  67.815  1.00  0.00    -0.275 C  
HETATM    2  C   UNL     1     -10.466   5.602  69.331  1.00  0.00    -0.367 C  
ENDROOT
BRANCH   2   3
HETATM    3  C   UNL     1     -11.639   6.368  69.939  1.00  0.00    -0.422 C  
BRANCH   3   4
HETATM    4  C   UNL     1     -11.317   6.846  71.354  1.00  0.00    -0.308 C  
BRANCH   4   5
HETATM    5  C   UNL     1     -11.885   8.243  71.602  1.00  0.00    -0.345 C  
BRANCH   5   6
HETATM    6  C   UNL     1     -10.784   9.300  71.565  1.00  0.00    -0.425 C  
BRANCH   6   7
HETATM    7  C   UNL     1      -9.405   8.665  71.740  1.00  0.00    -0.343 C  
BRANCH   7   8
HETATM    8  C   UNL     1      -8.425   9.200  70.696  1.00  0.00    -0.246 C  
BRANCH   8   9
HETATM    9  C   UNL     1      -8.403   8.319  69.448  1.00  0.00    -0.122 C  
BRANCH   9  10
HETATM   10  C   UNL     1      -8.674   9.149  68.194  1.00  0.00    -0.129 C  
BRANCH  10  11
HETATM   11  C   UNL     1     -10.168   9.377  67.984  1.00  0.00    -0.248 C  
HETATM   12  C   UNL     1     -10.508  10.850  67.945  1.00  0.00    -0.195 C  
HETATM   13  O   UNL     1     -11.832  11.064  67.758  1.00  0.00    -0.605 OA 
HETATM   14  O   UNL     1      -9.710  11.765  68.063  1.00  0.00    -0.174 OA 
ENDBRANCH  10  11
ENDBRANCH   9  10
ENDBRANCH   8   9
ENDBRANCH   7   8
ENDBRANCH   6   7
ENDBRANCH   5   6
ENDBRANCH   4   5
ENDBRANCH   3   4
ENDBRANCH   2   3
TORSDOF 9
ENDMDL
MODEL      132
REMARK 921   NORMALIZED FREE ENERGY PREDICTED BY IDOCK:   -3.35 KCAL/MOL
REMARK 922        TOTAL FREE ENERGY PREDICTED BY IDOCK:   -5.66 KCAL/MOL
REMARK 923 INTER-LIGAND FREE ENERGY PREDICTED BY IDOCK:   -4.95 KCAL/MOL
REMARK 924 INTRA-LIGAND FREE ENERGY PREDICTED BY IDOCK:   -0.72 KCAL/MOL
REMARK 927      BINDING AFFINITY PREDICTED BY RF-SCORE:    0.00 PKD
ROOT
HETATM    1  C   UNL     1     -10.812   7.546  70.991  1.00  0.00    -0.249 C  
HETATM    2  C   UNL     1     -11.017   7.036  69.574  1.00  0.00    -0.251 C  
ENDROOT
BRANCH   2   3
HETATM    3  C   UNL     1     -10.254   7.889  68.563  1.00  0.00    -0.229 C  
BRANCH   3   4
HETATM    4  C   UNL     1      -9.771   9.195  69.191  1.00  0.00    -0.163 C  
BRANCH   4   5
HETATM    5  C   UNL     1     -10.215  10.398  68.360  1.00  0.00    -0.186 C  
BRANCH   5   6
HETATM    6  C   UNL     1     -11.626  10.839  68.742  1.00  0.00    -0.350 C  
BRANCH   6   7
HETATM    7  C   UNL     1     -11.703  11.229  70.217  1.00  0.00    -0.415 C  
BRANCH   7   8
HETATM    8  C   UNL     1     -12.520  12.507  70.399  1.00  0.00    -0.215 C  
BRANCH   8   9
HETATM    9  C   UNL     1     -11.673  13.752  70.146  1.00  0.00    -0.303 C  
BRANCH   9  10
HETATM   10  C   UNL     1     -12.436  15.016  70.544  1.00  0.00    -0.425 C  
BRANCH  10  11
HETATM   11  C   UNL     1     -12.026  15.505  71.930  1.00  0.00    -0.506 C  
HETATM   12  C   UNL     1     -13.215  15.616  72.857  1.00  0.00    -0.532 C  
HETATM   13  O   UNL     1     -12.863  16.048  74.091  1.00  0.00    -0.629 OA 
HETATM   14  O   UNL     1     -14.370  15.356  72.563  1.00  0.00    -0.493 OA 
ENDBRANCH  10  11
ENDBRANCH   9  10
ENDBRANCH   8   9
ENDBRANCH   7   8
ENDBRANCH   6   7
ENDBRANCH   5   6
ENDBRANCH   4   5
ENDBRANCH   3   4
ENDBRANCH   2   3
TORSDOF 9
ENDMDL
MODEL      133
REMARK 921   NORMALIZED FREE ENERGY PREDICTED BY IDOCK:   -3.34 KCAL/MOL
REMARK 922        TOTAL FREE ENERGY PREDICTED BY IDOCK:   -5.64 KCAL/MOL
REMARK 923 INTER-LIGAND FREE ENERGY PREDICTED BY IDOCK:   -4.49 KCAL/MOL
REMARK 924 INTRA-LIGAND FREE ENERGY PREDICTED BY IDOCK:   -1.15 KCAL/MOL
REMARK 927      BINDING AFFINITY PREDICTED BY RF-SCORE:    0.00 PKD
ROOT
HETATM    1  C   UNL     1     -12.589  13.697  65.895  1.00  0.00    -0.478 C  
HETATM    2  C   UNL     1     -11.344  14.281  66.543  1.00  0.00    -0.351 C  
ENDROOT
BRANCH   2   3
HETATM    3  C   UNL     1     -11.673  14.932  67.885  1.00  0.00    -0.344 C  
BRANCH   3   4
HETATM    4  C   UNL     1     -11.115  14.117  69.050  1.00  0.00    -0.292 C  
BRANCH   4   5
HETATM    5  C   UNL     1     -12.242  13.474  69.858  1.00  0.00    -0.356 C  
BRANCH   5   6
HETATM    6  C   UNL     1     -11.880  12.049  70.270  1.00  0.00    -0.356 C  
BRANCH   6   7
HETATM    7  C   UNL     1     -11.914  11.103  69.070  1.00  0.00    -0.389 C  
BRANCH   7   8
HETATM    8  C   UNL     1     -10.572  10.389  68.904  1.00  0.00    -0.241 C  
BRANCH   8   9
HETATM    9  C   UNL     1      -9.790  10.942  67.714  1.00  0.00    -0.194 C  
BRANCH   9  10
HETATM   10  C   UNL     1     -10.157  10.194  66.431  1.00  0.00    -0.300 C  
BRANCH  10  11
HETATM   11  C   UNL     1     -10.205  11.134  65.230  1.00  0.00    -0.337 C  
HETATM   12  C   UNL     1      -9.575  10.508  64.006  1.00  0.00    -0.311 C  
HETATM   13  O   UNL     1      -9.613  11.333  62.933  1.00  0.00    -0.348 OA 
HETATM   14  O   UNL     1      -9.082   9.394  63.954  1.00  0.00    -0.196 OA 
ENDBRANCH  10  11
ENDBRANCH   9  10
ENDBRANCH   8   9
ENDBRANCH   7   8
ENDBRANCH   6   7
ENDBRANCH   5   6
ENDBRANCH   4   5
ENDBRANCH   3   4
ENDBRANCH   2   3
TORSDOF 9
ENDMDL
MODEL      134
REMARK 921   NORMALIZED FREE ENERGY PREDICTED BY IDOCK:   -3.32 KCAL/MOL
REMARK 922        TOTAL FREE ENERGY PREDICTED BY IDOCK:   -5.61 KCAL/MOL
REMARK 923 INTER-LIGAND FREE ENERGY PREDICTED BY IDOCK:   -5.07 KCAL/MOL
REMARK 924 INTRA-LIGAND FREE ENERGY PREDICTED BY IDOCK:   -0.54 KCAL/MOL
REMARK 927      BINDING AFFINITY PREDICTED BY RF-SCORE:    0.00 PKD
ROOT
HETATM    1  C   UNL     1     -10.167   8.139  69.334  1.00  0.00    -0.211 C  
HETATM    2  C   UNL     1     -10.853   9.461  69.028  1.00  0.00    -0.161 C  
ENDROOT
BRANCH   2   3
HETATM    3  C   UNL     1     -11.772   9.884  70.172  1.00  0.00    -0.239 C  
BRANCH   3   4
HETATM    4  C   UNL     1     -11.667  11.383  70.443  1.00  0.00    -0.362 C  
BRANCH   4   5
HETATM    5  C   UNL     1     -12.055  12.192  69.206  1.00  0.00    -0.234 C  
BRANCH   5   6
HETATM    6  C   UNL     1     -10.997  13.245  68.883  1.00  0.00    -0.278 C  
BRANCH   6   7
HETATM    7  C   UNL     1     -10.800  13.384  67.374  1.00  0.00    -0.279 C  
BRANCH   7   8
HETATM    8  C   UNL     1      -9.758  12.386  66.869  1.00  0.00    -0.217 C  
BRANCH   8   9
HETATM    9  C   UNL     1     -10.394  11.315  65.984  1.00  0.00    -0.302 C  
BRANCH   9  10
HETATM   10  C   UNL     1     -10.240  11.674  64.505  1.00  0.00    -0.337 C  
BRANCH  10  11
HETATM   11  C   UNL     1     -10.679  13.109  64.228  1.00  0.00    -0.431 C  
HETATM   12  C   UNL     1     -12.138  13.181  63.837  1.00  0.00    -0.470 C  
HETATM   13  O   UNL     1     -12.539  14.450  63.590  1.00  0.00    -0.817 OA 
HETATM   14  O   UNL     1     -12.895  12.229  63.745  1.00  0.00    -0.735 OA 
ENDBRANCH  10  11
ENDBRANCH   9  10
ENDBRANCH   8   9
ENDBRANCH   7   8
ENDBRANCH   6   7
ENDBRANCH   5   6
ENDBRANCH   4   5
ENDBRANCH   3   4
ENDBRANCH   2   3
TORSDOF 9
ENDMDL
MODEL      135
REMARK 921   NORMALIZED FREE ENERGY PREDICTED BY IDOCK:   -3.31 KCAL/MOL
REMARK 922        TOTAL FREE ENERGY PREDICTED BY IDOCK:   -5.60 KCAL/MOL
REMARK 923 INTER-LIGAND FREE ENERGY PREDICTED BY IDOCK:   -5.01 KCAL/MOL
REMARK 924 INTRA-LIGAND FREE ENERGY PREDICTED BY IDOCK:   -0.59 KCAL/MOL
REMARK 927      BINDING AFFINITY PREDICTED BY RF-SCORE:    0.00 PKD
ROOT
HETATM    1  C   UNL     1      -9.171  14.859  66.751  1.00  0.00    -0.281 C  
HETATM    2  C   UNL     1     -10.459  15.656  66.880  1.00  0.00    -0.307 C  
ENDROOT
BRANCH   2   3
HETATM    3  C   UNL     1     -10.601  16.255  68.277  1.00  0.00    -0.300 C  
BRANCH   3   4
HETATM    4  C   UNL     1     -11.839  15.716  68.991  1.00  0.00    -0.379 C  
BRANCH   4   5
HETATM    5  C   UNL     1     -11.448  14.869  70.201  1.00  0.00    -0.320 C  
BRANCH   5   6
HETATM    6  C   UNL     1     -12.225  13.554  70.225  1.00  0.00    -0.417 C  
BRANCH   6   7
HETATM    7  C   UNL     1     -11.611  12.533  69.268  1.00  0.00    -0.378 C  
BRANCH   7   8
HETATM    8  C   UNL     1     -12.274  11.167  69.435  1.00  0.00    -0.329 C  
BRANCH   8   9
HETATM    9  C   UNL     1     -11.393  10.214  70.241  1.00  0.00    -0.387 C  
BRANCH   9  10
HETATM   10  C   UNL     1     -12.128   9.722  71.489  1.00  0.00    -0.493 C  
BRANCH  10  11
HETATM   11  C   UNL     1     -11.441   8.504  72.099  1.00  0.00    -0.446 C  
HETATM   12  C   UNL     1     -12.207   7.231  71.818  1.00  0.00    -0.334 C  
HETATM   13  O   UNL     1     -11.606   6.143  72.355  1.00  0.00    -0.295 OA 
HETATM   14  O   UNL     1     -13.248   7.155  71.187  1.00  0.00    -0.347 OA 
ENDBRANCH  10  11
ENDBRANCH   9  10
ENDBRANCH   8   9
ENDBRANCH   7   8
ENDBRANCH   6   7
ENDBRANCH   5   6
ENDBRANCH   4   5
ENDBRANCH   3   4
ENDBRANCH   2   3
TORSDOF 9
ENDMDL
MODEL      136
REMARK 921   NORMALIZED FREE ENERGY PREDICTED BY IDOCK:   -3.31 KCAL/MOL
REMARK 922        TOTAL FREE ENERGY PREDICTED BY IDOCK:   -5.60 KCAL/MOL
REMARK 923 INTER-LIGAND FREE ENERGY PREDICTED BY IDOCK:   -5.11 KCAL/MOL
REMARK 924 INTRA-LIGAND FREE ENERGY PREDICTED BY IDOCK:   -0.49 KCAL/MOL
REMARK 927      BINDING AFFINITY PREDICTED BY RF-SCORE:    0.00 PKD
ROOT
HETATM    1  C   UNL     1     -12.494   6.961  71.579  1.00  0.00    -0.420 C  
HETATM    2  C   UNL     1     -13.999   7.152  71.490  1.00  0.00    -0.440 C  
ENDROOT
BRANCH   2   3
HETATM    3  C   UNL     1     -14.409   8.542  71.971  1.00  0.00    -0.537 C  
BRANCH   3   4
HETATM    4  C   UNL     1     -13.197   9.357  72.415  1.00  0.00    -0.483 C  
BRANCH   4   5
HETATM    5  C   UNL     1     -13.085  10.653  71.613  1.00  0.00    -0.555 C  
BRANCH   5   6
HETATM    6  C   UNL     1     -12.250  10.448  70.350  1.00  0.00    -0.389 C  
BRANCH   6   7
HETATM    7  C   UNL     1     -11.726  11.779  69.814  1.00  0.00    -0.408 C  
BRANCH   7   8
HETATM    8  C   UNL     1     -11.852  11.838  68.292  1.00  0.00    -0.340 C  
BRANCH   8   9
HETATM    9  C   UNL     1     -11.682  13.265  67.773  1.00  0.00    -0.398 C  
BRANCH   9  10
HETATM   10  C   UNL     1     -10.766  13.290  66.549  1.00  0.00    -0.290 C  
BRANCH  10  11
HETATM   11  C   UNL     1      -9.458  12.550  66.813  1.00  0.00    -0.231 C  
HETATM   12  C   UNL     1      -9.316  11.333  65.928  1.00  0.00    -0.219 C  
HETATM   13  O   UNL     1      -8.158  10.669  66.153  1.00  0.00    -0.143 OA 
HETATM   14  O   UNL     1     -10.129  10.962  65.097  1.00  0.00    -0.256 OA 
ENDBRANCH  10  11
ENDBRANCH   9  10
ENDBRANCH   8   9
ENDBRANCH   7   8
ENDBRANCH   6   7
ENDBRANCH   5   6
ENDBRANCH   4   5
ENDBRANCH   3   4
ENDBRANCH   2   3
TORSDOF 9
ENDMDL
MODEL      137
REMARK 921   NORMALIZED FREE ENERGY PREDICTED BY IDOCK:   -3.31 KCAL/MOL
REMARK 922        TOTAL FREE ENERGY PREDICTED BY IDOCK:   -5.59 KCAL/MOL
REMARK 923 INTER-LIGAND FREE ENERGY PREDICTED BY IDOCK:   -4.86 KCAL/MOL
REMARK 924 INTRA-LIGAND FREE ENERGY PREDICTED BY IDOCK:   -0.74 KCAL/MOL
REMARK 927      BINDING AFFINITY PREDICTED BY RF-SCORE:    0.00 PKD
ROOT
HETATM    1  C   UNL     1      -9.055   9.978  64.259  1.00  0.00    -0.296 C  
HETATM    2  C   UNL     1      -9.270   9.263  65.584  1.00  0.00    -0.291 C  
ENDROOT
BRANCH   2   3
HETATM    3  C   UNL     1      -9.958  10.174  66.598  1.00  0.00    -0.272 C  
BRANCH   3   4
HETATM    4  C   UNL     1     -10.790   9.370  67.594  1.00  0.00    -0.222 C  
BRANCH   4   5
HETATM    5  C   UNL     1     -10.605   7.869  67.375  1.00  0.00    -0.342 C  
BRANCH   5   6
HETATM    6  C   UNL     1     -10.088   7.187  68.640  1.00  0.00    -0.177 C  
BRANCH   6   7
HETATM    7  C   UNL     1     -11.061   6.114  69.125  1.00  0.00    -0.448 C  
BRANCH   7   8
HETATM    8  C   UNL     1     -11.043   6.016  70.650  1.00  0.00    -0.371 C  
BRANCH   8   9
HETATM    9  C   UNL     1     -12.239   6.737  71.270  1.00  0.00    -0.415 C  
BRANCH   9  10
HETATM   10  C   UNL     1     -11.775   7.775  72.292  1.00  0.00    -0.390 C  
BRANCH  10  11
HETATM   11  C   UNL     1     -11.516   9.129  71.637  1.00  0.00    -0.451 C  
HETATM   12  C   UNL     1     -12.740  10.016  71.688  1.00  0.00    -0.435 C  
HETATM   13  O   UNL     1     -12.522  11.221  71.110  1.00  0.00    -0.379 OA 
HETATM   14  O   UNL     1     -13.813   9.716  72.183  1.00  0.00    -0.366 OA 
ENDBRANCH  10  11
ENDBRANCH   9  10
ENDBRANCH   8   9
ENDBRANCH   7   8
ENDBRANCH   6   7
ENDBRANCH   5   6
ENDBRANCH   4   5
ENDBRANCH   3   4
ENDBRANCH   2   3
TORSDOF 9
ENDMDL
MODEL      138
REMARK 921   NORMALIZED FREE ENERGY PREDICTED BY IDOCK:   -3.29 KCAL/MOL
REMARK 922        TOTAL FREE ENERGY PREDICTED BY IDOCK:   -5.57 KCAL/MOL
REMARK 923 INTER-LIGAND FREE ENERGY PREDICTED BY IDOCK:   -4.57 KCAL/MOL
REMARK 924 INTRA-LIGAND FREE ENERGY PREDICTED BY IDOCK:   -1.00 KCAL/MOL
REMARK 927      BINDING AFFINITY PREDICTED BY RF-SCORE:    0.00 PKD
ROOT
HETATM    1  C   UNL     1     -12.702  13.889  65.250  1.00  0.00    -0.485 C  
HETATM    2  C   UNL     1     -11.219  14.216  65.323  1.00  0.00    -0.326 C  
ENDROOT
BRANCH   2   3
HETATM    3  C   UNL     1     -10.948  15.654  64.884  1.00  0.00    -0.447 C  
BRANCH   3   4
HETATM    4  C   UNL     1      -9.933  16.333  65.801  1.00  0.00    -0.353 C  
BRANCH   4   5
HETATM    5  C   UNL     1     -10.594  16.802  67.096  1.00  0.00    -0.256 C  
BRANCH   5   6
HETATM    6  C   UNL     1      -9.737  16.451  68.310  1.00  0.00    -0.224 C  
BRANCH   6   7
HETATM    7  C   UNL     1     -10.567  15.754  69.388  1.00  0.00    -0.255 C  
BRANCH   7   8
HETATM    8  C   UNL     1     -11.900  15.271  68.819  1.00  0.00    -0.332 C  
BRANCH   8   9
HETATM    9  C   UNL     1     -11.923  13.751  68.666  1.00  0.00    -0.401 C  
BRANCH   9  10
HETATM   10  C   UNL     1     -11.640  13.068  70.004  1.00  0.00    -0.195 C  
BRANCH  10  11
HETATM   11  C   UNL     1     -12.897  12.977  70.864  1.00  0.00    -0.222 C  
HETATM   12  C   UNL     1     -12.805  13.867  72.083  1.00  0.00    -0.298 C  
HETATM   13  O   UNL     1     -13.916  13.795  72.854  1.00  0.00    -0.635 OA 
HETATM   14  O   UNL     1     -11.858  14.579  72.372  1.00  0.00    -0.143 OA 
ENDBRANCH  10  11
ENDBRANCH   9  10
ENDBRANCH   8   9
ENDBRANCH   7   8
ENDBRANCH   6   7
ENDBRANCH   5   6
ENDBRANCH   4   5
ENDBRANCH   3   4
ENDBRANCH   2   3
TORSDOF 9
ENDMDL
MODEL      139
REMARK 921   NORMALIZED FREE ENERGY PREDICTED BY IDOCK:   -3.29 KCAL/MOL
REMARK 922        TOTAL FREE ENERGY PREDICTED BY IDOCK:   -5.56 KCAL/MOL
REMARK 923 INTER-LIGAND FREE ENERGY PREDICTED BY IDOCK:   -4.61 KCAL/MOL
REMARK 924 INTRA-LIGAND FREE ENERGY PREDICTED BY IDOCK:   -0.96 KCAL/MOL
REMARK 927      BINDING AFFINITY PREDICTED BY RF-SCORE:    0.00 PKD
ROOT
HETATM    1  C   UNL     1      -7.937  10.327  68.988  1.00  0.00    -0.125 C  
HETATM    2  C   UNL     1      -8.988   9.698  69.888  1.00  0.00    -0.243 C  
ENDROOT
BRANCH   2   3
HETATM    3  C   UNL     1     -10.394   9.920  69.334  1.00  0.00    -0.238 C  
BRANCH   3   4
HETATM    4  C   UNL     1     -10.667  11.401  69.084  1.00  0.00    -0.229 C  
BRANCH   4   5
HETATM    5  C   UNL     1     -11.832  11.895  69.940  1.00  0.00    -0.418 C  
BRANCH   5   6
HETATM    6  C   UNL     1     -12.757  10.743  70.328  1.00  0.00    -0.286 C  
BRANCH   6   7
HETATM    7  C   UNL     1     -13.116  10.800  71.812  1.00  0.00    -0.573 C  
BRANCH   7   8
HETATM    8  C   UNL     1     -13.193   9.394  72.406  1.00  0.00    -0.483 C  
BRANCH   8   9
HETATM    9  C   UNL     1     -14.233   8.540  71.684  1.00  0.00    -0.496 C  
BRANCH   9  10
HETATM   10  C   UNL     1     -13.719   7.114  71.484  1.00  0.00    -0.413 C  
BRANCH  10  11
HETATM   11  C   UNL     1     -12.269   7.104  71.007  1.00  0.00    -0.384 C  
HETATM   12  C   UNL     1     -11.439   6.094  71.768  1.00  0.00    -0.285 C  
HETATM   13  O   UNL     1     -10.150   6.076  71.352  1.00  0.00    -0.186 OA 
HETATM   14  O   UNL     1     -11.847   5.366  72.657  1.00  0.00    -0.247 OA 
ENDBRANCH  10  11
ENDBRANCH   9  10
ENDBRANCH   8   9
ENDBRANCH   7   8
ENDBRANCH   6   7
ENDBRANCH   5   6
ENDBRANCH   4   5
ENDBRANCH   3   4
ENDBRANCH   2   3
TORSDOF 9
ENDMDL
MODEL      140
REMARK 921   NORMALIZED FREE ENERGY PREDICTED BY IDOCK:   -3.28 KCAL/MOL
REMARK 922        TOTAL FREE ENERGY PREDICTED BY IDOCK:   -5.55 KCAL/MOL
REMARK 923 INTER-LIGAND FREE ENERGY PREDICTED BY IDOCK:   -4.59 KCAL/MOL
REMARK 924 INTRA-LIGAND FREE ENERGY PREDICTED BY IDOCK:   -0.96 KCAL/MOL
REMARK 927      BINDING AFFINITY PREDICTED BY RF-SCORE:    0.00 PKD
ROOT
HETATM    1  C   UNL     1      -9.078  11.534  68.230  1.00  0.00    -0.185 C  
HETATM    2  C   UNL     1      -9.570  12.964  68.080  1.00  0.00    -0.223 C  
ENDROOT
BRANCH   2   3
HETATM    3  C   UNL     1     -11.092  13.039  68.183  1.00  0.00    -0.285 C  
BRANCH   3   4
HETATM    4  C   UNL     1     -11.760  11.968  67.323  1.00  0.00    -0.339 C  
BRANCH   4   5
HETATM    5  C   UNL     1     -11.908  12.440  65.877  1.00  0.00    -0.467 C  
BRANCH   5   6
HETATM    6  C   UNL     1     -12.462  13.862  65.817  1.00  0.00    -0.530 C  
BRANCH   6   7
HETATM    7  C   UNL     1     -12.119  14.532  64.487  1.00  0.00    -0.501 C  
BRANCH   7   8
HETATM    8  C   UNL     1     -11.214  15.744  64.708  1.00  0.00    -0.375 C  
BRANCH   8   9
HETATM    9  C   UNL     1      -9.953  15.365  65.483  1.00  0.00    -0.379 C  
BRANCH   9  10
HETATM   10  C   UNL     1      -9.409  16.569  66.253  1.00  0.00    -0.334 C  
BRANCH  10  11
HETATM   11  C   UNL     1      -8.165  16.203  67.058  1.00  0.00    -0.250 C  
HETATM   12  C   UNL     1      -7.986  17.113  68.252  1.00  0.00    -0.236 C  
HETATM   13  O   UNL     1      -6.885  16.796  68.975  1.00  0.00    -0.193 OA 
HETATM   14  O   UNL     1      -8.724  18.033  68.560  1.00  0.00    -0.297 OA 
ENDBRANCH  10  11
ENDBRANCH   9  10
ENDBRANCH   8   9
ENDBRANCH   7   8
ENDBRANCH   6   7
ENDBRANCH   5   6
ENDBRANCH   4   5
ENDBRANCH   3   4
ENDBRANCH   2   3
TORSDOF 9
ENDMDL
MODEL      141
REMARK 921   NORMALIZED FREE ENERGY PREDICTED BY IDOCK:   -3.28 KCAL/MOL
REMARK 922        TOTAL FREE ENERGY PREDICTED BY IDOCK:   -5.54 KCAL/MOL
REMARK 923 INTER-LIGAND FREE ENERGY PREDICTED BY IDOCK:   -4.48 KCAL/MOL
REMARK 924 INTRA-LIGAND FREE ENERGY PREDICTED BY IDOCK:   -1.07 KCAL/MOL
REMARK 927      BINDING AFFINITY PREDICTED BY RF-SCORE:    0.00 PKD
ROOT
HETATM    1  C   UNL     1      -8.795   6.355  66.140  1.00  0.00    -0.158 C  
HETATM    2  C   UNL     1      -9.057   7.699  66.800  1.00  0.00    -0.181 C  
ENDROOT
BRANCH   2   3
HETATM    3  C   UNL     1     -10.408   7.712  67.511  1.00  0.00    -0.326 C  
BRANCH   3   4
HETATM    4  C   UNL     1     -10.768   9.115  67.996  1.00  0.00    -0.205 C  
BRANCH   4   5
HETATM    5  C   UNL     1      -9.654   9.696  68.865  1.00  0.00    -0.161 C  
BRANCH   5   6
HETATM    6  C   UNL     1      -9.410  11.167  68.536  1.00  0.00    -0.190 C  
BRANCH   6   7
HETATM    7  C   UNL     1      -8.555  11.316  67.278  1.00  0.00    -0.143 C  
BRANCH   7   8
HETATM    8  C   UNL     1      -9.362  11.949  66.146  1.00  0.00    -0.228 C  
BRANCH   8   9
HETATM    9  C   UNL     1      -9.345  11.075  64.893  1.00  0.00    -0.243 C  
BRANCH   9  10
HETATM   10  C   UNL     1     -10.760  10.888  64.344  1.00  0.00    -0.250 C  
BRANCH  10  11
HETATM   11  C   UNL     1     -11.182  12.065  63.470  1.00  0.00    -0.526 C  
HETATM   12  C   UNL     1     -12.330  12.834  64.085  1.00  0.00    -0.407 C  
HETATM   13  O   UNL     1     -12.713  13.882  63.319  1.00  0.00    -0.775 OA 
HETATM   14  O   UNL     1     -12.872  12.570  65.145  1.00  0.00    -0.685 OA 
ENDBRANCH  10  11
ENDBRANCH   9  10
ENDBRANCH   8   9
ENDBRANCH   7   8
ENDBRANCH   6   7
ENDBRANCH   5   6
ENDBRANCH   4   5
ENDBRANCH   3   4
ENDBRANCH   2   3
TORSDOF 9
ENDMDL
MODEL      142
REMARK 921   NORMALIZED FREE ENERGY PREDICTED BY IDOCK:   -3.27 KCAL/MOL
REMARK 922        TOTAL FREE ENERGY PREDICTED BY IDOCK:   -5.54 KCAL/MOL
REMARK 923 INTER-LIGAND FREE ENERGY PREDICTED BY IDOCK:   -4.67 KCAL/MOL
REMARK 924 INTRA-LIGAND FREE ENERGY PREDICTED BY IDOCK:   -0.88 KCAL/MOL
REMARK 927      BINDING AFFINITY PREDICTED BY RF-SCORE:    0.00 PKD
ROOT
HETATM    1  C   UNL     1      -8.227   7.197  69.663  1.00  0.00    -0.131 C  
HETATM    2  C   UNL     1      -9.298   8.181  69.221  1.00  0.00    -0.151 C  
ENDROOT
BRANCH   2   3
HETATM    3  C   UNL     1      -9.251   9.460  70.054  1.00  0.00    -0.245 C  
BRANCH   3   4
HETATM    4  C   UNL     1      -8.009  10.289  69.731  1.00  0.00    -0.139 C  
BRANCH   4   5
HETATM    5  C   UNL     1      -8.089  10.866  68.318  1.00  0.00    -0.124 C  
BRANCH   5   6
HETATM    6  C   UNL     1      -9.038  12.061  68.264  1.00  0.00    -0.190 C  
BRANCH   6   7
HETATM    7  C   UNL     1     -10.203  11.798  67.311  1.00  0.00    -0.226 C  
BRANCH   7   8
HETATM    8  C   UNL     1      -9.901  10.607  66.401  1.00  0.00    -0.259 C  
BRANCH   8   9
HETATM    9  C   UNL     1      -9.548  11.062  64.986  1.00  0.00    -0.291 C  
BRANCH   9  10
HETATM   10  C   UNL     1     -10.811  11.236  64.142  1.00  0.00    -0.407 C  
BRANCH  10  11
HETATM   11  C   UNL     1     -11.025  12.696  63.751  1.00  0.00    -0.481 C  
HETATM   12  C   UNL     1     -12.408  13.177  64.127  1.00  0.00    -0.348 C  
HETATM   13  O   UNL     1     -12.609  14.472  63.784  1.00  0.00    -0.825 OA 
HETATM   14  O   UNL     1     -13.268  12.507  64.674  1.00  0.00    -0.848 OA 
ENDBRANCH  10  11
ENDBRANCH   9  10
ENDBRANCH   8   9
ENDBRANCH   7   8
ENDBRANCH   6   7
ENDBRANCH   5   6
ENDBRANCH   4   5
ENDBRANCH   3   4
ENDBRANCH   2   3
TORSDOF 9
ENDMDL
MODEL      143
REMARK 921   NORMALIZED FREE ENERGY PREDICTED BY IDOCK:   -3.27 KCAL/MOL
REMARK 922        TOTAL FREE ENERGY PREDICTED BY IDOCK:   -5.54 KCAL/MOL
REMARK 923 INTER-LIGAND FREE ENERGY PREDICTED BY IDOCK:   -5.02 KCAL/MOL
REMARK 924 INTRA-LIGAND FREE ENERGY PREDICTED BY IDOCK:   -0.52 KCAL/MOL
REMARK 927      BINDING AFFINITY PREDICTED BY RF-SCORE:    0.00 PKD
ROOT
HETATM    1  C   UNL     1     -12.658  11.902  63.454  1.00  0.00    -0.555 C  
HETATM    2  C   UNL     1     -11.252  12.465  63.583  1.00  0.00    -0.544 C  
ENDROOT
BRANCH   2   3
HETATM    3  C   UNL     1     -11.201  13.593  64.612  1.00  0.00    -0.383 C  
BRANCH   3   4
HETATM    4  C   UNL     1     -12.307  13.446  65.654  1.00  0.00    -0.521 C  
BRANCH   4   5
HETATM    5  C   UNL     1     -12.043  14.344  66.862  1.00  0.00    -0.386 C  
BRANCH   5   6
HETATM    6  C   UNL     1     -10.579  14.276  67.289  1.00  0.00    -0.278 C  
BRANCH   6   7
HETATM    7  C   UNL     1      -9.938  15.664  67.286  1.00  0.00    -0.236 C  
BRANCH   7   8
HETATM    8  C   UNL     1     -10.330  16.444  68.540  1.00  0.00    -0.270 C  
BRANCH   8   9
HETATM    9  C   UNL     1      -9.347  17.579  68.821  1.00  0.00    -0.239 C  
BRANCH   9  10
HETATM   10  C   UNL     1      -8.420  17.801  67.625  1.00  0.00    -0.229 C  
BRANCH  10  11
HETATM   11  C   UNL     1      -7.468  18.970  67.864  1.00  0.00    -0.278 C  
HETATM   12  C   UNL     1      -8.008  20.257  67.283  1.00  0.00    -0.340 C  
HETATM   13  O   UNL     1      -7.172  21.302  67.490  1.00  0.00    -0.476 OA 
HETATM   14  O   UNL     1      -9.068  20.379  66.692  1.00  0.00    -0.287 OA 
ENDBRANCH  10  11
ENDBRANCH   9  10
ENDBRANCH   8   9
ENDBRANCH   7   8
ENDBRANCH   6   7
ENDBRANCH   5   6
ENDBRANCH   4   5
ENDBRANCH   3   4
ENDBRANCH   2   3
TORSDOF 9
ENDMDL
MODEL      144
REMARK 921   NORMALIZED FREE ENERGY PREDICTED BY IDOCK:   -3.27 KCAL/MOL
REMARK 922        TOTAL FREE ENERGY PREDICTED BY IDOCK:   -5.53 KCAL/MOL
REMARK 923 INTER-LIGAND FREE ENERGY PREDICTED BY IDOCK:   -4.70 KCAL/MOL
REMARK 924 INTRA-LIGAND FREE ENERGY PREDICTED BY IDOCK:   -0.84 KCAL/MOL
REMARK 927      BINDING AFFINITY PREDICTED BY RF-SCORE:    0.00 PKD
ROOT
HETATM    1  C   UNL     1      -9.099   9.813  63.312  1.00  0.00    -0.267 C  
HETATM    2  C   UNL     1      -8.751  10.708  64.490  1.00  0.00    -0.154 C  
ENDROOT
BRANCH   2   3
HETATM    3  C   UNL     1      -8.886   9.958  65.813  1.00  0.00    -0.171 C  
BRANCH   3   4
HETATM    4  C   UNL     1      -9.375  10.881  66.928  1.00  0.00    -0.186 C  
BRANCH   4   5
HETATM    5  C   UNL     1     -10.899  10.985  66.923  1.00  0.00    -0.324 C  
BRANCH   5   6
HETATM    6  C   UNL     1     -11.441  11.186  68.337  1.00  0.00    -0.377 C  
BRANCH   6   7
HETATM    7  C   UNL     1     -10.722  12.333  69.046  1.00  0.00    -0.149 C  
BRANCH   7   8
HETATM    8  C   UNL     1     -11.345  13.677  68.672  1.00  0.00    -0.321 C  
BRANCH   8   9
HETATM    9  C   UNL     1     -10.329  14.595  67.995  1.00  0.00    -0.235 C  
BRANCH   9  10
HETATM   10  C   UNL     1     -10.995  15.422  66.895  1.00  0.00    -0.294 C  
BRANCH  10  11
HETATM   11  C   UNL     1     -11.765  14.539  65.918  1.00  0.00    -0.345 C  
HETATM   12  C   UNL     1     -11.909  15.197  64.564  1.00  0.00    -0.330 C  
HETATM   13  O   UNL     1     -12.590  14.421  63.688  1.00  0.00    -0.817 OA 
HETATM   14  O   UNL     1     -11.475  16.296  64.261  1.00  0.00    -0.727 OA 
ENDBRANCH  10  11
ENDBRANCH   9  10
ENDBRANCH   8   9
ENDBRANCH   7   8
ENDBRANCH   6   7
ENDBRANCH   5   6
ENDBRANCH   4   5
ENDBRANCH   3   4
ENDBRANCH   2   3
TORSDOF 9
ENDMDL
MODEL      145
REMARK 921   NORMALIZED FREE ENERGY PREDICTED BY IDOCK:   -3.26 KCAL/MOL
REMARK 922        TOTAL FREE ENERGY PREDICTED BY IDOCK:   -5.53 KCAL/MOL
REMARK 923 INTER-LIGAND FREE ENERGY PREDICTED BY IDOCK:   -4.97 KCAL/MOL
REMARK 924 INTRA-LIGAND FREE ENERGY PREDICTED BY IDOCK:   -0.55 KCAL/MOL
REMARK 927      BINDING AFFINITY PREDICTED BY RF-SCORE:    0.00 PKD
ROOT
HETATM    1  C   UNL     1      -9.606   4.171  65.554  1.00  0.00    -0.188 C  
HETATM    2  C   UNL     1      -9.494   5.575  66.125  1.00  0.00    -0.166 C  
ENDROOT
BRANCH   2   3
HETATM    3  C   UNL     1     -10.793   5.999  66.807  1.00  0.00    -0.356 C  
BRANCH   3   4
HETATM    4  C   UNL     1     -10.763   7.477  67.192  1.00  0.00    -0.379 C  
BRANCH   4   5
HETATM    5  C   UNL     1      -9.681   8.223  66.413  1.00  0.00    -0.300 C  
BRANCH   5   6
HETATM    6  C   UNL     1     -10.092   9.670  66.150  1.00  0.00    -0.328 C  
BRANCH   6   7
HETATM    7  C   UNL     1      -9.577  10.152  64.794  1.00  0.00    -0.378 C  
BRANCH   7   8
HETATM    8  C   UNL     1     -10.604  11.057  64.114  1.00  0.00    -0.412 C  
BRANCH   8   9
HETATM    9  C   UNL     1     -10.664  12.431  64.780  1.00  0.00    -0.332 C  
BRANCH   9  10
HETATM   10  C   UNL     1     -12.063  12.703  65.333  1.00  0.00    -0.516 C  
BRANCH  10  11
HETATM   11  C   UNL     1     -12.039  13.785  66.409  1.00  0.00    -0.483 C  
HETATM   12  C   UNL     1     -12.023  13.189  67.799  1.00  0.00    -0.307 C  
HETATM   13  O   UNL     1     -12.000  14.141  68.763  1.00  0.00    -0.334 OA 
HETATM   14  O   UNL     1     -12.029  11.998  68.060  1.00  0.00    -0.495 OA 
ENDBRANCH  10  11
ENDBRANCH   9  10
ENDBRANCH   8   9
ENDBRANCH   7   8
ENDBRANCH   6   7
ENDBRANCH   5   6
ENDBRANCH   4   5
ENDBRANCH   3   4
ENDBRANCH   2   3
TORSDOF 9
ENDMDL
MODEL      146
REMARK 921   NORMALIZED FREE ENERGY PREDICTED BY IDOCK:   -3.26 KCAL/MOL
REMARK 922        TOTAL FREE ENERGY PREDICTED BY IDOCK:   -5.52 KCAL/MOL
REMARK 923 INTER-LIGAND FREE ENERGY PREDICTED BY IDOCK:   -4.48 KCAL/MOL
REMARK 924 INTRA-LIGAND FREE ENERGY PREDICTED BY IDOCK:   -1.05 KCAL/MOL
REMARK 927      BINDING AFFINITY PREDICTED BY RF-SCORE:    0.00 PKD
ROOT
HETATM    1  C   UNL     1     -10.591   9.374  71.399  1.00  0.00    -0.381 C  
HETATM    2  C   UNL     1     -11.995   8.944  71.794  1.00  0.00    -0.429 C  
ENDROOT
BRANCH   2   3
HETATM    3  C   UNL     1     -12.202   7.449  71.559  1.00  0.00    -0.368 C  
BRANCH   3   4
HETATM    4  C   UNL     1     -10.888   6.680  71.680  1.00  0.00    -0.269 C  
BRANCH   4   5
HETATM    5  C   UNL     1     -10.658   5.795  70.456  1.00  0.00    -0.359 C  
BRANCH   5   6
HETATM    6  C   UNL     1     -11.399   6.338  69.237  1.00  0.00    -0.411 C  
BRANCH   6   7
HETATM    7  C   UNL     1     -10.682   5.961  67.941  1.00  0.00    -0.336 C  
BRANCH   7   8
HETATM    8  C   UNL     1     -10.103   7.201  67.262  1.00  0.00    -0.278 C  
BRANCH   8   9
HETATM    9  C   UNL     1     -10.737   8.482  67.803  1.00  0.00    -0.170 C  
BRANCH   9  10
HETATM   10  C   UNL     1     -10.301   9.692  66.977  1.00  0.00    -0.315 C  
BRANCH  10  11
HETATM   11  C   UNL     1      -9.806  10.829  67.867  1.00  0.00    -0.185 C  
HETATM   12  C   UNL     1     -10.811  11.956  67.944  1.00  0.00    -0.213 C  
HETATM   13  O   UNL     1     -10.382  12.970  68.732  1.00  0.00    -0.218 OA 
HETATM   14  O   UNL     1     -11.890  11.984  67.376  1.00  0.00    -0.546 OA 
ENDBRANCH  10  11
ENDBRANCH   9  10
ENDBRANCH   8   9
ENDBRANCH   7   8
ENDBRANCH   6   7
ENDBRANCH   5   6
ENDBRANCH   4   5
ENDBRANCH   3   4
ENDBRANCH   2   3
TORSDOF 9
ENDMDL
MODEL      147
REMARK 921   NORMALIZED FREE ENERGY PREDICTED BY IDOCK:   -3.25 KCAL/MOL
REMARK 922        TOTAL FREE ENERGY PREDICTED BY IDOCK:   -5.50 KCAL/MOL
REMARK 923 INTER-LIGAND FREE ENERGY PREDICTED BY IDOCK:   -4.96 KCAL/MOL
REMARK 924 INTRA-LIGAND FREE ENERGY PREDICTED BY IDOCK:   -0.54 KCAL/MOL
REMARK 927      BINDING AFFINITY PREDICTED BY RF-SCORE:    0.00 PKD
ROOT
HETATM    1  C   UNL     1      -9.820   7.202  69.394  1.00  0.00    -0.161 C  
HETATM    2  C   UNL     1     -10.147   8.362  68.469  1.00  0.00    -0.218 C  
ENDROOT
BRANCH   2   3
HETATM    3  C   UNL     1     -10.269   7.897  67.019  1.00  0.00    -0.382 C  
BRANCH   3   4
HETATM    4  C   UNL     1      -9.223   8.567  66.130  1.00  0.00    -0.269 C  
BRANCH   4   5
HETATM    5  C   UNL     1      -9.700   9.942  65.665  1.00  0.00    -0.346 C  
BRANCH   5   6
HETATM    6  C   UNL     1      -9.076  10.315  64.323  1.00  0.00    -0.278 C  
BRANCH   6   7
HETATM    7  C   UNL     1     -10.110  10.943  63.389  1.00  0.00    -0.398 C  
BRANCH   7   8
HETATM    8  C   UNL     1     -10.544  12.315  63.905  1.00  0.00    -0.462 C  
BRANCH   8   9
HETATM    9  C   UNL     1     -12.042  12.539  63.705  1.00  0.00    -0.615 C  
BRANCH   9  10
HETATM   10  C   UNL     1     -12.715  12.906  65.028  1.00  0.00    -0.474 C  
BRANCH  10  11
HETATM   11  C   UNL     1     -11.835  12.549  66.222  1.00  0.00    -0.453 C  
HETATM   12  C   UNL     1     -11.522  13.764  67.067  1.00  0.00    -0.346 C  
HETATM   13  O   UNL     1     -10.742  13.459  68.131  1.00  0.00    -0.239 OA 
HETATM   14  O   UNL     1     -11.909  14.899  66.847  1.00  0.00    -0.315 OA 
ENDBRANCH  10  11
ENDBRANCH   9  10
ENDBRANCH   8   9
ENDBRANCH   7   8
ENDBRANCH   6   7
ENDBRANCH   5   6
ENDBRANCH   4   5
ENDBRANCH   3   4
ENDBRANCH   2   3
TORSDOF 9
ENDMDL
MODEL      148
REMARK 921   NORMALIZED FREE ENERGY PREDICTED BY IDOCK:   -3.24 KCAL/MOL
REMARK 922        TOTAL FREE ENERGY PREDICTED BY IDOCK:   -5.50 KCAL/MOL
REMARK 923 INTER-LIGAND FREE ENERGY PREDICTED BY IDOCK:   -5.11 KCAL/MOL
REMARK 924 INTRA-LIGAND FREE ENERGY PREDICTED BY IDOCK:   -0.38 KCAL/MOL
REMARK 927      BINDING AFFINITY PREDICTED BY RF-SCORE:    0.00 PKD
ROOT
HETATM    1  C   UNL     1     -10.292   5.157  66.418  1.00  0.00    -0.332 C  
HETATM    2  C   UNL     1     -10.940   6.355  67.093  1.00  0.00    -0.476 C  
ENDROOT
BRANCH   2   3
HETATM    3  C   UNL     1     -10.219   6.713  68.391  1.00  0.00    -0.188 C  
BRANCH   3   4
HETATM    4  C   UNL     1      -9.598   8.107  68.315  1.00  0.00    -0.154 C  
BRANCH   4   5
HETATM    5  C   UNL     1     -10.518   9.151  68.946  1.00  0.00    -0.239 C  
BRANCH   5   6
HETATM    6  C   UNL     1     -10.940  10.202  67.921  1.00  0.00    -0.335 C  
BRANCH   6   7
HETATM    7  C   UNL     1     -11.665  11.368  68.594  1.00  0.00    -0.394 C  
BRANCH   7   8
HETATM    8  C   UNL     1     -10.762  12.598  68.667  1.00  0.00    -0.269 C  
BRANCH   8   9
HETATM    9  C   UNL     1     -11.544  13.840  69.093  1.00  0.00    -0.363 C  
BRANCH   9  10
HETATM   10  C   UNL     1     -12.527  13.503  70.214  1.00  0.00    -0.309 C  
BRANCH  10  11
HETATM   11  C   UNL     1     -13.108  14.763  70.848  1.00  0.00    -0.418 C  
HETATM   12  C   UNL     1     -13.758  14.470  72.181  1.00  0.00    -0.450 C  
HETATM   13  O   UNL     1     -14.276  15.582  72.753  1.00  0.00    -0.465 OA 
HETATM   14  O   UNL     1     -13.826  13.373  72.710  1.00  0.00    -0.720 OA 
ENDBRANCH  10  11
ENDBRANCH   9  10
ENDBRANCH   8   9
ENDBRANCH   7   8
ENDBRANCH   6   7
ENDBRANCH   5   6
ENDBRANCH   4   5
ENDBRANCH   3   4
ENDBRANCH   2   3
TORSDOF 9
ENDMDL
MODEL      149
REMARK 921   NORMALIZED FREE ENERGY PREDICTED BY IDOCK:   -3.23 KCAL/MOL
REMARK 922        TOTAL FREE ENERGY PREDICTED BY IDOCK:   -5.47 KCAL/MOL
REMARK 923 INTER-LIGAND FREE ENERGY PREDICTED BY IDOCK:   -4.79 KCAL/MOL
REMARK 924 INTRA-LIGAND FREE ENERGY PREDICTED BY IDOCK:   -0.68 KCAL/MOL
REMARK 927      BINDING AFFINITY PREDICTED BY RF-SCORE:    0.00 PKD
ROOT
HETATM    1  C   UNL     1     -11.222   6.212  69.506  1.00  0.00    -0.482 C  
HETATM    2  C   UNL     1      -9.934   7.016  69.573  1.00  0.00    -0.166 C  
ENDROOT
BRANCH   2   3
HETATM    3  C   UNL     1      -9.834   7.998  68.407  1.00  0.00    -0.184 C  
BRANCH   3   4
HETATM    4  C   UNL     1      -8.425   8.024  67.821  1.00  0.00    -0.128 C  
BRANCH   4   5
HETATM    5  C   UNL     1      -8.194   9.296  67.006  1.00  0.00    -0.116 C  
BRANCH   5   6
HETATM    6  C   UNL     1      -8.858  10.501  67.668  1.00  0.00    -0.131 C  
BRANCH   6   7
HETATM    7  C   UNL     1      -9.631  11.334  66.648  1.00  0.00    -0.218 C  
BRANCH   7   8
HETATM    8  C   UNL     1     -11.136  11.236  66.896  1.00  0.00    -0.339 C  
BRANCH   8   9
HETATM    9  C   UNL     1     -11.624  12.353  67.817  1.00  0.00    -0.413 C  
BRANCH   9  10
HETATM   10  C   UNL     1     -11.663  13.689  67.076  1.00  0.00    -0.419 C  
BRANCH  10  11
HETATM   11  C   UNL     1     -12.534  13.610  65.825  1.00  0.00    -0.524 C  
HETATM   12  C   UNL     1     -11.807  14.130  64.605  1.00  0.00    -0.431 C  
HETATM   13  O   UNL     1     -12.570  14.064  63.488  1.00  0.00    -0.842 OA 
HETATM   14  O   UNL     1     -10.668  14.567  64.591  1.00  0.00    -0.399 OA 
ENDBRANCH  10  11
ENDBRANCH   9  10
ENDBRANCH   8   9
ENDBRANCH   7   8
ENDBRANCH   6   7
ENDBRANCH   5   6
ENDBRANCH   4   5
ENDBRANCH   3   4
ENDBRANCH   2   3
TORSDOF 9
ENDMDL
MODEL      150
REMARK 921   NORMALIZED FREE ENERGY PREDICTED BY IDOCK:   -3.23 KCAL/MOL
REMARK 922        TOTAL FREE ENERGY PREDICTED BY IDOCK:   -5.47 KCAL/MOL
REMARK 923 INTER-LIGAND FREE ENERGY PREDICTED BY IDOCK:   -4.93 KCAL/MOL
REMARK 924 INTRA-LIGAND FREE ENERGY PREDICTED BY IDOCK:   -0.54 KCAL/MOL
REMARK 927      BINDING AFFINITY PREDICTED BY RF-SCORE:    0.00 PKD
ROOT
HETATM    1  C   UNL     1     -11.223  11.770  66.934  1.00  0.00    -0.387 C  
HETATM    2  C   UNL     1     -11.875  13.132  67.113  1.00  0.00    -0.424 C  
ENDROOT
BRANCH   2   3
HETATM    3  C   UNL     1     -11.559  13.720  68.486  1.00  0.00    -0.373 C  
BRANCH   3   4
HETATM    4  C   UNL     1     -11.811  15.226  68.517  1.00  0.00    -0.305 C  
BRANCH   4   5
HETATM    5  C   UNL     1     -10.920  15.909  69.553  1.00  0.00    -0.311 C  
BRANCH   5   6
HETATM    6  C   UNL     1     -10.382  17.238  69.026  1.00  0.00    -0.330 C  
BRANCH   6   7
HETATM    7  C   UNL     1     -10.653  17.388  67.529  1.00  0.00    -0.330 C  
BRANCH   7   8
HETATM    8  C   UNL     1     -10.565  18.853  67.106  1.00  0.00    -0.531 C  
BRANCH   8   9
HETATM    9  C   UNL     1      -9.801  19.686  68.135  1.00  0.00    -0.524 C  
BRANCH   9  10
HETATM   10  C   UNL     1      -8.338  19.846  67.723  1.00  0.00    -0.343 C  
BRANCH  10  11
HETATM   11  C   UNL     1      -8.191  19.954  66.208  1.00  0.00    -0.357 C  
HETATM   12  C   UNL     1      -6.766  20.262  65.805  1.00  0.00    -0.250 C  
HETATM   13  O   UNL     1      -6.624  20.359  64.462  1.00  0.00    -0.293 OA 
HETATM   14  O   UNL     1      -5.830  20.413  66.572  1.00  0.00    -0.173 OA 
ENDBRANCH  10  11
ENDBRANCH   9  10
ENDBRANCH   8   9
ENDBRANCH   7   8
ENDBRANCH   6   7
ENDBRANCH   5   6
ENDBRANCH   4   5
ENDBRANCH   3   4
ENDBRANCH   2   3
TORSDOF 9
ENDMDL
MODEL      151
REMARK 921   NORMALIZED FREE ENERGY PREDICTED BY IDOCK:   -3.22 KCAL/MOL
REMARK 922        TOTAL FREE ENERGY PREDICTED BY IDOCK:   -5.46 KCAL/MOL
REMARK 923 INTER-LIGAND FREE ENERGY PREDICTED BY IDOCK:   -4.97 KCAL/MOL
REMARK 924 INTRA-LIGAND FREE ENERGY PREDICTED BY IDOCK:   -0.49 KCAL/MOL
REMARK 927      BINDING AFFINITY PREDICTED BY RF-SCORE:    0.00 PKD
ROOT
HETATM    1  C   UNL     1      -9.437   3.511  67.078  1.00  0.00    -0.207 C  
HETATM    2  C   UNL     1      -9.519   4.193  68.434  1.00  0.00    -0.212 C  
ENDROOT
BRANCH   2   3
HETATM    3  C   UNL     1      -9.226   3.210  69.566  1.00  0.00    -0.222 C  
BRANCH   3   4
HETATM    4  C   UNL     1      -9.688   3.760  70.913  1.00  0.00    -0.248 C  
BRANCH   4   5
HETATM    5  C   UNL     1     -10.275   5.163  70.760  1.00  0.00    -0.308 C  
BRANCH   5   6
HETATM    6  C   UNL     1     -10.925   5.632  72.060  1.00  0.00    -0.302 C  
BRANCH   6   7
HETATM    7  C   UNL     1     -11.884   6.795  71.808  1.00  0.00    -0.371 C  
BRANCH   7   8
HETATM    8  C   UNL     1     -11.444   8.038  72.580  1.00  0.00    -0.471 C  
BRANCH   8   9
HETATM    9  C   UNL     1     -11.078   9.181  71.635  1.00  0.00    -0.445 C  
BRANCH   9  10
HETATM   10  C   UNL     1     -12.326   9.740  70.951  1.00  0.00    -0.379 C  
BRANCH  10  11
HETATM   11  C   UNL     1     -13.128  10.635  71.892  1.00  0.00    -0.563 C  
HETATM   12  C   UNL     1     -12.941  12.099  71.563  1.00  0.00    -0.295 C  
HETATM   13  O   UNL     1     -13.649  12.903  72.392  1.00  0.00    -0.579 OA 
HETATM   14  O   UNL     1     -12.244  12.541  70.666  1.00  0.00    -0.369 OA 
ENDBRANCH  10  11
ENDBRANCH   9  10
ENDBRANCH   8   9
ENDBRANCH   7   8
ENDBRANCH   6   7
ENDBRANCH   5   6
ENDBRANCH   4   5
ENDBRANCH   3   4
ENDBRANCH   2   3
TORSDOF 9
ENDMDL
MODEL      152
REMARK 921   NORMALIZED FREE ENERGY PREDICTED BY IDOCK:   -3.20 KCAL/MOL
REMARK 922        TOTAL FREE ENERGY PREDICTED BY IDOCK:   -5.43 KCAL/MOL
REMARK 923 INTER-LIGAND FREE ENERGY PREDICTED BY IDOCK:   -4.30 KCAL/MOL
REMARK 924 INTRA-LIGAND FREE ENERGY PREDICTED BY IDOCK:   -1.13 KCAL/MOL
REMARK 927      BINDING AFFINITY PREDICTED BY RF-SCORE:    0.00 PKD
ROOT
HETATM    1  C   UNL     1      -8.284   9.808  67.785  1.00  0.00    -0.114 C  
HETATM    2  C   UNL     1      -8.665  10.238  69.192  1.00  0.00    -0.176 C  
ENDROOT
BRANCH   2   3
HETATM    3  C   UNL     1      -9.156   9.051  70.018  1.00  0.00    -0.187 C  
BRANCH   3   4
HETATM    4  C   UNL     1      -8.994   7.737  69.255  1.00  0.00    -0.139 C  
BRANCH   4   5
HETATM    5  C   UNL     1     -10.115   6.759  69.605  1.00  0.00    -0.197 C  
BRANCH   5   6
HETATM    6  C   UNL     1     -10.733   7.093  70.961  1.00  0.00    -0.252 C  
BRANCH   6   7
HETATM    7  C   UNL     1     -12.256   6.979  70.916  1.00  0.00    -0.388 C  
BRANCH   7   8
HETATM    8  C   UNL     1     -12.901   7.929  71.924  1.00  0.00    -0.331 C  
BRANCH   8   9
HETATM    9  C   UNL     1     -12.267   9.318  71.867  1.00  0.00    -0.448 C  
BRANCH   9  10
HETATM   10  C   UNL     1     -12.857  10.136  70.718  1.00  0.00    -0.388 C  
BRANCH  10  11
HETATM   11  C   UNL     1     -12.153  11.482  70.570  1.00  0.00    -0.472 C  
HETATM   12  C   UNL     1     -11.870  11.807  69.121  1.00  0.00    -0.326 C  
HETATM   13  O   UNL     1     -11.246  13.000  68.977  1.00  0.00    -0.254 OA 
HETATM   14  O   UNL     1     -12.155  11.102  68.167  1.00  0.00    -0.633 OA 
ENDBRANCH  10  11
ENDBRANCH   9  10
ENDBRANCH   8   9
ENDBRANCH   7   8
ENDBRANCH   6   7
ENDBRANCH   5   6
ENDBRANCH   4   5
ENDBRANCH   3   4
ENDBRANCH   2   3
TORSDOF 9
ENDMDL
MODEL      153
REMARK 921   NORMALIZED FREE ENERGY PREDICTED BY IDOCK:   -3.20 KCAL/MOL
REMARK 922        TOTAL FREE ENERGY PREDICTED BY IDOCK:   -5.43 KCAL/MOL
REMARK 923 INTER-LIGAND FREE ENERGY PREDICTED BY IDOCK:   -4.51 KCAL/MOL
REMARK 924 INTRA-LIGAND FREE ENERGY PREDICTED BY IDOCK:   -0.92 KCAL/MOL
REMARK 927      BINDING AFFINITY PREDICTED BY RF-SCORE:    0.00 PKD
ROOT
HETATM    1  C   UNL     1     -12.716  13.953  70.985  1.00  0.00    -0.428 C  
HETATM    2  C   UNL     1     -12.812  15.460  70.814  1.00  0.00    -0.524 C  
ENDROOT
BRANCH   2   3
HETATM    3  C   UNL     1     -11.484  16.050  70.344  1.00  0.00    -0.392 C  
BRANCH   3   4
HETATM    4  C   UNL     1     -10.952  15.312  69.117  1.00  0.00    -0.251 C  
BRANCH   4   5
HETATM    5  C   UNL     1      -9.958  16.180  68.346  1.00  0.00    -0.230 C  
BRANCH   5   6
HETATM    6  C   UNL     1     -10.623  16.837  67.138  1.00  0.00    -0.256 C  
BRANCH   6   7
HETATM    7  C   UNL     1     -10.023  16.322  65.831  1.00  0.00    -0.366 C  
BRANCH   7   8
HETATM    8  C   UNL     1     -11.123  15.957  64.835  1.00  0.00    -0.400 C  
BRANCH   8   9
HETATM    9  C   UNL     1     -11.630  14.533  65.061  1.00  0.00    -0.382 C  
BRANCH   9  10
HETATM   10  C   UNL     1     -10.510  13.517  64.830  1.00  0.00    -0.417 C  
BRANCH  10  11
HETATM   11  C   UNL     1     -10.606  12.347  65.805  1.00  0.00    -0.288 C  
HETATM   12  C   UNL     1      -9.506  12.392  66.841  1.00  0.00    -0.219 C  
HETATM   13  O   UNL     1      -9.582  11.359  67.713  1.00  0.00    -0.166 OA 
HETATM   14  O   UNL     1      -8.635  13.243  66.914  1.00  0.00    -0.191 OA 
ENDBRANCH  10  11
ENDBRANCH   9  10
ENDBRANCH   8   9
ENDBRANCH   7   8
ENDBRANCH   6   7
ENDBRANCH   5   6
ENDBRANCH   4   5
ENDBRANCH   3   4
ENDBRANCH   2   3
TORSDOF 9
ENDMDL
MODEL      154
REMARK 921   NORMALIZED FREE ENERGY PREDICTED BY IDOCK:   -3.20 KCAL/MOL
REMARK 922        TOTAL FREE ENERGY PREDICTED BY IDOCK:   -5.43 KCAL/MOL
REMARK 923 INTER-LIGAND FREE ENERGY PREDICTED BY IDOCK:   -4.89 KCAL/MOL
REMARK 924 INTRA-LIGAND FREE ENERGY PREDICTED BY IDOCK:   -0.54 KCAL/MOL
REMARK 927      BINDING AFFINITY PREDICTED BY RF-SCORE:    0.00 PKD
ROOT
HETATM    1  C   UNL     1      -6.457  14.628  69.921  1.00  0.00    -0.164 C  
HETATM    2  C   UNL     1      -5.825  15.993  70.138  1.00  0.00    -0.155 C  
ENDROOT
BRANCH   2   3
HETATM    3  C   UNL     1      -6.507  17.060  69.285  1.00  0.00    -0.231 C  
BRANCH   3   4
HETATM    4  C   UNL     1      -7.735  16.500  68.571  1.00  0.00    -0.204 C  
BRANCH   4   5
HETATM    5  C   UNL     1      -8.820  17.567  68.431  1.00  0.00    -0.276 C  
BRANCH   5   6
HETATM    6  C   UNL     1     -10.079  16.990  67.787  1.00  0.00    -0.302 C  
BRANCH   6   7
HETATM    7  C   UNL     1     -10.344  17.630  66.425  1.00  0.00    -0.345 C  
BRANCH   7   8
HETATM    8  C   UNL     1     -10.580  16.560  65.359  1.00  0.00    -0.293 C  
BRANCH   8   9
HETATM    9  C   UNL     1     -10.491  15.154  65.951  1.00  0.00    -0.350 C  
BRANCH   9  10
HETATM   10  C   UNL     1     -10.482  14.100  64.844  1.00  0.00    -0.461 C  
BRANCH  10  11
HETATM   11  C   UNL     1     -11.897  13.674  64.464  1.00  0.00    -0.445 C  
HETATM   12  C   UNL     1     -11.899  12.383  63.677  1.00  0.00    -0.526 C  
HETATM   13  O   UNL     1     -13.151  11.994  63.335  1.00  0.00    -0.747 OA 
HETATM   14  O   UNL     1     -10.911  11.739  63.368  1.00  0.00    -0.391 OA 
ENDBRANCH  10  11
ENDBRANCH   9  10
ENDBRANCH   8   9
ENDBRANCH   7   8
ENDBRANCH   6   7
ENDBRANCH   5   6
ENDBRANCH   4   5
ENDBRANCH   3   4
ENDBRANCH   2   3
TORSDOF 9
ENDMDL
MODEL      155
REMARK 921   NORMALIZED FREE ENERGY PREDICTED BY IDOCK:   -3.19 KCAL/MOL
REMARK 922        TOTAL FREE ENERGY PREDICTED BY IDOCK:   -5.42 KCAL/MOL
REMARK 923 INTER-LIGAND FREE ENERGY PREDICTED BY IDOCK:   -4.82 KCAL/MOL
REMARK 924 INTRA-LIGAND FREE ENERGY PREDICTED BY IDOCK:   -0.60 KCAL/MOL
REMARK 927      BINDING AFFINITY PREDICTED BY RF-SCORE:    0.00 PKD
ROOT
HETATM    1  C   UNL     1     -11.334  13.023  68.028  1.00  0.00    -0.327 C  
HETATM    2  C   UNL     1     -11.125  11.842  67.094  1.00  0.00    -0.347 C  
ENDROOT
BRANCH   2   3
HETATM    3  C   UNL     1     -11.440  12.219  65.648  1.00  0.00    -0.416 C  
BRANCH   3   4
HETATM    4  C   UNL     1     -12.537  13.279  65.576  1.00  0.00    -0.505 C  
BRANCH   4   5
HETATM    5  C   UNL     1     -12.185  14.362  64.557  1.00  0.00    -0.483 C  
BRANCH   5   6
HETATM    6  C   UNL     1     -10.863  15.040  64.910  1.00  0.00    -0.430 C  
BRANCH   6   7
HETATM    7  C   UNL     1     -10.999  16.562  64.877  1.00  0.00    -0.223 C  
BRANCH   7   8
HETATM    8  C   UNL     1     -10.524  17.177  66.193  1.00  0.00    -0.277 C  
BRANCH   8   9
HETATM    9  C   UNL     1     -10.516  18.703  66.125  1.00  0.00    -0.473 C  
BRANCH   9  10
HETATM   10  C   UNL     1      -9.153  19.257  66.541  1.00  0.00    -0.383 C  
BRANCH  10  11
HETATM   11  C   UNL     1      -8.592  18.513  67.750  1.00  0.00    -0.286 C  
HETATM   12  C   UNL     1      -7.140  18.859  67.993  1.00  0.00    -0.238 C  
HETATM   13  O   UNL     1      -6.632  18.205  69.064  1.00  0.00    -0.235 OA 
HETATM   14  O   UNL     1      -6.473  19.630  67.324  1.00  0.00    -0.194 OA 
ENDBRANCH  10  11
ENDBRANCH   9  10
ENDBRANCH   8   9
ENDBRANCH   7   8
ENDBRANCH   6   7
ENDBRANCH   5   6
ENDBRANCH   4   5
ENDBRANCH   3   4
ENDBRANCH   2   3
TORSDOF 9
ENDMDL
MODEL      156
REMARK 921   NORMALIZED FREE ENERGY PREDICTED BY IDOCK:   -3.19 KCAL/MOL
REMARK 922        TOTAL FREE ENERGY PREDICTED BY IDOCK:   -5.41 KCAL/MOL
REMARK 923 INTER-LIGAND FREE ENERGY PREDICTED BY IDOCK:   -4.56 KCAL/MOL
REMARK 924 INTRA-LIGAND FREE ENERGY PREDICTED BY IDOCK:   -0.85 KCAL/MOL
REMARK 927      BINDING AFFINITY PREDICTED BY RF-SCORE:    0.00 PKD
ROOT
HETATM    1  C   UNL     1     -12.372  15.245  70.631  1.00  0.00    -0.427 C  
HETATM    2  C   UNL     1     -11.353  15.999  69.792  1.00  0.00    -0.331 C  
ENDROOT
BRANCH   2   3
HETATM    3  C   UNL     1     -11.205  15.371  68.407  1.00  0.00    -0.318 C  
BRANCH   3   4
HETATM    4  C   UNL     1     -10.647  16.373  67.399  1.00  0.00    -0.306 C  
BRANCH   4   5
HETATM    5  C   UNL     1     -10.158  15.665  66.137  1.00  0.00    -0.333 C  
BRANCH   5   6
HETATM    6  C   UNL     1     -11.282  14.859  65.488  1.00  0.00    -0.348 C  
BRANCH   6   7
HETATM    7  C   UNL     1     -10.876  13.398  65.300  1.00  0.00    -0.318 C  
BRANCH   7   8
HETATM    8  C   UNL     1     -11.712  12.483  66.194  1.00  0.00    -0.466 C  
BRANCH   8   9
HETATM    9  C   UNL     1     -10.865  11.359  66.790  1.00  0.00    -0.336 C  
BRANCH   9  10
HETATM   10  C   UNL     1     -10.275  11.781  68.135  1.00  0.00    -0.210 C  
BRANCH  10  11
HETATM   11  C   UNL     1     -10.378  10.662  69.168  1.00  0.00    -0.242 C  
HETATM   12  C   UNL     1     -11.538  10.881  70.113  1.00  0.00    -0.338 C  
HETATM   13  O   UNL     1     -11.640   9.893  71.033  1.00  0.00    -0.329 OA 
HETATM   14  O   UNL     1     -12.312  11.823  70.081  1.00  0.00    -0.262 OA 
ENDBRANCH  10  11
ENDBRANCH   9  10
ENDBRANCH   8   9
ENDBRANCH   7   8
ENDBRANCH   6   7
ENDBRANCH   5   6
ENDBRANCH   4   5
ENDBRANCH   3   4
ENDBRANCH   2   3
TORSDOF 9
ENDMDL
MODEL      157
REMARK 921   NORMALIZED FREE ENERGY PREDICTED BY IDOCK:   -3.19 KCAL/MOL
REMARK 922        TOTAL FREE ENERGY PREDICTED BY IDOCK:   -5.41 KCAL/MOL
REMARK 923 INTER-LIGAND FREE ENERGY PREDICTED BY IDOCK:   -4.46 KCAL/MOL
REMARK 924 INTRA-LIGAND FREE ENERGY PREDICTED BY IDOCK:   -0.95 KCAL/MOL
REMARK 927      BINDING AFFINITY PREDICTED BY RF-SCORE:    0.00 PKD
ROOT
HETATM    1  C   UNL     1     -11.619  12.226  64.963  1.00  0.00    -0.394 C  
HETATM    2  C   UNL     1     -10.527  11.171  65.044  1.00  0.00    -0.357 C  
ENDROOT
BRANCH   2   3
HETATM    3  C   UNL     1     -10.367  10.650  66.470  1.00  0.00    -0.299 C  
BRANCH   3   4
HETATM    4  C   UNL     1     -10.099   9.147  66.486  1.00  0.00    -0.357 C  
BRANCH   4   5
HETATM    5  C   UNL     1      -9.444   8.722  67.800  1.00  0.00    -0.164 C  
BRANCH   5   6
HETATM    6  C   UNL     1     -10.379   7.835  68.619  1.00  0.00    -0.221 C  
BRANCH   6   7
HETATM    7  C   UNL     1     -10.283   8.161  70.109  1.00  0.00    -0.199 C  
BRANCH   7   8
HETATM    8  C   UNL     1     -10.257   9.672  70.333  1.00  0.00    -0.348 C  
BRANCH   8   9
HETATM    9  C   UNL     1     -11.528  10.156  71.028  1.00  0.00    -0.436 C  
BRANCH   9  10
HETATM   10  C   UNL     1     -12.436  10.894  70.044  1.00  0.00    -0.332 C  
BRANCH  10  11
HETATM   11  C   UNL     1     -11.761  12.145  69.488  1.00  0.00    -0.402 C  
HETATM   12  C   UNL     1     -12.157  13.383  70.261  1.00  0.00    -0.349 C  
HETATM   13  O   UNL     1     -11.563  14.499  69.777  1.00  0.00    -0.266 OA 
HETATM   14  O   UNL     1     -12.919  13.411  71.212  1.00  0.00    -0.334 OA 
ENDBRANCH  10  11
ENDBRANCH   9  10
ENDBRANCH   8   9
ENDBRANCH   7   8
ENDBRANCH   6   7
ENDBRANCH   5   6
ENDBRANCH   4   5
ENDBRANCH   3   4
ENDBRANCH   2   3
TORSDOF 9
ENDMDL
MODEL      158
REMARK 921   NORMALIZED FREE ENERGY PREDICTED BY IDOCK:   -3.19 KCAL/MOL
REMARK 922        TOTAL FREE ENERGY PREDICTED BY IDOCK:   -5.41 KCAL/MOL
REMARK 923 INTER-LIGAND FREE ENERGY PREDICTED BY IDOCK:   -4.37 KCAL/MOL
REMARK 924 INTRA-LIGAND FREE ENERGY PREDICTED BY IDOCK:   -1.04 KCAL/MOL
REMARK 927      BINDING AFFINITY PREDICTED BY RF-SCORE:    0.00 PKD
ROOT
HETATM    1  C   UNL     1      -8.389  12.464  68.365  1.00  0.00    -0.137 C  
HETATM    2  C   UNL     1      -7.579  13.659  67.888  1.00  0.00    -0.156 C  
ENDROOT
BRANCH   2   3
HETATM    3  C   UNL     1      -6.617  14.142  68.971  1.00  0.00    -0.104 C  
BRANCH   3   4
HETATM    4  C   UNL     1      -7.144  15.397  69.664  1.00  0.00    -0.180 C  
BRANCH   4   5
HETATM    5  C   UNL     1      -7.271  16.555  68.676  1.00  0.00    -0.186 C  
BRANCH   5   6
HETATM    6  C   UNL     1      -8.671  17.165  68.722  1.00  0.00    -0.235 C  
BRANCH   6   7
HETATM    7  C   UNL     1      -9.197  17.444  67.314  1.00  0.00    -0.234 C  
BRANCH   7   8
HETATM    8  C   UNL     1      -9.619  16.146  66.626  1.00  0.00    -0.263 C  
BRANCH   8   9
HETATM    9  C   UNL     1     -10.870  15.554  67.272  1.00  0.00    -0.313 C  
BRANCH   9  10
HETATM   10  C   UNL     1     -11.246  14.229  66.608  1.00  0.00    -0.337 C  
BRANCH  10  11
HETATM   11  C   UNL     1     -11.307  14.360  65.089  1.00  0.00    -0.359 C  
HETATM   12  C   UNL     1     -12.382  13.478  64.495  1.00  0.00    -0.355 C  
HETATM   13  O   UNL     1     -12.446  13.588  63.147  1.00  0.00    -0.759 OA 
HETATM   14  O   UNL     1     -13.123  12.741  65.125  1.00  0.00    -0.750 OA 
ENDBRANCH  10  11
ENDBRANCH   9  10
ENDBRANCH   8   9
ENDBRANCH   7   8
ENDBRANCH   6   7
ENDBRANCH   5   6
ENDBRANCH   4   5
ENDBRANCH   3   4
ENDBRANCH   2   3
TORSDOF 9
ENDMDL
MODEL      159
REMARK 921   NORMALIZED FREE ENERGY PREDICTED BY IDOCK:   -3.18 KCAL/MOL
REMARK 922        TOTAL FREE ENERGY PREDICTED BY IDOCK:   -5.40 KCAL/MOL
REMARK 923 INTER-LIGAND FREE ENERGY PREDICTED BY IDOCK:   -3.88 KCAL/MOL
REMARK 924 INTRA-LIGAND FREE ENERGY PREDICTED BY IDOCK:   -1.52 KCAL/MOL
REMARK 927      BINDING AFFINITY PREDICTED BY RF-SCORE:    0.00 PKD
ROOT
HETATM    1  C   UNL     1      -6.783  15.277  69.643  1.00  0.00    -0.181 C  
HETATM    2  C   UNL     1      -7.335  14.217  68.704  1.00  0.00    -0.125 C  
ENDROOT
BRANCH   2   3
HETATM    3  C   UNL     1      -7.551  14.781  67.301  1.00  0.00    -0.195 C  
BRANCH   3   4
HETATM    4  C   UNL     1      -7.200  16.266  67.238  1.00  0.00    -0.223 C  
BRANCH   4   5
HETATM    5  C   UNL     1      -7.931  16.953  66.086  1.00  0.00    -0.290 C  
BRANCH   5   6
HETATM    6  C   UNL     1      -8.968  17.946  66.607  1.00  0.00    -0.282 C  
BRANCH   6   7
HETATM    7  C   UNL     1      -8.877  18.092  68.125  1.00  0.00    -0.289 C  
BRANCH   7   8
HETATM    8  C   UNL     1     -10.222  17.787  68.782  1.00  0.00    -0.373 C  
BRANCH   8   9
HETATM    9  C   UNL     1     -11.000  16.733  67.996  1.00  0.00    -0.296 C  
BRANCH   9  10
HETATM   10  C   UNL     1     -10.815  15.348  68.618  1.00  0.00    -0.259 C  
BRANCH  10  11
HETATM   11  C   UNL     1     -10.478  15.442  70.103  1.00  0.00    -0.291 C  
HETATM   12  C   UNL     1     -11.654  15.046  70.968  1.00  0.00    -0.322 C  
HETATM   13  O   UNL     1     -11.366  15.125  72.289  1.00  0.00    -0.416 OA 
HETATM   14  O   UNL     1     -12.747  14.693  70.560  1.00  0.00    -0.338 OA 
ENDBRANCH  10  11
ENDBRANCH   9  10
ENDBRANCH   8   9
ENDBRANCH   7   8
ENDBRANCH   6   7
ENDBRANCH   5   6
ENDBRANCH   4   5
ENDBRANCH   3   4
ENDBRANCH   2   3
TORSDOF 9
ENDMDL
MODEL      160
REMARK 921   NORMALIZED FREE ENERGY PREDICTED BY IDOCK:   -3.18 KCAL/MOL
REMARK 922        TOTAL FREE ENERGY PREDICTED BY IDOCK:   -5.40 KCAL/MOL
REMARK 923 INTER-LIGAND FREE ENERGY PREDICTED BY IDOCK:   -4.27 KCAL/MOL
REMARK 924 INTRA-LIGAND FREE ENERGY PREDICTED BY IDOCK:   -1.13 KCAL/MOL
REMARK 927      BINDING AFFINITY PREDICTED BY RF-SCORE:    0.00 PKD
ROOT
HETATM    1  C   UNL     1     -10.635  15.324  69.605  1.00  0.00    -0.285 C  
HETATM    2  C   UNL     1     -10.239  14.298  68.557  1.00  0.00    -0.245 C  
ENDROOT
BRANCH   2   3
HETATM    3  C   UNL     1     -11.350  13.273  68.338  1.00  0.00    -0.326 C  
BRANCH   3   4
HETATM    4  C   UNL     1     -12.267  13.684  67.189  1.00  0.00    -0.340 C  
BRANCH   4   5
HETATM    5  C   UNL     1     -11.531  14.583  66.196  1.00  0.00    -0.357 C  
BRANCH   5   6
HETATM    6  C   UNL     1     -11.898  14.230  64.757  1.00  0.00    -0.436 C  
BRANCH   6   7
HETATM    7  C   UNL     1     -12.113  12.725  64.595  1.00  0.00    -0.483 C  
BRANCH   7   8
HETATM    8  C   UNL     1     -11.157  12.150  63.552  1.00  0.00    -0.525 C  
BRANCH   8   9
HETATM    9  C   UNL     1     -10.325  11.005  64.128  1.00  0.00    -0.434 C  
BRANCH   9  10
HETATM   10  C   UNL     1     -10.446  10.961  65.651  1.00  0.00    -0.274 C  
BRANCH  10  11
HETATM   11  C   UNL     1      -9.088  11.130  66.326  1.00  0.00    -0.207 C  
HETATM   12  C   UNL     1      -8.866  10.090  67.401  1.00  0.00    -0.128 C  
HETATM   13  O   UNL     1      -7.663  10.230  68.006  1.00  0.00    -0.088 OA 
HETATM   14  O   UNL     1      -9.654   9.213  67.713  1.00  0.00    -0.142 OA 
ENDBRANCH  10  11
ENDBRANCH   9  10
ENDBRANCH   8   9
ENDBRANCH   7   8
ENDBRANCH   6   7
ENDBRANCH   5   6
ENDBRANCH   4   5
ENDBRANCH   3   4
ENDBRANCH   2   3
TORSDOF 9
ENDMDL
MODEL      161
REMARK 921   NORMALIZED FREE ENERGY PREDICTED BY IDOCK:   -3.17 KCAL/MOL
REMARK 922        TOTAL FREE ENERGY PREDICTED BY IDOCK:   -5.38 KCAL/MOL
REMARK 923 INTER-LIGAND FREE ENERGY PREDICTED BY IDOCK:   -4.60 KCAL/MOL
REMARK 924 INTRA-LIGAND FREE ENERGY PREDICTED BY IDOCK:   -0.78 KCAL/MOL
REMARK 927      BINDING AFFINITY PREDICTED BY RF-SCORE:    0.00 PKD
ROOT
HETATM    1  C   UNL     1     -12.167  11.502  70.380  1.00  0.00    -0.442 C  
HETATM    2  C   UNL     1     -12.959  11.595  71.674  1.00  0.00    -0.483 C  
ENDROOT
BRANCH   2   3
HETATM    3  C   UNL     1     -13.262  13.048  72.033  1.00  0.00    -0.543 C  
BRANCH   3   4
HETATM    4  C   UNL     1     -12.922  13.989  70.879  1.00  0.00    -0.347 C  
BRANCH   4   5
HETATM    5  C   UNL     1     -11.842  14.989  71.289  1.00  0.00    -0.389 C  
BRANCH   5   6
HETATM    6  C   UNL     1     -11.054  15.476  70.074  1.00  0.00    -0.326 C  
BRANCH   6   7
HETATM    7  C   UNL     1     -11.637  14.915  68.778  1.00  0.00    -0.348 C  
BRANCH   7   8
HETATM    8  C   UNL     1     -10.534  14.667  67.750  1.00  0.00    -0.246 C  
BRANCH   8   9
HETATM    9  C   UNL     1     -10.642  15.632  66.571  1.00  0.00    -0.307 C  
BRANCH   9  10
HETATM   10  C   UNL     1      -9.618  16.760  66.698  1.00  0.00    -0.274 C  
BRANCH  10  11
HETATM   11  C   UNL     1      -8.200  16.262  66.432  1.00  0.00    -0.354 C  
HETATM   12  C   UNL     1      -7.339  16.338  67.673  1.00  0.00    -0.140 C  
HETATM   13  O   UNL     1      -6.079  15.898  67.448  1.00  0.00    -0.181 OA 
HETATM   14  O   UNL     1      -7.703  16.744  68.764  1.00  0.00    -0.220 OA 
ENDBRANCH  10  11
ENDBRANCH   9  10
ENDBRANCH   8   9
ENDBRANCH   7   8
ENDBRANCH   6   7
ENDBRANCH   5   6
ENDBRANCH   4   5
ENDBRANCH   3   4
ENDBRANCH   2   3
TORSDOF 9
ENDMDL
MODEL      162
REMARK 921   NORMALIZED FREE ENERGY PREDICTED BY IDOCK:   -3.15 KCAL/MOL
REMARK 922        TOTAL FREE ENERGY PREDICTED BY IDOCK:   -5.35 KCAL/MOL
REMARK 923 INTER-LIGAND FREE ENERGY PREDICTED BY IDOCK:   -4.07 KCAL/MOL
REMARK 924 INTRA-LIGAND FREE ENERGY PREDICTED BY IDOCK:   -1.29 KCAL/MOL
REMARK 927      BINDING AFFINITY PREDICTED BY RF-SCORE:    0.00 PKD
ROOT
HETATM    1  C   UNL     1      -6.707  15.295  69.792  1.00  0.00    -0.176 C  
HETATM    2  C   UNL     1      -7.062  14.257  68.740  1.00  0.00    -0.105 C  
ENDROOT
BRANCH   2   3
HETATM    3  C   UNL     1      -7.163  14.887  67.353  1.00  0.00    -0.213 C  
BRANCH   3   4
HETATM    4  C   UNL     1      -6.953  16.399  67.412  1.00  0.00    -0.196 C  
BRANCH   4   5
HETATM    5  C   UNL     1      -7.673  17.097  66.260  1.00  0.00    -0.350 C  
BRANCH   5   6
HETATM    6  C   UNL     1      -8.832  17.950  66.772  1.00  0.00    -0.271 C  
BRANCH   6   7
HETATM    7  C   UNL     1      -8.855  17.989  68.300  1.00  0.00    -0.291 C  
BRANCH   7   8
HETATM    8  C   UNL     1     -10.252  17.667  68.829  1.00  0.00    -0.373 C  
BRANCH   8   9
HETATM    9  C   UNL     1     -10.997  16.715  67.896  1.00  0.00    -0.276 C  
BRANCH   9  10
HETATM   10  C   UNL     1     -10.680  15.260  68.241  1.00  0.00    -0.254 C  
BRANCH  10  11
HETATM   11  C   UNL     1     -11.777  14.317  67.755  1.00  0.00    -0.408 C  
HETATM   12  C   UNL     1     -11.455  13.739  66.395  1.00  0.00    -0.336 C  
HETATM   13  O   UNL     1     -12.422  12.900  65.954  1.00  0.00    -0.527 OA 
HETATM   14  O   UNL     1     -10.453  13.978  65.743  1.00  0.00    -0.289 OA 
ENDBRANCH  10  11
ENDBRANCH   9  10
ENDBRANCH   8   9
ENDBRANCH   7   8
ENDBRANCH   6   7
ENDBRANCH   5   6
ENDBRANCH   4   5
ENDBRANCH   3   4
ENDBRANCH   2   3
TORSDOF 9
ENDMDL
MODEL      163
REMARK 921   NORMALIZED FREE ENERGY PREDICTED BY IDOCK:   -3.15 KCAL/MOL
REMARK 922        TOTAL FREE ENERGY PREDICTED BY IDOCK:   -5.35 KCAL/MOL
REMARK 923 INTER-LIGAND FREE ENERGY PREDICTED BY IDOCK:   -4.67 KCAL/MOL
REMARK 924 INTRA-LIGAND FREE ENERGY PREDICTED BY IDOCK:   -0.69 KCAL/MOL
REMARK 927      BINDING AFFINITY PREDICTED BY RF-SCORE:    0.00 PKD
ROOT
HETATM    1  C   UNL     1     -11.116   7.660  70.862  1.00  0.00    -0.275 C  
HETATM    2  C   UNL     1     -11.329   8.468  72.132  1.00  0.00    -0.442 C  
ENDROOT
BRANCH   2   3
HETATM    3  C   UNL     1     -12.811   8.759  72.359  1.00  0.00    -0.434 C  
BRANCH   3   4
HETATM    4  C   UNL     1     -13.338   9.782  71.355  1.00  0.00    -0.449 C  
BRANCH   4   5
HETATM    5  C   UNL     1     -12.943  11.200  71.761  1.00  0.00    -0.526 C  
BRANCH   5   6
HETATM    6  C   UNL     1     -12.139  11.885  70.658  1.00  0.00    -0.389 C  
BRANCH   6   7
HETATM    7  C   UNL     1     -11.937  10.953  69.463  1.00  0.00    -0.401 C  
BRANCH   7   8
HETATM    8  C   UNL     1     -10.820  11.468  68.557  1.00  0.00    -0.254 C  
BRANCH   8   9
HETATM    9  C   UNL     1     -11.376  12.027  67.248  1.00  0.00    -0.394 C  
BRANCH   9  10
HETATM   10  C   UNL     1     -10.436  13.084  66.668  1.00  0.00    -0.271 C  
BRANCH  10  11
HETATM   11  C   UNL     1     -10.496  14.385  67.464  1.00  0.00    -0.252 C  
HETATM   12  C   UNL     1      -9.306  14.530  68.386  1.00  0.00    -0.208 C  
HETATM   13  O   UNL     1      -9.348  15.682  69.097  1.00  0.00    -0.216 OA 
HETATM   14  O   UNL     1      -8.396  13.726  68.502  1.00  0.00    -0.155 OA 
ENDBRANCH  10  11
ENDBRANCH   9  10
ENDBRANCH   8   9
ENDBRANCH   7   8
ENDBRANCH   6   7
ENDBRANCH   5   6
ENDBRANCH   4   5
ENDBRANCH   3   4
ENDBRANCH   2   3
TORSDOF 9
ENDMDL
MODEL      164
REMARK 921   NORMALIZED FREE ENERGY PREDICTED BY IDOCK:   -3.14 KCAL/MOL
REMARK 922        TOTAL FREE ENERGY PREDICTED BY IDOCK:   -5.34 KCAL/MOL
REMARK 923 INTER-LIGAND FREE ENERGY PREDICTED BY IDOCK:   -4.83 KCAL/MOL
REMARK 924 INTRA-LIGAND FREE ENERGY PREDICTED BY IDOCK:   -0.52 KCAL/MOL
REMARK 927      BINDING AFFINITY PREDICTED BY RF-SCORE:    0.00 PKD
ROOT
HETATM    1  C   UNL     1     -10.003   5.276  69.063  1.00  0.00    -0.260 C  
HETATM    2  C   UNL     1     -11.059   6.266  68.601  1.00  0.00    -0.409 C  
ENDROOT
BRANCH   2   3
HETATM    3  C   UNL     1     -11.028   6.440  67.084  1.00  0.00    -0.476 C  
BRANCH   3   4
HETATM    4  C   UNL     1      -9.783   7.204  66.637  1.00  0.00    -0.233 C  
BRANCH   4   5
HETATM    5  C   UNL     1      -9.957   8.706  66.853  1.00  0.00    -0.330 C  
BRANCH   5   6
HETATM    6  C   UNL     1      -8.961   9.501  66.012  1.00  0.00    -0.198 C  
BRANCH   6   7
HETATM    7  C   UNL     1      -9.448  10.932  65.786  1.00  0.00    -0.246 C  
BRANCH   7   8
HETATM    8  C   UNL     1     -10.200  11.449  67.011  1.00  0.00    -0.246 C  
BRANCH   8   9
HETATM    9  C   UNL     1     -11.555  12.040  66.627  1.00  0.00    -0.389 C  
BRANCH   9  10
HETATM   10  C   UNL     1     -11.679  13.480  67.124  1.00  0.00    -0.419 C  
BRANCH  10  11
HETATM   11  C   UNL     1     -12.028  14.437  65.987  1.00  0.00    -0.377 C  
HETATM   12  C   UNL     1     -10.810  15.188  65.496  1.00  0.00    -0.364 C  
HETATM   13  O   UNL     1     -11.108  16.039  64.486  1.00  0.00    -0.572 OA 
HETATM   14  O   UNL     1      -9.678  15.067  65.933  1.00  0.00    -0.306 OA 
ENDBRANCH  10  11
ENDBRANCH   9  10
ENDBRANCH   8   9
ENDBRANCH   7   8
ENDBRANCH   6   7
ENDBRANCH   5   6
ENDBRANCH   4   5
ENDBRANCH   3   4
ENDBRANCH   2   3
TORSDOF 9
ENDMDL
MODEL      165
REMARK 921   NORMALIZED FREE ENERGY PREDICTED BY IDOCK:   -3.14 KCAL/MOL
REMARK 922        TOTAL FREE ENERGY PREDICTED BY IDOCK:   -5.34 KCAL/MOL
REMARK 923 INTER-LIGAND FREE ENERGY PREDICTED BY IDOCK:   -4.55 KCAL/MOL
REMARK 924 INTRA-LIGAND FREE ENERGY PREDICTED BY IDOCK:   -0.79 KCAL/MOL
REMARK 927      BINDING AFFINITY PREDICTED BY RF-SCORE:    0.00 PKD
ROOT
HETATM    1  C   UNL     1     -14.170   8.441  71.882  1.00  0.00    -0.541 C  
HETATM    2  C   UNL     1     -13.228   9.574  71.509  1.00  0.00    -0.468 C  
ENDROOT
BRANCH   2   3
HETATM    3  C   UNL     1     -11.774   9.198  71.787  1.00  0.00    -0.456 C  
BRANCH   3   4
HETATM    4  C   UNL     1     -11.677   7.870  72.535  1.00  0.00    -0.423 C  
BRANCH   4   5
HETATM    5  C   UNL     1     -10.474   7.058  72.055  1.00  0.00    -0.232 C  
BRANCH   5   6
HETATM    6  C   UNL     1     -10.907   5.937  71.113  1.00  0.00    -0.334 C  
BRANCH   6   7
HETATM    7  C   UNL     1     -11.645   6.494  69.896  1.00  0.00    -0.433 C  
BRANCH   7   8
HETATM    8  C   UNL     1     -10.762   6.430  68.650  1.00  0.00    -0.341 C  
BRANCH   8   9
HETATM    9  C   UNL     1      -9.514   7.298  68.805  1.00  0.00    -0.142 C  
BRANCH   9  10
HETATM   10  C   UNL     1      -9.868   8.781  68.684  1.00  0.00    -0.180 C  
BRANCH  10  11
HETATM   11  C   UNL     1      -9.816   9.253  67.234  1.00  0.00    -0.236 C  
HETATM   12  C   UNL     1     -10.698  10.459  67.007  1.00  0.00    -0.235 C  
HETATM   13  O   UNL     1     -10.659  10.888  65.723  1.00  0.00    -0.232 OA 
HETATM   14  O   UNL     1     -11.380  11.009  67.856  1.00  0.00    -0.294 OA 
ENDBRANCH  10  11
ENDBRANCH   9  10
ENDBRANCH   8   9
ENDBRANCH   7   8
ENDBRANCH   6   7
ENDBRANCH   5   6
ENDBRANCH   4   5
ENDBRANCH   3   4
ENDBRANCH   2   3
TORSDOF 9
ENDMDL
MODEL      166
REMARK 921   NORMALIZED FREE ENERGY PREDICTED BY IDOCK:   -3.14 KCAL/MOL
REMARK 922        TOTAL FREE ENERGY PREDICTED BY IDOCK:   -5.33 KCAL/MOL
REMARK 923 INTER-LIGAND FREE ENERGY PREDICTED BY IDOCK:   -4.36 KCAL/MOL
REMARK 924 INTRA-LIGAND FREE ENERGY PREDICTED BY IDOCK:   -0.97 KCAL/MOL
REMARK 927      BINDING AFFINITY PREDICTED BY RF-SCORE:    0.00 PKD
ROOT
HETATM    1  C   UNL     1      -9.301  12.543  68.168  1.00  0.00    -0.210 C  
HETATM    2  C   UNL     1      -8.946  13.616  67.152  1.00  0.00    -0.235 C  
ENDROOT
BRANCH   2   3
HETATM    3  C   UNL     1      -7.556  14.190  67.417  1.00  0.00    -0.179 C  
BRANCH   3   4
HETATM    4  C   UNL     1      -7.621  15.392  68.357  1.00  0.00    -0.116 C  
BRANCH   4   5
HETATM    5  C   UNL     1      -7.996  16.662  67.595  1.00  0.00    -0.188 C  
BRANCH   5   6
HETATM    6  C   UNL     1      -8.968  17.521  68.402  1.00  0.00    -0.276 C  
BRANCH   6   7
HETATM    7  C   UNL     1     -10.343  17.571  67.737  1.00  0.00    -0.367 C  
BRANCH   7   8
HETATM    8  C   UNL     1     -11.110  16.272  67.980  1.00  0.00    -0.299 C  
BRANCH   8   9
HETATM    9  C   UNL     1     -11.572  16.160  69.432  1.00  0.00    -0.261 C  
BRANCH   9  10
HETATM   10  C   UNL     1     -12.019  14.733  69.749  1.00  0.00    -0.368 C  
BRANCH  10  11
HETATM   11  C   UNL     1     -12.124  14.500  71.254  1.00  0.00    -0.419 C  
HETATM   12  C   UNL     1     -13.473  14.920  71.792  1.00  0.00    -0.388 C  
HETATM   13  O   UNL     1     -13.577  14.717  73.127  1.00  0.00    -0.569 OA 
HETATM   14  O   UNL     1     -14.384  15.391  71.132  1.00  0.00    -0.490 OA 
ENDBRANCH  10  11
ENDBRANCH   9  10
ENDBRANCH   8   9
ENDBRANCH   7   8
ENDBRANCH   6   7
ENDBRANCH   5   6
ENDBRANCH   4   5
ENDBRANCH   3   4
ENDBRANCH   2   3
TORSDOF 9
ENDMDL
MODEL      167
REMARK 921   NORMALIZED FREE ENERGY PREDICTED BY IDOCK:   -3.14 KCAL/MOL
REMARK 922        TOTAL FREE ENERGY PREDICTED BY IDOCK:   -5.33 KCAL/MOL
REMARK 923 INTER-LIGAND FREE ENERGY PREDICTED BY IDOCK:   -4.55 KCAL/MOL
REMARK 924 INTRA-LIGAND FREE ENERGY PREDICTED BY IDOCK:   -0.78 KCAL/MOL
REMARK 927      BINDING AFFINITY PREDICTED BY RF-SCORE:    0.00 PKD
ROOT
HETATM    1  C   UNL     1      -9.130   8.817  71.280  1.00  0.00    -0.300 C  
HETATM    2  C   UNL     1     -10.575   9.287  71.216  1.00  0.00    -0.417 C  
ENDROOT
BRANCH   2   3
HETATM    3  C   UNL     1     -11.102   9.257  69.783  1.00  0.00    -0.168 C  
BRANCH   3   4
HETATM    4  C   UNL     1     -10.600   8.026  69.031  1.00  0.00    -0.169 C  
BRANCH   4   5
HETATM    5  C   UNL     1     -10.442   8.322  67.541  1.00  0.00    -0.325 C  
BRANCH   5   6
HETATM    6  C   UNL     1      -9.840   9.707  67.315  1.00  0.00    -0.225 C  
BRANCH   6   7
HETATM    7  C   UNL     1     -10.205  10.249  65.934  1.00  0.00    -0.293 C  
BRANCH   7   8
HETATM    8  C   UNL     1     -10.665  11.704  66.026  1.00  0.00    -0.328 C  
BRANCH   8   9
HETATM    9  C   UNL     1     -11.446  11.961  67.314  1.00  0.00    -0.385 C  
BRANCH   9  10
HETATM   10  C   UNL     1     -11.838  13.435  67.423  1.00  0.00    -0.418 C  
BRANCH  10  11
HETATM   11  C   UNL     1     -11.870  14.110  66.055  1.00  0.00    -0.409 C  
HETATM   12  C   UNL     1     -10.872  15.242  65.967  1.00  0.00    -0.330 C  
HETATM   13  O   UNL     1     -10.890  15.847  64.756  1.00  0.00    -0.533 OA 
HETATM   14  O   UNL     1     -10.122  15.597  66.861  1.00  0.00    -0.252 OA 
ENDBRANCH  10  11
ENDBRANCH   9  10
ENDBRANCH   8   9
ENDBRANCH   7   8
ENDBRANCH   6   7
ENDBRANCH   5   6
ENDBRANCH   4   5
ENDBRANCH   3   4
ENDBRANCH   2   3
TORSDOF 9
ENDMDL
MODEL      168
REMARK 921   NORMALIZED FREE ENERGY PREDICTED BY IDOCK:   -3.14 KCAL/MOL
REMARK 922        TOTAL FREE ENERGY PREDICTED BY IDOCK:   -5.33 KCAL/MOL
REMARK 923 INTER-LIGAND FREE ENERGY PREDICTED BY IDOCK:   -4.85 KCAL/MOL
REMARK 924 INTRA-LIGAND FREE ENERGY PREDICTED BY IDOCK:   -0.48 KCAL/MOL
REMARK 927      BINDING AFFINITY PREDICTED BY RF-SCORE:    0.00 PKD
ROOT
HETATM    1  C   UNL     1     -13.466  12.679  71.995  1.00  0.00    -0.516 C  
HETATM    2  C   UNL     1     -12.493  12.270  70.901  1.00  0.00    -0.371 C  
ENDROOT
BRANCH   2   3
HETATM    3  C   UNL     1     -12.527  10.762  70.666  1.00  0.00    -0.461 C  
BRANCH   3   4
HETATM    4  C   UNL     1     -11.139  10.221  70.329  1.00  0.00    -0.388 C  
BRANCH   4   5
HETATM    5  C   UNL     1     -11.015   9.924  68.835  1.00  0.00    -0.214 C  
BRANCH   5   6
HETATM    6  C   UNL     1     -10.412  11.112  68.087  1.00  0.00    -0.215 C  
BRANCH   6   7
HETATM    7  C   UNL     1     -10.582  10.955  66.576  1.00  0.00    -0.295 C  
BRANCH   7   8
HETATM    8  C   UNL     1     -10.883  12.303  65.922  1.00  0.00    -0.306 C  
BRANCH   8   9
HETATM    9  C   UNL     1     -11.199  13.372  66.966  1.00  0.00    -0.328 C  
BRANCH   9  10
HETATM   10  C   UNL     1     -10.029  14.345  67.115  1.00  0.00    -0.253 C  
BRANCH  10  11
HETATM   11  C   UNL     1     -10.499  15.718  67.588  1.00  0.00    -0.282 C  
HETATM   12  C   UNL     1     -10.236  16.786  66.550  1.00  0.00    -0.316 C  
HETATM   13  O   UNL     1     -10.650  18.009  66.959  1.00  0.00    -0.366 OA 
HETATM   14  O   UNL     1      -9.714  16.605  65.463  1.00  0.00    -0.538 OA 
ENDBRANCH  10  11
ENDBRANCH   9  10
ENDBRANCH   8   9
ENDBRANCH   7   8
ENDBRANCH   6   7
ENDBRANCH   5   6
ENDBRANCH   4   5
ENDBRANCH   3   4
ENDBRANCH   2   3
TORSDOF 9
ENDMDL
MODEL      169
REMARK 921   NORMALIZED FREE ENERGY PREDICTED BY IDOCK:   -3.13 KCAL/MOL
REMARK 922        TOTAL FREE ENERGY PREDICTED BY IDOCK:   -5.32 KCAL/MOL
REMARK 923 INTER-LIGAND FREE ENERGY PREDICTED BY IDOCK:   -4.40 KCAL/MOL
REMARK 924 INTRA-LIGAND FREE ENERGY PREDICTED BY IDOCK:   -0.92 KCAL/MOL
REMARK 927      BINDING AFFINITY PREDICTED BY RF-SCORE:    0.00 PKD
ROOT
HETATM    1  C   UNL     1      -6.799  11.029  67.202  1.00  0.00    -0.098 C  
HETATM    2  C   UNL     1      -7.824  10.791  66.105  1.00  0.00    -0.155 C  
ENDROOT
BRANCH   2   3
HETATM    3  C   UNL     1      -9.247  10.976  66.628  1.00  0.00    -0.182 C  
BRANCH   3   4
HETATM    4  C   UNL     1     -10.278  10.456  65.629  1.00  0.00    -0.308 C  
BRANCH   4   5
HETATM    5  C   UNL     1      -9.813  10.688  64.192  1.00  0.00    -0.396 C  
BRANCH   5   6
HETATM    6  C   UNL     1     -10.726  11.678  63.472  1.00  0.00    -0.495 C  
BRANCH   6   7
HETATM    7  C   UNL     1     -10.733  13.035  64.174  1.00  0.00    -0.429 C  
BRANCH   7   8
HETATM    8  C   UNL     1     -12.096  13.309  64.810  1.00  0.00    -0.456 C  
BRANCH   8   9
HETATM    9  C   UNL     1     -11.951  13.818  66.243  1.00  0.00    -0.462 C  
BRANCH   9  10
HETATM   10  C   UNL     1     -10.578  14.456  66.455  1.00  0.00    -0.297 C  
BRANCH  10  11
HETATM   11  C   UNL     1     -10.697  15.930  66.832  1.00  0.00    -0.289 C  
HETATM   12  C   UNL     1     -10.331  16.168  68.279  1.00  0.00    -0.266 C  
HETATM   13  O   UNL     1     -10.433  17.473  68.625  1.00  0.00    -0.356 OA 
HETATM   14  O   UNL     1      -9.981  15.310  69.072  1.00  0.00    -0.208 OA 
ENDBRANCH  10  11
ENDBRANCH   9  10
ENDBRANCH   8   9
ENDBRANCH   7   8
ENDBRANCH   6   7
ENDBRANCH   5   6
ENDBRANCH   4   5
ENDBRANCH   3   4
ENDBRANCH   2   3
TORSDOF 9
ENDMDL
MODEL      170
REMARK 921   NORMALIZED FREE ENERGY PREDICTED BY IDOCK:   -3.12 KCAL/MOL
REMARK 922        TOTAL FREE ENERGY PREDICTED BY IDOCK:   -5.30 KCAL/MOL
REMARK 923 INTER-LIGAND FREE ENERGY PREDICTED BY IDOCK:   -4.92 KCAL/MOL
REMARK 924 INTRA-LIGAND FREE ENERGY PREDICTED BY IDOCK:   -0.38 KCAL/MOL
REMARK 927      BINDING AFFINITY PREDICTED BY RF-SCORE:    0.00 PKD
ROOT
HETATM    1  C   UNL     1     -12.654  12.891  64.859  1.00  0.00    -0.525 C  
HETATM    2  C   UNL     1     -12.132  12.020  63.728  1.00  0.00    -0.599 C  
ENDROOT
BRANCH   2   3
HETATM    3  C   UNL     1     -10.606  11.993  63.710  1.00  0.00    -0.478 C  
BRANCH   3   4
HETATM    4  C   UNL     1     -10.067  10.659  64.220  1.00  0.00    -0.411 C  
BRANCH   4   5
HETATM    5  C   UNL     1     -10.074  10.614  65.747  1.00  0.00    -0.327 C  
BRANCH   5   6
HETATM    6  C   UNL     1      -9.425   9.331  66.263  1.00  0.00    -0.284 C  
BRANCH   6   7
HETATM    7  C   UNL     1     -10.452   8.431  66.949  1.00  0.00    -0.359 C  
BRANCH   7   8
HETATM    8  C   UNL     1      -9.952   7.987  68.323  1.00  0.00    -0.210 C  
BRANCH   8   9
HETATM    9  C   UNL     1     -10.126   6.483  68.522  1.00  0.00    -0.172 C  
BRANCH   9  10
HETATM   10  C   UNL     1     -11.109   6.196  69.657  1.00  0.00    -0.489 C  
BRANCH  10  11
HETATM   11  C   UNL     1     -11.398   7.450  70.478  1.00  0.00    -0.295 C  
HETATM   12  C   UNL     1     -10.805   7.359  71.866  1.00  0.00    -0.229 C  
HETATM   13  O   UNL     1     -11.055   8.467  72.602  1.00  0.00    -0.359 OA 
HETATM   14  O   UNL     1     -10.171   6.414  72.305  1.00  0.00    -0.184 OA 
ENDBRANCH  10  11
ENDBRANCH   9  10
ENDBRANCH   8   9
ENDBRANCH   7   8
ENDBRANCH   6   7
ENDBRANCH   5   6
ENDBRANCH   4   5
ENDBRANCH   3   4
ENDBRANCH   2   3
TORSDOF 9
ENDMDL
MODEL      171
REMARK 921   NORMALIZED FREE ENERGY PREDICTED BY IDOCK:   -3.12 KCAL/MOL
REMARK 922        TOTAL FREE ENERGY PREDICTED BY IDOCK:   -5.30 KCAL/MOL
REMARK 923 INTER-LIGAND FREE ENERGY PREDICTED BY IDOCK:   -4.77 KCAL/MOL
REMARK 924 INTRA-LIGAND FREE ENERGY PREDICTED BY IDOCK:   -0.53 KCAL/MOL
REMARK 927      BINDING AFFINITY PREDICTED BY RF-SCORE:    0.00 PKD
ROOT
HETATM    1  C   UNL     1     -12.297  15.770  74.217  1.00  0.00    -0.790 C  
HETATM    2  C   UNL     1     -12.907  16.048  72.853  1.00  0.00    -0.552 C  
ENDROOT
BRANCH   2   3
HETATM    3  C   UNL     1     -12.002  15.545  71.730  1.00  0.00    -0.494 C  
BRANCH   3   4
HETATM    4  C   UNL     1     -12.738  14.563  70.821  1.00  0.00    -0.425 C  
BRANCH   4   5
HETATM    5  C   UNL     1     -12.045  14.449  69.464  1.00  0.00    -0.366 C  
BRANCH   5   6
HETATM    6  C   UNL     1     -10.990  15.539  69.292  1.00  0.00    -0.268 C  
BRANCH   6   7
HETATM    7  C   UNL     1     -10.708  15.806  67.814  1.00  0.00    -0.307 C  
BRANCH   7   8
HETATM    8  C   UNL     1      -9.724  16.963  67.650  1.00  0.00    -0.249 C  
BRANCH   8   9
HETATM    9  C   UNL     1      -8.986  17.258  68.955  1.00  0.00    -0.173 C  
BRANCH   9  10
HETATM   10  C   UNL     1      -7.645  17.938  68.677  1.00  0.00    -0.285 C  
BRANCH  10  11
HETATM   11  C   UNL     1      -7.706  18.806  67.423  1.00  0.00    -0.240 C  
HETATM   12  C   UNL     1      -6.532  19.755  67.343  1.00  0.00    -0.195 C  
HETATM   13  O   UNL     1      -6.575  20.529  66.233  1.00  0.00    -0.224 OA 
HETATM   14  O   UNL     1      -5.633  19.841  68.162  1.00  0.00    -0.201 OA 
ENDBRANCH  10  11
ENDBRANCH   9  10
ENDBRANCH   8   9
ENDBRANCH   7   8
ENDBRANCH   6   7
ENDBRANCH   5   6
ENDBRANCH   4   5
ENDBRANCH   3   4
ENDBRANCH   2   3
TORSDOF 9
ENDMDL
MODEL      172
REMARK 921   NORMALIZED FREE ENERGY PREDICTED BY IDOCK:   -3.11 KCAL/MOL
REMARK 922        TOTAL FREE ENERGY PREDICTED BY IDOCK:   -5.30 KCAL/MOL
REMARK 923 INTER-LIGAND FREE ENERGY PREDICTED BY IDOCK:   -4.36 KCAL/MOL
REMARK 924 INTRA-LIGAND FREE ENERGY PREDICTED BY IDOCK:   -0.94 KCAL/MOL
REMARK 927      BINDING AFFINITY PREDICTED BY RF-SCORE:    0.00 PKD
ROOT
HETATM    1  C   UNL     1      -9.999   5.041  68.124  1.00  0.00    -0.190 C  
HETATM    2  C   UNL     1     -10.144   5.564  69.544  1.00  0.00    -0.305 C  
ENDROOT
BRANCH   2   3
HETATM    3  C   UNL     1     -11.410   6.405  69.696  1.00  0.00    -0.479 C  
BRANCH   3   4
HETATM    4  C   UNL     1     -11.551   6.944  71.118  1.00  0.00    -0.363 C  
BRANCH   4   5
HETATM    5  C   UNL     1     -12.921   6.599  71.701  1.00  0.00    -0.186 C  
BRANCH   5   6
HETATM    6  C   UNL     1     -13.882   7.779  71.582  1.00  0.00    -0.465 C  
BRANCH   6   7
HETATM    7  C   UNL     1     -13.198   9.090  71.968  1.00  0.00    -0.486 C  
BRANCH   7   8
HETATM    8  C   UNL     1     -13.273  10.099  70.824  1.00  0.00    -0.290 C  
BRANCH   8   9
HETATM    9  C   UNL     1     -12.087  11.062  70.849  1.00  0.00    -0.444 C  
BRANCH   9  10
HETATM   10  C   UNL     1     -11.408  11.121  69.481  1.00  0.00    -0.359 C  
BRANCH  10  11
HETATM   11  C   UNL     1     -10.070  10.388  69.487  1.00  0.00    -0.246 C  
HETATM   12  C   UNL     1      -9.970   9.398  68.349  1.00  0.00    -0.170 C  
HETATM   13  O   UNL     1      -8.785   8.742  68.344  1.00  0.00    -0.133 OA 
HETATM   14  O   UNL     1     -10.834   9.188  67.514  1.00  0.00    -0.242 OA 
ENDBRANCH  10  11
ENDBRANCH   9  10
ENDBRANCH   8   9
ENDBRANCH   7   8
ENDBRANCH   6   7
ENDBRANCH   5   6
ENDBRANCH   4   5
ENDBRANCH   3   4
ENDBRANCH   2   3
TORSDOF 9
ENDMDL
MODEL      173
REMARK 921   NORMALIZED FREE ENERGY PREDICTED BY IDOCK:   -3.10 KCAL/MOL
REMARK 922        TOTAL FREE ENERGY PREDICTED BY IDOCK:   -5.28 KCAL/MOL
REMARK 923 INTER-LIGAND FREE ENERGY PREDICTED BY IDOCK:   -4.51 KCAL/MOL
REMARK 924 INTRA-LIGAND FREE ENERGY PREDICTED BY IDOCK:   -0.77 KCAL/MOL
REMARK 927      BINDING AFFINITY PREDICTED BY RF-SCORE:    0.00 PKD
ROOT
HETATM    1  C   UNL     1     -12.719  13.852  65.510  1.00  0.00    -0.536 C  
HETATM    2  C   UNL     1     -11.230  14.099  65.333  1.00  0.00    -0.325 C  
ENDROOT
BRANCH   2   3
HETATM    3  C   UNL     1     -10.941  15.578  65.085  1.00  0.00    -0.422 C  
BRANCH   3   4
HETATM    4  C   UNL     1      -9.805  16.080  65.974  1.00  0.00    -0.365 C  
BRANCH   4   5
HETATM    5  C   UNL     1     -10.327  16.488  67.350  1.00  0.00    -0.290 C  
BRANCH   5   6
HETATM    6  C   UNL     1      -9.451  15.916  68.463  1.00  0.00    -0.209 C  
BRANCH   6   7
HETATM    7  C   UNL     1     -10.302  15.356  69.602  1.00  0.00    -0.283 C  
BRANCH   7   8
HETATM    8  C   UNL     1     -11.756  15.193  69.163  1.00  0.00    -0.349 C  
BRANCH   8   9
HETATM    9  C   UNL     1     -12.150  13.720  69.073  1.00  0.00    -0.359 C  
BRANCH   9  10
HETATM   10  C   UNL     1     -11.979  13.029  70.426  1.00  0.00    -0.337 C  
BRANCH  10  11
HETATM   11  C   UNL     1     -12.156  11.518  70.310  1.00  0.00    -0.444 C  
HETATM   12  C   UNL     1     -11.039  10.884  69.513  1.00  0.00    -0.268 C  
HETATM   13  O   UNL     1     -11.186   9.543  69.405  1.00  0.00    -0.163 OA 
HETATM   14  O   UNL     1     -10.100  11.479  69.012  1.00  0.00    -0.163 OA 
ENDBRANCH  10  11
ENDBRANCH   9  10
ENDBRANCH   8   9
ENDBRANCH   7   8
ENDBRANCH   6   7
ENDBRANCH   5   6
ENDBRANCH   4   5
ENDBRANCH   3   4
ENDBRANCH   2   3
TORSDOF 9
ENDMDL
MODEL      174
REMARK 921   NORMALIZED FREE ENERGY PREDICTED BY IDOCK:   -3.10 KCAL/MOL
REMARK 922        TOTAL FREE ENERGY PREDICTED BY IDOCK:   -5.28 KCAL/MOL
REMARK 923 INTER-LIGAND FREE ENERGY PREDICTED BY IDOCK:   -3.91 KCAL/MOL
REMARK 924 INTRA-LIGAND FREE ENERGY PREDICTED BY IDOCK:   -1.37 KCAL/MOL
REMARK 927      BINDING AFFINITY PREDICTED BY RF-SCORE:    0.00 PKD
ROOT
HETATM    1  C   UNL     1      -7.122  13.078  67.630  1.00  0.00    -0.156 C  
HETATM    2  C   UNL     1      -6.959  11.578  67.440  1.00  0.00    -0.111 C  
ENDROOT
BRANCH   2   3
HETATM    3  C   UNL     1      -7.786  11.078  66.258  1.00  0.00    -0.132 C  
BRANCH   3   4
HETATM    4  C   UNL     1      -8.232   9.632  66.463  1.00  0.00    -0.119 C  
BRANCH   4   5
HETATM    5  C   UNL     1      -9.562   9.364  65.760  1.00  0.00    -0.340 C  
BRANCH   5   6
HETATM    6  C   UNL     1     -10.657   9.021  66.768  1.00  0.00    -0.201 C  
BRANCH   6   7
HETATM    7  C   UNL     1     -10.394   9.689  68.117  1.00  0.00    -0.250 C  
BRANCH   7   8
HETATM    8  C   UNL     1     -11.374  10.837  68.354  1.00  0.00    -0.367 C  
BRANCH   8   9
HETATM    9  C   UNL     1     -10.681  12.194  68.245  1.00  0.00    -0.248 C  
BRANCH   9  10
HETATM   10  C   UNL     1     -11.414  13.098  67.253  1.00  0.00    -0.375 C  
BRANCH  10  11
HETATM   11  C   UNL     1     -11.579  12.421  65.895  1.00  0.00    -0.449 C  
HETATM   12  C   UNL     1     -10.823  13.155  64.810  1.00  0.00    -0.352 C  
HETATM   13  O   UNL     1     -10.961  12.562  63.600  1.00  0.00    -0.421 OA 
HETATM   14  O   UNL     1     -10.157  14.164  64.968  1.00  0.00    -0.383 OA 
ENDBRANCH  10  11
ENDBRANCH   9  10
ENDBRANCH   8   9
ENDBRANCH   7   8
ENDBRANCH   6   7
ENDBRANCH   5   6
ENDBRANCH   4   5
ENDBRANCH   3   4
ENDBRANCH   2   3
TORSDOF 9
ENDMDL
MODEL      175
REMARK 921   NORMALIZED FREE ENERGY PREDICTED BY IDOCK:   -3.10 KCAL/MOL
REMARK 922        TOTAL FREE ENERGY PREDICTED BY IDOCK:   -5.27 KCAL/MOL
REMARK 923 INTER-LIGAND FREE ENERGY PREDICTED BY IDOCK:   -4.49 KCAL/MOL
REMARK 924 INTRA-LIGAND FREE ENERGY PREDICTED BY IDOCK:   -0.78 KCAL/MOL
REMARK 927      BINDING AFFINITY PREDICTED BY RF-SCORE:    0.00 PKD
ROOT
HETATM    1  C   UNL     1     -11.033  16.116  69.829  1.00  0.00    -0.349 C  
HETATM    2  C   UNL     1     -10.736  14.841  69.057  1.00  0.00    -0.251 C  
ENDROOT
BRANCH   2   3
HETATM    3  C   UNL     1     -12.023  14.168  68.585  1.00  0.00    -0.373 C  
BRANCH   3   4
HETATM    4  C   UNL     1     -12.024  13.970  67.071  1.00  0.00    -0.472 C  
BRANCH   4   5
HETATM    5  C   UNL     1     -10.604  14.032  66.510  1.00  0.00    -0.279 C  
BRANCH   5   6
HETATM    6  C   UNL     1     -10.224  12.719  65.829  1.00  0.00    -0.302 C  
BRANCH   6   7
HETATM    7  C   UNL     1     -11.080  11.563  66.343  1.00  0.00    -0.328 C  
BRANCH   7   8
HETATM    8  C   UNL     1     -10.277  10.263  66.372  1.00  0.00    -0.290 C  
BRANCH   8   9
HETATM    9  C   UNL     1     -10.605   9.431  67.610  1.00  0.00    -0.333 C  
BRANCH   9  10
HETATM   10  C   UNL     1     -10.393  10.248  68.884  1.00  0.00    -0.221 C  
BRANCH  10  11
HETATM   11  C   UNL     1      -9.871   9.381  70.026  1.00  0.00    -0.253 C  
HETATM   12  C   UNL     1     -10.811   9.391  71.210  1.00  0.00    -0.361 C  
HETATM   13  O   UNL     1     -10.359   8.624  72.229  1.00  0.00    -0.327 OA 
HETATM   14  O   UNL     1     -11.862  10.007  71.275  1.00  0.00    -0.354 OA 
ENDBRANCH  10  11
ENDBRANCH   9  10
ENDBRANCH   8   9
ENDBRANCH   7   8
ENDBRANCH   6   7
ENDBRANCH   5   6
ENDBRANCH   4   5
ENDBRANCH   3   4
ENDBRANCH   2   3
TORSDOF 9
ENDMDL
MODEL      176
REMARK 921   NORMALIZED FREE ENERGY PREDICTED BY IDOCK:   -3.07 KCAL/MOL
REMARK 922        TOTAL FREE ENERGY PREDICTED BY IDOCK:   -5.23 KCAL/MOL
REMARK 923 INTER-LIGAND FREE ENERGY PREDICTED BY IDOCK:   -4.28 KCAL/MOL
REMARK 924 INTRA-LIGAND FREE ENERGY PREDICTED BY IDOCK:   -0.95 KCAL/MOL
REMARK 927      BINDING AFFINITY PREDICTED BY RF-SCORE:    0.00 PKD
ROOT
HETATM    1  C   UNL     1      -8.426   8.470  71.705  1.00  0.00    -0.236 C  
HETATM    2  C   UNL     1      -9.900   8.470  72.076  1.00  0.00    -0.383 C  
ENDROOT
BRANCH   2   3
HETATM    3  C   UNL     1     -10.783   8.554  70.832  1.00  0.00    -0.268 C  
BRANCH   3   4
HETATM    4  C   UNL     1     -10.674   7.286  69.987  1.00  0.00    -0.261 C  
BRANCH   4   5
HETATM    5  C   UNL     1     -10.535   7.628  68.504  1.00  0.00    -0.206 C  
BRANCH   5   6
HETATM    6  C   UNL     1      -9.901   9.004  68.314  1.00  0.00    -0.186 C  
BRANCH   6   7
HETATM    7  C   UNL     1     -10.359   9.646  67.005  1.00  0.00    -0.315 C  
BRANCH   7   8
HETATM    8  C   UNL     1     -11.238  10.866  67.278  1.00  0.00    -0.307 C  
BRANCH   8   9
HETATM    9  C   UNL     1     -10.779  11.616  68.528  1.00  0.00    -0.250 C  
BRANCH   9  10
HETATM   10  C   UNL     1     -11.952  11.848  69.481  1.00  0.00    -0.355 C  
BRANCH  10  11
HETATM   11  C   UNL     1     -11.962  13.276  70.019  1.00  0.00    -0.399 C  
HETATM   12  C   UNL     1     -12.753  13.382  71.304  1.00  0.00    -0.338 C  
HETATM   13  O   UNL     1     -12.768  14.645  71.791  1.00  0.00    -0.311 OA 
HETATM   14  O   UNL     1     -13.323  12.461  71.864  1.00  0.00    -0.468 OA 
ENDBRANCH  10  11
ENDBRANCH   9  10
ENDBRANCH   8   9
ENDBRANCH   7   8
ENDBRANCH   6   7
ENDBRANCH   5   6
ENDBRANCH   4   5
ENDBRANCH   3   4
ENDBRANCH   2   3
TORSDOF 9
ENDMDL
MODEL      177
REMARK 921   NORMALIZED FREE ENERGY PREDICTED BY IDOCK:   -3.07 KCAL/MOL
REMARK 922        TOTAL FREE ENERGY PREDICTED BY IDOCK:   -5.22 KCAL/MOL
REMARK 923 INTER-LIGAND FREE ENERGY PREDICTED BY IDOCK:   -3.81 KCAL/MOL
REMARK 924 INTRA-LIGAND FREE ENERGY PREDICTED BY IDOCK:   -1.42 KCAL/MOL
REMARK 927      BINDING AFFINITY PREDICTED BY RF-SCORE:    0.00 PKD
ROOT
HETATM    1  C   UNL     1      -7.924   8.842  71.124  1.00  0.00    -0.181 C  
HETATM    2  C   UNL     1      -8.326   9.801  70.015  1.00  0.00    -0.211 C  
ENDROOT
BRANCH   2   3
HETATM    3  C   UNL     1      -9.845   9.896  69.890  1.00  0.00    -0.285 C  
BRANCH   3   4
HETATM    4  C   UNL     1     -10.296   9.719  68.442  1.00  0.00    -0.230 C  
BRANCH   4   5
HETATM    5  C   UNL     1      -9.121   9.330  67.547  1.00  0.00    -0.133 C  
BRANCH   5   6
HETATM    6  C   UNL     1      -9.241   7.880  67.081  1.00  0.00    -0.175 C  
BRANCH   6   7
HETATM    7  C   UNL     1     -10.692   7.403  67.132  1.00  0.00    -0.400 C  
BRANCH   7   8
HETATM    8  C   UNL     1     -10.801   6.081  67.890  1.00  0.00    -0.378 C  
BRANCH   8   9
HETATM    9  C   UNL     1      -9.860   6.048  69.094  1.00  0.00    -0.185 C  
BRANCH   9  10
HETATM   10  C   UNL     1     -10.577   5.494  70.326  1.00  0.00    -0.357 C  
BRANCH  10  11
HETATM   11  C   UNL     1     -10.547   6.486  71.485  1.00  0.00    -0.265 C  
HETATM   12  C   UNL     1     -11.866   7.211  71.633  1.00  0.00    -0.306 C  
HETATM   13  O   UNL     1     -11.851   8.094  72.660  1.00  0.00    -0.395 OA 
HETATM   14  O   UNL     1     -12.848   7.047  70.929  1.00  0.00    -0.306 OA 
ENDBRANCH  10  11
ENDBRANCH   9  10
ENDBRANCH   8   9
ENDBRANCH   7   8
ENDBRANCH   6   7
ENDBRANCH   5   6
ENDBRANCH   4   5
ENDBRANCH   3   4
ENDBRANCH   2   3
TORSDOF 9
ENDMDL
MODEL      178
REMARK 921   NORMALIZED FREE ENERGY PREDICTED BY IDOCK:   -3.07 KCAL/MOL
REMARK 922        TOTAL FREE ENERGY PREDICTED BY IDOCK:   -5.22 KCAL/MOL
REMARK 923 INTER-LIGAND FREE ENERGY PREDICTED BY IDOCK:   -4.56 KCAL/MOL
REMARK 924 INTRA-LIGAND FREE ENERGY PREDICTED BY IDOCK:   -0.66 KCAL/MOL
REMARK 927      BINDING AFFINITY PREDICTED BY RF-SCORE:    0.00 PKD
ROOT
HETATM    1  C   UNL     1      -9.458   3.546  68.088  1.00  0.00    -0.215 C  
HETATM    2  C   UNL     1      -9.846   4.985  68.387  1.00  0.00    -0.209 C  
ENDROOT
BRANCH   2   3
HETATM    3  C   UNL     1     -10.482   5.650  67.168  1.00  0.00    -0.334 C  
BRANCH   3   4
HETATM    4  C   UNL     1      -9.423   6.253  66.248  1.00  0.00    -0.135 C  
BRANCH   4   5
HETATM    5  C   UNL     1      -9.270   7.753  66.498  1.00  0.00    -0.229 C  
BRANCH   5   6
HETATM    6  C   UNL     1     -10.586   8.369  66.970  1.00  0.00    -0.316 C  
BRANCH   6   7
HETATM    7  C   UNL     1     -10.352   9.720  67.645  1.00  0.00    -0.281 C  
BRANCH   7   8
HETATM    8  C   UNL     1      -9.099  10.394  67.088  1.00  0.00    -0.152 C  
BRANCH   8   9
HETATM    9  C   UNL     1      -9.419  11.766  66.497  1.00  0.00    -0.225 C  
BRANCH   9  10
HETATM   10  C   UNL     1     -10.927  11.935  66.307  1.00  0.00    -0.345 C  
BRANCH  10  11
HETATM   11  C   UNL     1     -11.317  11.855  64.834  1.00  0.00    -0.337 C  
HETATM   12  C   UNL     1     -12.487  12.759  64.517  1.00  0.00    -0.428 C  
HETATM   13  O   UNL     1     -12.842  12.697  63.211  1.00  0.00    -0.643 OA 
HETATM   14  O   UNL     1     -13.069  13.473  65.316  1.00  0.00    -0.713 OA 
ENDBRANCH  10  11
ENDBRANCH   9  10
ENDBRANCH   8   9
ENDBRANCH   7   8
ENDBRANCH   6   7
ENDBRANCH   5   6
ENDBRANCH   4   5
ENDBRANCH   3   4
ENDBRANCH   2   3
TORSDOF 9
ENDMDL
MODEL      179
REMARK 921   NORMALIZED FREE ENERGY PREDICTED BY IDOCK:   -3.06 KCAL/MOL
REMARK 922        TOTAL FREE ENERGY PREDICTED BY IDOCK:   -5.22 KCAL/MOL
REMARK 923 INTER-LIGAND FREE ENERGY PREDICTED BY IDOCK:   -4.23 KCAL/MOL
REMARK 924 INTRA-LIGAND FREE ENERGY PREDICTED BY IDOCK:   -0.99 KCAL/MOL
REMARK 927      BINDING AFFINITY PREDICTED BY RF-SCORE:    0.00 PKD
ROOT
HETATM    1  C   UNL     1      -8.104   8.799  64.355  1.00  0.00    -0.155 C  
HETATM    2  C   UNL     1      -9.258   9.718  63.990  1.00  0.00    -0.267 C  
ENDROOT
BRANCH   2   3
HETATM    3  C   UNL     1     -10.000  10.196  65.236  1.00  0.00    -0.381 C  
BRANCH   3   4
HETATM    4  C   UNL     1      -9.458   9.527  66.497  1.00  0.00    -0.236 C  
BRANCH   4   5
HETATM    5  C   UNL     1      -8.779  10.547  67.409  1.00  0.00    -0.125 C  
BRANCH   5   6
HETATM    6  C   UNL     1      -8.793  11.940  66.784  1.00  0.00    -0.193 C  
BRANCH   6   7
HETATM    7  C   UNL     1      -9.333  12.980  67.765  1.00  0.00    -0.199 C  
BRANCH   7   8
HETATM    8  C   UNL     1     -10.778  13.345  67.428  1.00  0.00    -0.269 C  
BRANCH   8   9
HETATM    9  C   UNL     1     -11.766  12.406  68.117  1.00  0.00    -0.408 C  
BRANCH   9  10
HETATM   10  C   UNL     1     -11.542  12.398  69.629  1.00  0.00    -0.330 C  
BRANCH  10  11
HETATM   11  C   UNL     1     -11.739  11.003  70.218  1.00  0.00    -0.445 C  
HETATM   12  C   UNL     1     -12.754  11.008  71.338  1.00  0.00    -0.429 C  
HETATM   13  O   UNL     1     -12.937   9.775  71.867  1.00  0.00    -0.385 OA 
HETATM   14  O   UNL     1     -13.357  11.987  71.744  1.00  0.00    -0.406 OA 
ENDBRANCH  10  11
ENDBRANCH   9  10
ENDBRANCH   8   9
ENDBRANCH   7   8
ENDBRANCH   6   7
ENDBRANCH   5   6
ENDBRANCH   4   5
ENDBRANCH   3   4
ENDBRANCH   2   3
TORSDOF 9
ENDMDL
MODEL      180
REMARK 921   NORMALIZED FREE ENERGY PREDICTED BY IDOCK:   -3.05 KCAL/MOL
REMARK 922        TOTAL FREE ENERGY PREDICTED BY IDOCK:   -5.21 KCAL/MOL
REMARK 923 INTER-LIGAND FREE ENERGY PREDICTED BY IDOCK:   -4.25 KCAL/MOL
REMARK 924 INTRA-LIGAND FREE ENERGY PREDICTED BY IDOCK:   -0.96 KCAL/MOL
REMARK 927      BINDING AFFINITY PREDICTED BY RF-SCORE:    0.00 PKD
ROOT
HETATM    1  C   UNL     1     -10.653   7.886  72.954  1.00  0.00    -0.434 C  
HETATM    2  C   UNL     1     -11.978   8.203  72.281  1.00  0.00    -0.434 C  
ENDROOT
BRANCH   2   3
HETATM    3  C   UNL     1     -12.322   7.161  71.218  1.00  0.00    -0.418 C  
BRANCH   3   4
HETATM    4  C   UNL     1     -11.066   6.647  70.518  1.00  0.00    -0.359 C  
BRANCH   4   5
HETATM    5  C   UNL     1     -10.758   7.473  69.270  1.00  0.00    -0.185 C  
BRANCH   5   6
HETATM    6  C   UNL     1      -9.472   8.278  69.447  1.00  0.00    -0.159 C  
BRANCH   6   7
HETATM    7  C   UNL     1      -9.773   9.763  69.643  1.00  0.00    -0.242 C  
BRANCH   7   8
HETATM    8  C   UNL     1     -11.160  10.111  69.103  1.00  0.00    -0.257 C  
BRANCH   8   9
HETATM    9  C   UNL     1     -11.085  10.630  67.668  1.00  0.00    -0.385 C  
BRANCH   9  10
HETATM   10  C   UNL     1     -11.641  12.052  67.577  1.00  0.00    -0.401 C  
BRANCH  10  11
HETATM   11  C   UNL     1     -10.522  13.085  67.471  1.00  0.00    -0.229 C  
HETATM   12  C   UNL     1     -10.776  14.277  68.365  1.00  0.00    -0.251 C  
HETATM   13  O   UNL     1      -9.789  15.200  68.280  1.00  0.00    -0.216 OA 
HETATM   14  O   UNL     1     -11.745  14.425  69.091  1.00  0.00    -0.279 OA 
ENDBRANCH  10  11
ENDBRANCH   9  10
ENDBRANCH   8   9
ENDBRANCH   7   8
ENDBRANCH   6   7
ENDBRANCH   5   6
ENDBRANCH   4   5
ENDBRANCH   3   4
ENDBRANCH   2   3
TORSDOF 9
ENDMDL
MODEL      181
REMARK 921   NORMALIZED FREE ENERGY PREDICTED BY IDOCK:   -3.05 KCAL/MOL
REMARK 922        TOTAL FREE ENERGY PREDICTED BY IDOCK:   -5.20 KCAL/MOL
REMARK 923 INTER-LIGAND FREE ENERGY PREDICTED BY IDOCK:   -4.32 KCAL/MOL
REMARK 924 INTRA-LIGAND FREE ENERGY PREDICTED BY IDOCK:   -0.87 KCAL/MOL
REMARK 927      BINDING AFFINITY PREDICTED BY RF-SCORE:    0.00 PKD
ROOT
HETATM    1  C   UNL     1     -12.596  14.016  65.651  1.00  0.00    -0.542 C  
HETATM    2  C   UNL     1     -11.990  13.870  64.264  1.00  0.00    -0.477 C  
ENDROOT
BRANCH   2   3
HETATM    3  C   UNL     1     -11.872  12.401  63.864  1.00  0.00    -0.551 C  
BRANCH   3   4
HETATM    4  C   UNL     1     -10.440  11.896  64.018  1.00  0.00    -0.417 C  
BRANCH   4   5
HETATM    5  C   UNL     1     -10.369  10.748  65.024  1.00  0.00    -0.357 C  
BRANCH   5   6
HETATM    6  C   UNL     1      -9.817  11.225  66.366  1.00  0.00    -0.243 C  
BRANCH   6   7
HETATM    7  C   UNL     1     -10.946  11.531  67.350  1.00  0.00    -0.317 C  
BRANCH   7   8
HETATM    8  C   UNL     1     -11.378  10.266  68.090  1.00  0.00    -0.233 C  
BRANCH   8   9
HETATM    9  C   UNL     1     -10.174   9.496  68.628  1.00  0.00    -0.215 C  
BRANCH   9  10
HETATM   10  C   UNL     1     -10.373   7.990  68.457  1.00  0.00    -0.229 C  
BRANCH  10  11
HETATM   11  C   UNL     1     -10.045   7.539  67.037  1.00  0.00    -0.332 C  
HETATM   12  C   UNL     1      -9.691   6.070  66.986  1.00  0.00    -0.138 C  
HETATM   13  O   UNL     1      -9.398   5.658  65.730  1.00  0.00    -0.145 OA 
HETATM   14  O   UNL     1      -9.662   5.313  67.942  1.00  0.00    -0.129 OA 
ENDBRANCH  10  11
ENDBRANCH   9  10
ENDBRANCH   8   9
ENDBRANCH   7   8
ENDBRANCH   6   7
ENDBRANCH   5   6
ENDBRANCH   4   5
ENDBRANCH   3   4
ENDBRANCH   2   3
TORSDOF 9
ENDMDL
MODEL      182
REMARK 921   NORMALIZED FREE ENERGY PREDICTED BY IDOCK:   -3.04 KCAL/MOL
REMARK 922        TOTAL FREE ENERGY PREDICTED BY IDOCK:   -5.19 KCAL/MOL
REMARK 923 INTER-LIGAND FREE ENERGY PREDICTED BY IDOCK:   -3.78 KCAL/MOL
REMARK 924 INTRA-LIGAND FREE ENERGY PREDICTED BY IDOCK:   -1.41 KCAL/MOL
REMARK 927      BINDING AFFINITY PREDICTED BY RF-SCORE:    0.00 PKD
ROOT
HETATM    1  C   UNL     1      -7.190   6.770  67.070  1.00  0.00    -0.081 C  
HETATM    2  C   UNL     1      -8.091   7.984  67.235  1.00  0.00    -0.121 C  
ENDROOT
BRANCH   2   3
HETATM    3  C   UNL     1      -9.455   7.752  66.589  1.00  0.00    -0.263 C  
BRANCH   3   4
HETATM    4  C   UNL     1      -9.939   6.320  66.809  1.00  0.00    -0.220 C  
BRANCH   4   5
HETATM    5  C   UNL     1     -11.024   6.269  67.883  1.00  0.00    -0.421 C  
BRANCH   5   6
HETATM    6  C   UNL     1     -10.459   5.772  69.212  1.00  0.00    -0.358 C  
BRANCH   6   7
HETATM    7  C   UNL     1     -10.759   6.757  70.342  1.00  0.00    -0.281 C  
BRANCH   7   8
HETATM    8  C   UNL     1      -9.546   7.644  70.623  1.00  0.00    -0.163 C  
BRANCH   8   9
HETATM    9  C   UNL     1      -9.950   9.109  70.777  1.00  0.00    -0.334 C  
BRANCH   9  10
HETATM   10  C   UNL     1     -10.694   9.599  69.535  1.00  0.00    -0.252 C  
BRANCH  10  11
HETATM   11  C   UNL     1     -10.012  10.816  68.916  1.00  0.00    -0.213 C  
HETATM   12  C   UNL     1     -10.959  11.600  68.037  1.00  0.00    -0.224 C  
HETATM   13  O   UNL     1     -10.364  12.684  67.484  1.00  0.00    -0.215 OA 
HETATM   14  O   UNL     1     -12.127  11.321  67.827  1.00  0.00    -0.631 OA 
ENDBRANCH  10  11
ENDBRANCH   9  10
ENDBRANCH   8   9
ENDBRANCH   7   8
ENDBRANCH   6   7
ENDBRANCH   5   6
ENDBRANCH   4   5
ENDBRANCH   3   4
ENDBRANCH   2   3
TORSDOF 9
ENDMDL
MODEL      183
REMARK 921   NORMALIZED FREE ENERGY PREDICTED BY IDOCK:   -3.04 KCAL/MOL
REMARK 922        TOTAL FREE ENERGY PREDICTED BY IDOCK:   -5.18 KCAL/MOL
REMARK 923 INTER-LIGAND FREE ENERGY PREDICTED BY IDOCK:   -4.57 KCAL/MOL
REMARK 924 INTRA-LIGAND FREE ENERGY PREDICTED BY IDOCK:   -0.61 KCAL/MOL
REMARK 927      BINDING AFFINITY PREDICTED BY RF-SCORE:    0.00 PKD
ROOT
HETATM    1  C   UNL     1     -11.426   6.426  69.907  1.00  0.00    -0.483 C  
HETATM    2  C   UNL     1     -11.369   7.072  71.282  1.00  0.00    -0.309 C  
ENDROOT
BRANCH   2   3
HETATM    3  C   UNL     1     -10.671   8.430  71.225  1.00  0.00    -0.286 C  
BRANCH   3   4
HETATM    4  C   UNL     1     -11.656   9.572  71.466  1.00  0.00    -0.465 C  
BRANCH   4   5
HETATM    5  C   UNL     1     -11.873  10.385  70.191  1.00  0.00    -0.379 C  
BRANCH   5   6
HETATM    6  C   UNL     1     -10.584  10.490  69.379  1.00  0.00    -0.269 C  
BRANCH   6   7
HETATM    7  C   UNL     1     -10.775   9.934  67.968  1.00  0.00    -0.296 C  
BRANCH   7   8
HETATM    8  C   UNL     1     -10.913  11.068  66.953  1.00  0.00    -0.311 C  
BRANCH   8   9
HETATM    9  C   UNL     1      -9.642  11.913  66.884  1.00  0.00    -0.208 C  
BRANCH   9  10
HETATM   10  C   UNL     1      -9.895  13.317  67.436  1.00  0.00    -0.227 C  
BRANCH  10  11
HETATM   11  C   UNL     1      -9.325  14.392  66.515  1.00  0.00    -0.300 C  
HETATM   12  C   UNL     1     -10.421  15.197  65.853  1.00  0.00    -0.336 C  
HETATM   13  O   UNL     1      -9.927  16.155  65.033  1.00  0.00    -0.410 OA 
HETATM   14  O   UNL     1     -11.618  15.031  66.013  1.00  0.00    -0.286 OA 
ENDBRANCH  10  11
ENDBRANCH   9  10
ENDBRANCH   8   9
ENDBRANCH   7   8
ENDBRANCH   6   7
ENDBRANCH   5   6
ENDBRANCH   4   5
ENDBRANCH   3   4
ENDBRANCH   2   3
TORSDOF 9
ENDMDL
MODEL      184
REMARK 921   NORMALIZED FREE ENERGY PREDICTED BY IDOCK:   -3.03 KCAL/MOL
REMARK 922        TOTAL FREE ENERGY PREDICTED BY IDOCK:   -5.17 KCAL/MOL
REMARK 923 INTER-LIGAND FREE ENERGY PREDICTED BY IDOCK:   -3.92 KCAL/MOL
REMARK 924 INTRA-LIGAND FREE ENERGY PREDICTED BY IDOCK:   -1.25 KCAL/MOL
REMARK 927      BINDING AFFINITY PREDICTED BY RF-SCORE:    0.00 PKD
ROOT
HETATM    1  C   UNL     1      -9.017   6.310  66.217  1.00  0.00    -0.164 C  
HETATM    2  C   UNL     1      -8.250   6.957  67.358  1.00  0.00    -0.119 C  
ENDROOT
BRANCH   2   3
HETATM    3  C   UNL     1      -9.188   7.373  68.489  1.00  0.00    -0.142 C  
BRANCH   3   4
HETATM    4  C   UNL     1     -10.580   6.772  68.306  1.00  0.00    -0.276 C  
BRANCH   4   5
HETATM    5  C   UNL     1     -11.065   6.111  69.595  1.00  0.00    -0.489 C  
BRANCH   5   6
HETATM    6  C   UNL     1     -10.129   4.980  70.019  1.00  0.00    -0.342 C  
BRANCH   6   7
HETATM    7  C   UNL     1     -10.279   4.669  71.507  1.00  0.00    -0.224 C  
BRANCH   7   8
HETATM    8  C   UNL     1     -10.889   5.857  72.251  1.00  0.00    -0.292 C  
BRANCH   8   9
HETATM    9  C   UNL     1      -9.858   6.544  73.146  1.00  0.00    -0.184 C  
BRANCH   9  10
HETATM   10  C   UNL     1     -10.107   8.051  73.200  1.00  0.00    -0.302 C  
BRANCH  10  11
HETATM   11  C   UNL     1      -9.763   8.723  71.873  1.00  0.00    -0.386 C  
HETATM   12  C   UNL     1     -10.943   9.485  71.312  1.00  0.00    -0.370 C  
HETATM   13  O   UNL     1     -10.649  10.086  70.135  1.00  0.00    -0.264 OA 
HETATM   14  O   UNL     1     -12.044   9.569  71.829  1.00  0.00    -0.370 OA 
ENDBRANCH  10  11
ENDBRANCH   9  10
ENDBRANCH   8   9
ENDBRANCH   7   8
ENDBRANCH   6   7
ENDBRANCH   5   6
ENDBRANCH   4   5
ENDBRANCH   3   4
ENDBRANCH   2   3
TORSDOF 9
ENDMDL
MODEL      185
REMARK 921   NORMALIZED FREE ENERGY PREDICTED BY IDOCK:   -3.03 KCAL/MOL
REMARK 922        TOTAL FREE ENERGY PREDICTED BY IDOCK:   -5.17 KCAL/MOL
REMARK 923 INTER-LIGAND FREE ENERGY PREDICTED BY IDOCK:   -4.14 KCAL/MOL
REMARK 924 INTRA-LIGAND FREE ENERGY PREDICTED BY IDOCK:   -1.03 KCAL/MOL
REMARK 927      BINDING AFFINITY PREDICTED BY RF-SCORE:    0.00 PKD
ROOT
HETATM    1  C   UNL     1      -7.881  10.402  68.511  1.00  0.00    -0.107 C  
HETATM    2  C   UNL     1      -8.789   9.958  67.376  1.00  0.00    -0.137 C  
ENDROOT
BRANCH   2   3
HETATM    3  C   UNL     1      -8.334  10.546  66.042  1.00  0.00    -0.158 C  
BRANCH   3   4
HETATM    4  C   UNL     1      -9.507  10.716  65.080  1.00  0.00    -0.293 C  
BRANCH   4   5
HETATM    5  C   UNL     1     -10.753  11.205  65.816  1.00  0.00    -0.252 C  
BRANCH   5   6
HETATM    6  C   UNL     1     -10.947  12.708  65.631  1.00  0.00    -0.313 C  
BRANCH   6   7
HETATM    7  C   UNL     1     -11.414  13.368  66.928  1.00  0.00    -0.376 C  
BRANCH   7   8
HETATM    8  C   UNL     1     -12.025  12.335  67.873  1.00  0.00    -0.240 C  
BRANCH   8   9
HETATM    9  C   UNL     1     -11.496  12.498  69.296  1.00  0.00    -0.353 C  
BRANCH   9  10
HETATM   10  C   UNL     1     -12.254  11.588  70.264  1.00  0.00    -0.415 C  
BRANCH  10  11
HETATM   11  C   UNL     1     -11.525  10.264  70.474  1.00  0.00    -0.427 C  
HETATM   12  C   UNL     1     -12.199   9.417  71.530  1.00  0.00    -0.369 C  
HETATM   13  O   UNL     1     -11.561   8.238  71.724  1.00  0.00    -0.267 OA 
HETATM   14  O   UNL     1     -13.200   9.726  72.154  1.00  0.00    -0.433 OA 
ENDBRANCH  10  11
ENDBRANCH   9  10
ENDBRANCH   8   9
ENDBRANCH   7   8
ENDBRANCH   6   7
ENDBRANCH   5   6
ENDBRANCH   4   5
ENDBRANCH   3   4
ENDBRANCH   2   3
TORSDOF 9
ENDMDL
MODEL      186
REMARK 921   NORMALIZED FREE ENERGY PREDICTED BY IDOCK:   -3.02 KCAL/MOL
REMARK 922        TOTAL FREE ENERGY PREDICTED BY IDOCK:   -5.15 KCAL/MOL
REMARK 923 INTER-LIGAND FREE ENERGY PREDICTED BY IDOCK:   -4.30 KCAL/MOL
REMARK 924 INTRA-LIGAND FREE ENERGY PREDICTED BY IDOCK:   -0.85 KCAL/MOL
REMARK 927      BINDING AFFINITY PREDICTED BY RF-SCORE:    0.00 PKD
ROOT
HETATM    1  C   UNL     1     -13.037  15.829  73.001  1.00  0.00    -0.645 C  
HETATM    2  C   UNL     1     -13.663  15.466  71.664  1.00  0.00    -0.606 C  
ENDROOT
BRANCH   2   3
HETATM    3  C   UNL     1     -12.595  15.111  70.632  1.00  0.00    -0.450 C  
BRANCH   3   4
HETATM    4  C   UNL     1     -12.163  13.652  70.757  1.00  0.00    -0.424 C  
BRANCH   4   5
HETATM    5  C   UNL     1     -11.932  13.029  69.381  1.00  0.00    -0.338 C  
BRANCH   5   6
HETATM    6  C   UNL     1     -11.871  14.102  68.296  1.00  0.00    -0.391 C  
BRANCH   6   7
HETATM    7  C   UNL     1     -11.064  13.621  67.090  1.00  0.00    -0.311 C  
BRANCH   7   8
HETATM    8  C   UNL     1      -9.910  14.578  66.794  1.00  0.00    -0.271 C  
BRANCH   8   9
HETATM    9  C   UNL     1      -9.833  15.698  67.830  1.00  0.00    -0.220 C  
BRANCH   9  10
HETATM   10  C   UNL     1      -8.501  15.654  68.578  1.00  0.00    -0.175 C  
BRANCH  10  11
HETATM   11  C   UNL     1      -7.663  14.449  68.160  1.00  0.00    -0.131 C  
HETATM   12  C   UNL     1      -6.556  14.168  69.150  1.00  0.00    -0.115 C  
HETATM   13  O   UNL     1      -5.806  13.099  68.789  1.00  0.00    -0.069 OA 
HETATM   14  O   UNL     1      -6.333  14.807  70.164  1.00  0.00    -0.156 OA 
ENDBRANCH  10  11
ENDBRANCH   9  10
ENDBRANCH   8   9
ENDBRANCH   7   8
ENDBRANCH   6   7
ENDBRANCH   5   6
ENDBRANCH   4   5
ENDBRANCH   3   4
ENDBRANCH   2   3
TORSDOF 9
ENDMDL
MODEL      187
REMARK 921   NORMALIZED FREE ENERGY PREDICTED BY IDOCK:   -3.01 KCAL/MOL
REMARK 922        TOTAL FREE ENERGY PREDICTED BY IDOCK:   -5.15 KCAL/MOL
REMARK 923 INTER-LIGAND FREE ENERGY PREDICTED BY IDOCK:   -4.53 KCAL/MOL
REMARK 924 INTRA-LIGAND FREE ENERGY PREDICTED BY IDOCK:   -0.62 KCAL/MOL
REMARK 927      BINDING AFFINITY PREDICTED BY RF-SCORE:    0.00 PKD
ROOT
HETATM    1  C   UNL     1      -7.467   2.836  71.093  1.00  0.00    -0.033 C  
HETATM    2  C   UNL     1      -8.315   3.935  71.713  1.00  0.00    -0.087 C  
ENDROOT
BRANCH   2   3
HETATM    3  C   UNL     1      -9.752   3.881  71.198  1.00  0.00    -0.248 C  
BRANCH   3   4
HETATM    4  C   UNL     1      -9.932   4.753  69.958  1.00  0.00    -0.314 C  
BRANCH   4   5
HETATM    5  C   UNL     1     -10.105   6.222  70.342  1.00  0.00    -0.226 C  
BRANCH   5   6
HETATM    6  C   UNL     1     -11.583   6.602  70.411  1.00  0.00    -0.457 C  
BRANCH   6   7
HETATM    7  C   UNL     1     -12.060   6.701  71.860  1.00  0.00    -0.385 C  
BRANCH   7   8
HETATM    8  C   UNL     1     -11.665   8.045  72.470  1.00  0.00    -0.446 C  
BRANCH   8   9
HETATM    9  C   UNL     1     -12.275   9.211  71.695  1.00  0.00    -0.433 C  
BRANCH   9  10
HETATM   10  C   UNL     1     -11.195   9.975  70.928  1.00  0.00    -0.415 C  
BRANCH  10  11
HETATM   11  C   UNL     1     -11.802  10.884  69.862  1.00  0.00    -0.427 C  
HETATM   12  C   UNL     1     -11.391  10.462  68.470  1.00  0.00    -0.220 C  
HETATM   13  O   UNL     1     -11.924  11.261  67.515  1.00  0.00    -0.612 OA 
HETATM   14  O   UNL     1     -10.666   9.520  68.200  1.00  0.00    -0.227 OA 
ENDBRANCH  10  11
ENDBRANCH   9  10
ENDBRANCH   8   9
ENDBRANCH   7   8
ENDBRANCH   6   7
ENDBRANCH   5   6
ENDBRANCH   4   5
ENDBRANCH   3   4
ENDBRANCH   2   3
TORSDOF 9
ENDMDL
MODEL      188
REMARK 921   NORMALIZED FREE ENERGY PREDICTED BY IDOCK:   -3.01 KCAL/MOL
REMARK 922        TOTAL FREE ENERGY PREDICTED BY IDOCK:   -5.14 KCAL/MOL
REMARK 923 INTER-LIGAND FREE ENERGY PREDICTED BY IDOCK:   -4.62 KCAL/MOL
REMARK 924 INTRA-LIGAND FREE ENERGY PREDICTED BY IDOCK:   -0.52 KCAL/MOL
REMARK 927      BINDING AFFINITY PREDICTED BY RF-SCORE:    0.00 PKD
ROOT
HETATM    1  C   UNL     1      -9.844  10.683  63.697  1.00  0.00    -0.392 C  
HETATM    2  C   UNL     1     -10.637  11.928  63.332  1.00  0.00    -0.485 C  
ENDROOT
BRANCH   2   3
HETATM    3  C   UNL     1     -12.105  11.783  63.727  1.00  0.00    -0.463 C  
BRANCH   3   4
HETATM    4  C   UNL     1     -12.565  12.952  64.596  1.00  0.00    -0.459 C  
BRANCH   4   5
HETATM    5  C   UNL     1     -11.944  14.265  64.120  1.00  0.00    -0.401 C  
BRANCH   5   6
HETATM    6  C   UNL     1     -11.299  15.020  65.280  1.00  0.00    -0.349 C  
BRANCH   6   7
HETATM    7  C   UNL     1     -10.038  14.308  65.769  1.00  0.00    -0.356 C  
BRANCH   7   8
HETATM    8  C   UNL     1      -8.984  15.319  66.218  1.00  0.00    -0.314 C  
BRANCH   8   9
HETATM    9  C   UNL     1      -9.622  16.645  66.628  1.00  0.00    -0.280 C  
BRANCH   9  10
HETATM   10  C   UNL     1      -9.757  16.734  68.149  1.00  0.00    -0.247 C  
BRANCH  10  11
HETATM   11  C   UNL     1      -8.994  15.610  68.845  1.00  0.00    -0.221 C  
HETATM   12  C   UNL     1      -7.611  16.051  69.266  1.00  0.00    -0.230 C  
HETATM   13  O   UNL     1      -6.925  15.062  69.886  1.00  0.00    -0.183 OA 
HETATM   14  O   UNL     1      -7.134  17.159  69.085  1.00  0.00    -0.241 OA 
ENDBRANCH  10  11
ENDBRANCH   9  10
ENDBRANCH   8   9
ENDBRANCH   7   8
ENDBRANCH   6   7
ENDBRANCH   5   6
ENDBRANCH   4   5
ENDBRANCH   3   4
ENDBRANCH   2   3
TORSDOF 9
ENDMDL
MODEL      189
REMARK 921   NORMALIZED FREE ENERGY PREDICTED BY IDOCK:   -2.99 KCAL/MOL
REMARK 922        TOTAL FREE ENERGY PREDICTED BY IDOCK:   -5.11 KCAL/MOL
REMARK 923 INTER-LIGAND FREE ENERGY PREDICTED BY IDOCK:   -4.68 KCAL/MOL
REMARK 924 INTRA-LIGAND FREE ENERGY PREDICTED BY IDOCK:   -0.43 KCAL/MOL
REMARK 927      BINDING AFFINITY PREDICTED BY RF-SCORE:    0.00 PKD
ROOT
HETATM    1  C   UNL     1      -8.618   7.933  73.905  1.00  0.00    -0.332 C  
HETATM    2  C   UNL     1      -9.570   7.042  73.124  1.00  0.00    -0.196 C  
ENDROOT
BRANCH   2   3
HETATM    3  C   UNL     1     -10.992   7.599  73.145  1.00  0.00    -0.411 C  
BRANCH   3   4
HETATM    4  C   UNL     1     -11.788   7.138  71.927  1.00  0.00    -0.336 C  
BRANCH   4   5
HETATM    5  C   UNL     1     -12.780   8.212  71.483  1.00  0.00    -0.327 C  
BRANCH   5   6
HETATM    6  C   UNL     1     -12.334   9.597  71.944  1.00  0.00    -0.437 C  
BRANCH   6   7
HETATM    7  C   UNL     1     -12.967  10.694  71.090  1.00  0.00    -0.483 C  
BRANCH   7   8
HETATM    8  C   UNL     1     -12.225  10.844  69.762  1.00  0.00    -0.381 C  
BRANCH   8   9
HETATM    9  C   UNL     1     -12.002  12.314  69.411  1.00  0.00    -0.318 C  
BRANCH   9  10
HETATM   10  C   UNL     1     -10.752  12.480  68.546  1.00  0.00    -0.263 C  
BRANCH  10  11
HETATM   11  C   UNL     1     -11.111  12.690  67.077  1.00  0.00    -0.322 C  
HETATM   12  C   UNL     1      -9.997  13.382  66.324  1.00  0.00    -0.296 C  
HETATM   13  O   UNL     1     -10.304  13.573  65.019  1.00  0.00    -0.343 OA 
HETATM   14  O   UNL     1      -8.933  13.739  66.802  1.00  0.00    -0.238 OA 
ENDBRANCH  10  11
ENDBRANCH   9  10
ENDBRANCH   8   9
ENDBRANCH   7   8
ENDBRANCH   6   7
ENDBRANCH   5   6
ENDBRANCH   4   5
ENDBRANCH   3   4
ENDBRANCH   2   3
TORSDOF 9
ENDMDL
MODEL      190
REMARK 921   NORMALIZED FREE ENERGY PREDICTED BY IDOCK:   -2.98 KCAL/MOL
REMARK 922        TOTAL FREE ENERGY PREDICTED BY IDOCK:   -5.10 KCAL/MOL
REMARK 923 INTER-LIGAND FREE ENERGY PREDICTED BY IDOCK:   -4.63 KCAL/MOL
REMARK 924 INTRA-LIGAND FREE ENERGY PREDICTED BY IDOCK:   -0.47 KCAL/MOL
REMARK 927      BINDING AFFINITY PREDICTED BY RF-SCORE:    0.00 PKD
ROOT
HETATM    1  C   UNL     1     -10.990  11.149  67.393  1.00  0.00    -0.347 C  
HETATM    2  C   UNL     1     -11.704  12.483  67.540  1.00  0.00    -0.439 C  
ENDROOT
BRANCH   2   3
HETATM    3  C   UNL     1     -11.469  13.086  68.923  1.00  0.00    -0.345 C  
BRANCH   3   4
HETATM    4  C   UNL     1     -11.791  14.579  68.940  1.00  0.00    -0.359 C  
BRANCH   4   5
HETATM    5  C   UNL     1     -10.910  15.317  69.947  1.00  0.00    -0.295 C  
BRANCH   5   6
HETATM    6  C   UNL     1     -10.437  16.657  69.387  1.00  0.00    -0.320 C  
BRANCH   6   7
HETATM    7  C   UNL     1     -10.721  16.759  67.889  1.00  0.00    -0.347 C  
BRANCH   7   8
HETATM    8  C   UNL     1     -10.695  18.217  67.430  1.00  0.00    -0.355 C  
BRANCH   8   9
HETATM    9  C   UNL     1      -9.978  19.108  68.443  1.00  0.00    -0.493 C  
BRANCH   9  10
HETATM   10  C   UNL     1      -8.515  19.310  68.046  1.00  0.00    -0.352 C  
BRANCH  10  11
HETATM   11  C   UNL     1      -7.575  18.522  68.954  1.00  0.00    -0.261 C  
HETATM   12  C   UNL     1      -6.238  19.212  69.105  1.00  0.00    -0.270 C  
HETATM   13  O   UNL     1      -5.395  18.523  69.910  1.00  0.00    -0.194 OA 
HETATM   14  O   UNL     1      -5.920  20.266  68.579  1.00  0.00    -0.252 OA 
ENDBRANCH  10  11
ENDBRANCH   9  10
ENDBRANCH   8   9
ENDBRANCH   7   8
ENDBRANCH   6   7
ENDBRANCH   5   6
ENDBRANCH   4   5
ENDBRANCH   3   4
ENDBRANCH   2   3
TORSDOF 9
ENDMDL
MODEL      191
REMARK 921   NORMALIZED FREE ENERGY PREDICTED BY IDOCK:   -2.98 KCAL/MOL
REMARK 922        TOTAL FREE ENERGY PREDICTED BY IDOCK:   -5.10 KCAL/MOL
REMARK 923 INTER-LIGAND FREE ENERGY PREDICTED BY IDOCK:   -4.02 KCAL/MOL
REMARK 924 INTRA-LIGAND FREE ENERGY PREDICTED BY IDOCK:   -1.08 KCAL/MOL
REMARK 927      BINDING AFFINITY PREDICTED BY RF-SCORE:    0.00 PKD
ROOT
HETATM    1  C   UNL     1     -11.699  15.623  69.909  1.00  0.00    -0.372 C  
HETATM    2  C   UNL     1     -10.848  14.674  69.081  1.00  0.00    -0.269 C  
ENDROOT
BRANCH   2   3
HETATM    3  C   UNL     1     -11.708  13.612  68.398  1.00  0.00    -0.393 C  
BRANCH   3   4
HETATM    4  C   UNL     1     -12.156  14.067  67.011  1.00  0.00    -0.455 C  
BRANCH   4   5
HETATM    5  C   UNL     1     -11.161  15.061  66.413  1.00  0.00    -0.329 C  
BRANCH   5   6
HETATM    6  C   UNL     1     -10.752  14.648  65.001  1.00  0.00    -0.448 C  
BRANCH   6   7
HETATM    7  C   UNL     1     -11.287  13.259  64.656  1.00  0.00    -0.372 C  
BRANCH   7   8
HETATM    8  C   UNL     1     -10.148  12.244  64.573  1.00  0.00    -0.280 C  
BRANCH   8   9
HETATM    9  C   UNL     1     -10.020  11.441  65.866  1.00  0.00    -0.274 C  
BRANCH   9  10
HETATM   10  C   UNL     1      -8.613  11.575  66.450  1.00  0.00    -0.159 C  
BRANCH  10  11
HETATM   11  C   UNL     1      -8.462  12.860  67.258  1.00  0.00    -0.197 C  
HETATM   12  C   UNL     1      -7.010  13.247  67.425  1.00  0.00    -0.092 C  
HETATM   13  O   UNL     1      -6.863  14.388  68.140  1.00  0.00    -0.097 OA 
HETATM   14  O   UNL     1      -6.056  12.629  66.982  1.00  0.00    -0.281 OA 
ENDBRANCH  10  11
ENDBRANCH   9  10
ENDBRANCH   8   9
ENDBRANCH   7   8
ENDBRANCH   6   7
ENDBRANCH   5   6
ENDBRANCH   4   5
ENDBRANCH   3   4
ENDBRANCH   2   3
TORSDOF 9
ENDMDL
MODEL      192
REMARK 921   NORMALIZED FREE ENERGY PREDICTED BY IDOCK:   -2.97 KCAL/MOL
REMARK 922        TOTAL FREE ENERGY PREDICTED BY IDOCK:   -5.08 KCAL/MOL
REMARK 923 INTER-LIGAND FREE ENERGY PREDICTED BY IDOCK:   -4.19 KCAL/MOL
REMARK 924 INTRA-LIGAND FREE ENERGY PREDICTED BY IDOCK:   -0.88 KCAL/MOL
REMARK 927      BINDING AFFINITY PREDICTED BY RF-SCORE:    0.00 PKD
ROOT
HETATM    1  C   UNL     1      -8.240  11.926  68.166  1.00  0.00    -0.158 C  
HETATM    2  C   UNL     1      -7.755  10.838  69.111  1.00  0.00    -0.138 C  
ENDROOT
BRANCH   2   3
HETATM    3  C   UNL     1      -8.748   9.680  69.176  1.00  0.00    -0.151 C  
BRANCH   3   4
HETATM    4  C   UNL     1      -9.003   9.247  70.619  1.00  0.00    -0.296 C  
BRANCH   4   5
HETATM    5  C   UNL     1     -10.481   9.388  70.979  1.00  0.00    -0.392 C  
BRANCH   5   6
HETATM    6  C   UNL     1     -11.266  10.031  69.838  1.00  0.00    -0.327 C  
BRANCH   6   7
HETATM    7  C   UNL     1     -12.140  11.177  70.347  1.00  0.00    -0.475 C  
BRANCH   7   8
HETATM    8  C   UNL     1     -11.744  12.496  69.685  1.00  0.00    -0.372 C  
BRANCH   8   9
HETATM    9  C   UNL     1     -12.228  13.696  70.497  1.00  0.00    -0.438 C  
BRANCH   9  10
HETATM   10  C   UNL     1     -11.968  15.000  69.743  1.00  0.00    -0.366 C  
BRANCH  10  11
HETATM   11  C   UNL     1     -10.813  14.857  68.757  1.00  0.00    -0.254 C  
HETATM   12  C   UNL     1     -10.469  16.176  68.104  1.00  0.00    -0.279 C  
HETATM   13  O   UNL     1      -9.443  16.061  67.227  1.00  0.00    -0.213 OA 
HETATM   14  O   UNL     1     -11.027  17.240  68.317  1.00  0.00    -0.336 OA 
ENDBRANCH  10  11
ENDBRANCH   9  10
ENDBRANCH   8   9
ENDBRANCH   7   8
ENDBRANCH   6   7
ENDBRANCH   5   6
ENDBRANCH   4   5
ENDBRANCH   3   4
ENDBRANCH   2   3
TORSDOF 9
ENDMDL
MODEL      193
REMARK 921   NORMALIZED FREE ENERGY PREDICTED BY IDOCK:   -2.96 KCAL/MOL
REMARK 922        TOTAL FREE ENERGY PREDICTED BY IDOCK:   -5.07 KCAL/MOL
REMARK 923 INTER-LIGAND FREE ENERGY PREDICTED BY IDOCK:   -4.59 KCAL/MOL
REMARK 924 INTRA-LIGAND FREE ENERGY PREDICTED BY IDOCK:   -0.47 KCAL/MOL
REMARK 927      BINDING AFFINITY PREDICTED BY RF-SCORE:    0.00 PKD
ROOT
HETATM    1  C   UNL     1     -11.067  14.896  65.311  1.00  0.00    -0.382 C  
HETATM    2  C   UNL     1     -10.549  14.072  66.479  1.00  0.00    -0.279 C  
ENDROOT
BRANCH   2   3
HETATM    3  C   UNL     1     -11.672  13.268  67.130  1.00  0.00    -0.425 C  
BRANCH   3   4
HETATM    4  C   UNL     1     -11.251  11.820  67.374  1.00  0.00    -0.357 C  
BRANCH   4   5
HETATM    5  C   UNL     1     -10.998  11.567  68.859  1.00  0.00    -0.279 C  
BRANCH   5   6
HETATM    6  C   UNL     1     -12.277  11.130  69.569  1.00  0.00    -0.347 C  
BRANCH   6   7
HETATM    7  C   UNL     1     -11.968  10.502  70.927  1.00  0.00    -0.481 C  
BRANCH   7   8
HETATM    8  C   UNL     1     -10.764   9.566  70.830  1.00  0.00    -0.403 C  
BRANCH   8   9
HETATM    9  C   UNL     1     -11.178   8.106  71.003  1.00  0.00    -0.284 C  
BRANCH   9  10
HETATM   10  C   UNL     1     -10.009   7.270  71.526  1.00  0.00    -0.191 C  
BRANCH  10  11
HETATM   11  C   UNL     1      -8.924   8.149  72.143  1.00  0.00    -0.246 C  
HETATM   12  C   UNL     1      -8.816   7.936  73.636  1.00  0.00    -0.274 C  
HETATM   13  O   UNL     1      -7.855   8.710  74.194  1.00  0.00    -0.398 OA 
HETATM   14  O   UNL     1      -9.496   7.167  74.294  1.00  0.00    -0.247 OA 
ENDBRANCH  10  11
ENDBRANCH   9  10
ENDBRANCH   8   9
ENDBRANCH   7   8
ENDBRANCH   6   7
ENDBRANCH   5   6
ENDBRANCH   4   5
ENDBRANCH   3   4
ENDBRANCH   2   3
TORSDOF 9
ENDMDL
MODEL      194
REMARK 921   NORMALIZED FREE ENERGY PREDICTED BY IDOCK:   -2.96 KCAL/MOL
REMARK 922        TOTAL FREE ENERGY PREDICTED BY IDOCK:   -5.06 KCAL/MOL
REMARK 923 INTER-LIGAND FREE ENERGY PREDICTED BY IDOCK:   -4.04 KCAL/MOL
REMARK 924 INTRA-LIGAND FREE ENERGY PREDICTED BY IDOCK:   -1.02 KCAL/MOL
REMARK 927      BINDING AFFINITY PREDICTED BY RF-SCORE:    0.00 PKD
ROOT
HETATM    1  C   UNL     1     -11.020   6.789  72.991  1.00  0.00    -0.293 C  
HETATM    2  C   UNL     1     -10.635   5.421  73.530  1.00  0.00    -0.310 C  
ENDROOT
BRANCH   2   3
HETATM    3  C   UNL     1     -10.165   4.497  72.408  1.00  0.00    -0.253 C  
BRANCH   3   4
HETATM    4  C   UNL     1      -8.799   4.921  71.874  1.00  0.00    -0.140 C  
BRANCH   4   5
HETATM    5  C   UNL     1      -8.887   5.316  70.400  1.00  0.00    -0.146 C  
BRANCH   5   6
HETATM    6  C   UNL     1     -10.228   4.903  69.799  1.00  0.00    -0.284 C  
BRANCH   6   7
HETATM    7  C   UNL     1     -10.786   5.999  68.891  1.00  0.00    -0.400 C  
BRANCH   7   8
HETATM    8  C   UNL     1     -10.459   7.384  69.449  1.00  0.00    -0.220 C  
BRANCH   8   9
HETATM    9  C   UNL     1     -10.092   8.362  68.334  1.00  0.00    -0.224 C  
BRANCH   9  10
HETATM   10  C   UNL     1      -9.944   9.780  68.885  1.00  0.00    -0.183 C  
BRANCH  10  11
HETATM   11  C   UNL     1     -10.720   9.959  70.187  1.00  0.00    -0.361 C  
HETATM   12  C   UNL     1     -11.991  10.750  69.975  1.00  0.00    -0.347 C  
HETATM   13  O   UNL     1     -12.689  10.914  71.124  1.00  0.00    -0.370 OA 
HETATM   14  O   UNL     1     -12.375  11.203  68.910  1.00  0.00    -0.512 OA 
ENDBRANCH  10  11
ENDBRANCH   9  10
ENDBRANCH   8   9
ENDBRANCH   7   8
ENDBRANCH   6   7
ENDBRANCH   5   6
ENDBRANCH   4   5
ENDBRANCH   3   4
ENDBRANCH   2   3
TORSDOF 9
ENDMDL
MODEL      195
REMARK 921   NORMALIZED FREE ENERGY PREDICTED BY IDOCK:   -2.96 KCAL/MOL
REMARK 922        TOTAL FREE ENERGY PREDICTED BY IDOCK:   -5.06 KCAL/MOL
REMARK 923 INTER-LIGAND FREE ENERGY PREDICTED BY IDOCK:   -4.41 KCAL/MOL
REMARK 924 INTRA-LIGAND FREE ENERGY PREDICTED BY IDOCK:   -0.64 KCAL/MOL
REMARK 927      BINDING AFFINITY PREDICTED BY RF-SCORE:    0.00 PKD
ROOT
HETATM    1  C   UNL     1      -7.204  20.180  67.174  1.00  0.00    -0.296 C  
HETATM    2  C   UNL     1      -8.313  19.769  66.219  1.00  0.00    -0.383 C  
ENDROOT
BRANCH   2   3
HETATM    3  C   UNL     1      -9.647  20.395  66.620  1.00  0.00    -0.480 C  
BRANCH   3   4
HETATM    4  C   UNL     1     -10.616  19.343  67.155  1.00  0.00    -0.596 C  
BRANCH   4   5
HETATM    5  C   UNL     1     -10.269  18.961  68.593  1.00  0.00    -0.371 C  
BRANCH   5   6
HETATM    6  C   UNL     1      -9.950  17.472  68.706  1.00  0.00    -0.342 C  
BRANCH   6   7
HETATM    7  C   UNL     1     -11.133  16.618  68.251  1.00  0.00    -0.295 C  
BRANCH   7   8
HETATM    8  C   UNL     1     -11.325  15.420  69.180  1.00  0.00    -0.323 C  
BRANCH   8   9
HETATM    9  C   UNL     1     -11.557  14.133  68.390  1.00  0.00    -0.353 C  
BRANCH   9  10
HETATM   10  C   UNL     1     -10.582  14.035  67.216  1.00  0.00    -0.273 C  
BRANCH  10  11
HETATM   11  C   UNL     1      -9.229  13.484  67.657  1.00  0.00    -0.214 C  
HETATM   12  C   UNL     1      -9.047  12.045  67.231  1.00  0.00    -0.178 C  
HETATM   13  O   UNL     1      -7.849  11.545  67.616  1.00  0.00    -0.114 OA 
HETATM   14  O   UNL     1      -9.862  11.380  66.613  1.00  0.00    -0.198 OA 
ENDBRANCH  10  11
ENDBRANCH   9  10
ENDBRANCH   8   9
ENDBRANCH   7   8
ENDBRANCH   6   7
ENDBRANCH   5   6
ENDBRANCH   4   5
ENDBRANCH   3   4
ENDBRANCH   2   3
TORSDOF 9
ENDMDL
MODEL      196
REMARK 921   NORMALIZED FREE ENERGY PREDICTED BY IDOCK:   -2.96 KCAL/MOL
REMARK 922        TOTAL FREE ENERGY PREDICTED BY IDOCK:   -5.06 KCAL/MOL
REMARK 923 INTER-LIGAND FREE ENERGY PREDICTED BY IDOCK:   -3.91 KCAL/MOL
REMARK 924 INTRA-LIGAND FREE ENERGY PREDICTED BY IDOCK:   -1.14 KCAL/MOL
REMARK 927      BINDING AFFINITY PREDICTED BY RF-SCORE:    0.00 PKD
ROOT
HETATM    1  C   UNL     1      -8.171  12.552  67.739  1.00  0.00    -0.166 C  
HETATM    2  C   UNL     1      -7.282  13.756  67.476  1.00  0.00    -0.173 C  
ENDROOT
BRANCH   2   3
HETATM    3  C   UNL     1      -7.485  14.835  68.538  1.00  0.00    -0.117 C  
BRANCH   3   4
HETATM    4  C   UNL     1      -8.948  15.266  68.620  1.00  0.00    -0.193 C  
BRANCH   4   5
HETATM    5  C   UNL     1      -9.319  16.171  67.446  1.00  0.00    -0.220 C  
BRANCH   5   6
HETATM    6  C   UNL     1     -10.737  15.883  66.957  1.00  0.00    -0.292 C  
BRANCH   6   7
HETATM    7  C   UNL     1     -10.777  15.738  65.436  1.00  0.00    -0.420 C  
BRANCH   7   8
HETATM    8  C   UNL     1     -10.594  14.277  65.027  1.00  0.00    -0.444 C  
BRANCH   8   9
HETATM    9  C   UNL     1     -11.819  13.438  65.387  1.00  0.00    -0.381 C  
BRANCH   9  10
HETATM   10  C   UNL     1     -11.399  12.081  65.953  1.00  0.00    -0.391 C  
BRANCH  10  11
HETATM   11  C   UNL     1     -10.460  11.344  65.002  1.00  0.00    -0.361 C  
HETATM   12  C   UNL     1      -9.998  10.028  65.583  1.00  0.00    -0.285 C  
HETATM   13  O   UNL     1      -9.164   9.364  64.747  1.00  0.00    -0.228 OA 
HETATM   14  O   UNL     1     -10.316   9.583  66.673  1.00  0.00    -0.243 OA 
ENDBRANCH  10  11
ENDBRANCH   9  10
ENDBRANCH   8   9
ENDBRANCH   7   8
ENDBRANCH   6   7
ENDBRANCH   5   6
ENDBRANCH   4   5
ENDBRANCH   3   4
ENDBRANCH   2   3
TORSDOF 9
ENDMDL
MODEL      197
REMARK 921   NORMALIZED FREE ENERGY PREDICTED BY IDOCK:   -2.95 KCAL/MOL
REMARK 922        TOTAL FREE ENERGY PREDICTED BY IDOCK:   -5.05 KCAL/MOL
REMARK 923 INTER-LIGAND FREE ENERGY PREDICTED BY IDOCK:   -3.73 KCAL/MOL
REMARK 924 INTRA-LIGAND FREE ENERGY PREDICTED BY IDOCK:   -1.32 KCAL/MOL
REMARK 927      BINDING AFFINITY PREDICTED BY RF-SCORE:    0.00 PKD
ROOT
HETATM    1  C   UNL     1      -7.360  12.756  67.842  1.00  0.00    -0.120 C  
HETATM    2  C   UNL     1      -7.242  11.272  67.531  1.00  0.00    -0.100 C  
ENDROOT
BRANCH   2   3
HETATM    3  C   UNL     1      -8.221  10.858  66.434  1.00  0.00    -0.163 C  
BRANCH   3   4
HETATM    4  C   UNL     1      -8.476   9.352  66.456  1.00  0.00    -0.137 C  
BRANCH   4   5
HETATM    5  C   UNL     1      -9.941   9.041  66.155  1.00  0.00    -0.311 C  
BRANCH   5   6
HETATM    6  C   UNL     1     -10.475   7.953  67.085  1.00  0.00    -0.414 C  
BRANCH   6   7
HETATM    7  C   UNL     1      -9.667   7.891  68.381  1.00  0.00    -0.170 C  
BRANCH   7   8
HETATM    8  C   UNL     1     -10.480   8.441  69.553  1.00  0.00    -0.225 C  
BRANCH   8   9
HETATM    9  C   UNL     1      -9.956   9.803  70.005  1.00  0.00    -0.299 C  
BRANCH   9  10
HETATM   10  C   UNL     1     -11.069  10.851  69.966  1.00  0.00    -0.285 C  
BRANCH  10  11
HETATM   11  C   UNL     1     -11.721  10.926  68.588  1.00  0.00    -0.334 C  
HETATM   12  C   UNL     1     -11.568  12.297  67.971  1.00  0.00    -0.349 C  
HETATM   13  O   UNL     1     -12.142  12.375  66.747  1.00  0.00    -0.578 OA 
HETATM   14  O   UNL     1     -11.000  13.247  68.485  1.00  0.00    -0.246 OA 
ENDBRANCH  10  11
ENDBRANCH   9  10
ENDBRANCH   8   9
ENDBRANCH   7   8
ENDBRANCH   6   7
ENDBRANCH   5   6
ENDBRANCH   4   5
ENDBRANCH   3   4
ENDBRANCH   2   3
TORSDOF 9
ENDMDL
MODEL      198
REMARK 921   NORMALIZED FREE ENERGY PREDICTED BY IDOCK:   -2.95 KCAL/MOL
REMARK 922        TOTAL FREE ENERGY PREDICTED BY IDOCK:   -5.05 KCAL/MOL
REMARK 923 INTER-LIGAND FREE ENERGY PREDICTED BY IDOCK:   -4.50 KCAL/MOL
REMARK 924 INTRA-LIGAND FREE ENERGY PREDICTED BY IDOCK:   -0.55 KCAL/MOL
REMARK 927      BINDING AFFINITY PREDICTED BY RF-SCORE:    0.00 PKD
ROOT
HETATM    1  C   UNL     1     -10.632  14.401  65.417  1.00  0.00    -0.380 C  
HETATM    2  C   UNL     1     -10.396  13.874  66.823  1.00  0.00    -0.272 C  
ENDROOT
BRANCH   2   3
HETATM    3  C   UNL     1     -11.478  12.874  67.227  1.00  0.00    -0.388 C  
BRANCH   3   4
HETATM    4  C   UNL     1     -10.923  11.801  68.162  1.00  0.00    -0.275 C  
BRANCH   4   5
HETATM    5  C   UNL     1     -11.263  10.402  67.651  1.00  0.00    -0.287 C  
BRANCH   5   6
HETATM    6  C   UNL     1     -10.091   9.799  66.878  1.00  0.00    -0.287 C  
BRANCH   6   7
HETATM    7  C   UNL     1     -10.125   8.272  66.927  1.00  0.00    -0.366 C  
BRANCH   7   8
HETATM    8  C   UNL     1     -10.201   7.778  68.371  1.00  0.00    -0.230 C  
BRANCH   8   9
HETATM    9  C   UNL     1     -10.994   6.476  68.474  1.00  0.00    -0.360 C  
BRANCH   9  10
HETATM   10  C   UNL     1     -10.803   5.833  69.848  1.00  0.00    -0.417 C  
BRANCH  10  11
HETATM   11  C   UNL     1     -10.477   6.876  70.914  1.00  0.00    -0.233 C  
HETATM   12  C   UNL     1     -11.600   7.019  71.916  1.00  0.00    -0.284 C  
HETATM   13  O   UNL     1     -11.321   7.942  72.867  1.00  0.00    -0.406 OA 
HETATM   14  O   UNL     1     -12.648   6.395  71.902  1.00  0.00    -0.314 OA 
ENDBRANCH  10  11
ENDBRANCH   9  10
ENDBRANCH   8   9
ENDBRANCH   7   8
ENDBRANCH   6   7
ENDBRANCH   5   6
ENDBRANCH   4   5
ENDBRANCH   3   4
ENDBRANCH   2   3
TORSDOF 9
ENDMDL
MODEL      199
REMARK 921   NORMALIZED FREE ENERGY PREDICTED BY IDOCK:   -2.94 KCAL/MOL
REMARK 922        TOTAL FREE ENERGY PREDICTED BY IDOCK:   -5.04 KCAL/MOL
REMARK 923 INTER-LIGAND FREE ENERGY PREDICTED BY IDOCK:   -3.79 KCAL/MOL
REMARK 924 INTRA-LIGAND FREE ENERGY PREDICTED BY IDOCK:   -1.24 KCAL/MOL
REMARK 927      BINDING AFFINITY PREDICTED BY RF-SCORE:    0.00 PKD
ROOT
HETATM    1  C   UNL     1     -10.142   9.707  66.066  1.00  0.00    -0.318 C  
HETATM    2  C   UNL     1     -10.452   8.973  67.360  1.00  0.00    -0.338 C  
ENDROOT
BRANCH   2   3
HETATM    3  C   UNL     1     -10.509   7.463  67.139  1.00  0.00    -0.403 C  
BRANCH   3   4
HETATM    4  C   UNL     1      -9.740   6.713  68.225  1.00  0.00    -0.132 C  
BRANCH   4   5
HETATM    5  C   UNL     1      -8.320   7.261  68.367  1.00  0.00    -0.125 C  
BRANCH   5   6
HETATM    6  C   UNL     1      -7.810   7.101  69.798  1.00  0.00    -0.118 C  
BRANCH   6   7
HETATM    7  C   UNL     1      -7.555   8.461  70.447  1.00  0.00    -0.072 C  
BRANCH   7   8
HETATM    8  C   UNL     1      -8.668   8.806  71.436  1.00  0.00    -0.278 C  
BRANCH   8   9
HETATM    9  C   UNL     1      -9.798   9.578  70.758  1.00  0.00    -0.309 C  
BRANCH   9  10
HETATM   10  C   UNL     1     -11.159   9.112  71.276  1.00  0.00    -0.405 C  
BRANCH  10  11
HETATM   11  C   UNL     1     -11.023   7.908  72.203  1.00  0.00    -0.339 C  
HETATM   12  C   UNL     1     -11.764   6.704  71.666  1.00  0.00    -0.316 C  
HETATM   13  O   UNL     1     -11.650   5.628  72.480  1.00  0.00    -0.300 OA 
HETATM   14  O   UNL     1     -12.401   6.669  70.626  1.00  0.00    -0.340 OA 
ENDBRANCH  10  11
ENDBRANCH   9  10
ENDBRANCH   8   9
ENDBRANCH   7   8
ENDBRANCH   6   7
ENDBRANCH   5   6
ENDBRANCH   4   5
ENDBRANCH   3   4
ENDBRANCH   2   3
TORSDOF 9
ENDMDL
MODEL      200
REMARK 921   NORMALIZED FREE ENERGY PREDICTED BY IDOCK:   -2.94 KCAL/MOL
REMARK 922        TOTAL FREE ENERGY PREDICTED BY IDOCK:   -5.03 KCAL/MOL
REMARK 923 INTER-LIGAND FREE ENERGY PREDICTED BY IDOCK:   -4.08 KCAL/MOL
REMARK 924 INTRA-LIGAND FREE ENERGY PREDICTED BY IDOCK:   -0.95 KCAL/MOL
REMARK 927      BINDING AFFINITY PREDICTED BY RF-SCORE:    0.00 PKD
ROOT
HETATM    1  C   UNL     1     -12.139  11.344  69.453  1.00  0.00    -0.358 C  
HETATM    2  C   UNL     1     -12.685  11.503  70.863  1.00  0.00    -0.372 C  
ENDROOT
BRANCH   2   3
HETATM    3  C   UNL     1     -12.673  12.967  71.297  1.00  0.00    -0.385 C  
BRANCH   3   4
HETATM    4  C   UNL     1     -12.383  13.895  70.119  1.00  0.00    -0.400 C  
BRANCH   4   5
HETATM    5  C   UNL     1     -11.300  14.911  70.477  1.00  0.00    -0.280 C  
BRANCH   5   6
HETATM    6  C   UNL     1     -10.533  15.358  69.235  1.00  0.00    -0.251 C  
BRANCH   6   7
HETATM    7  C   UNL     1     -11.142  14.762  67.966  1.00  0.00    -0.294 C  
BRANCH   7   8
HETATM    8  C   UNL     1     -10.136  14.790  66.816  1.00  0.00    -0.258 C  
BRANCH   8   9
HETATM    9  C   UNL     1      -8.825  14.107  67.204  1.00  0.00    -0.241 C  
BRANCH   9  10
HETATM   10  C   UNL     1      -9.078  12.668  67.656  1.00  0.00    -0.192 C  
BRANCH  10  11
HETATM   11  C   UNL     1      -8.834  11.675  66.524  1.00  0.00    -0.188 C  
HETATM   12  C   UNL     1     -10.132  11.154  65.949  1.00  0.00    -0.247 C  
HETATM   13  O   UNL     1      -9.927  10.272  64.942  1.00  0.00    -0.317 OA 
HETATM   14  O   UNL     1     -11.249  11.469  66.322  1.00  0.00    -0.297 OA 
ENDBRANCH  10  11
ENDBRANCH   9  10
ENDBRANCH   8   9
ENDBRANCH   7   8
ENDBRANCH   6   7
ENDBRANCH   5   6
ENDBRANCH   4   5
ENDBRANCH   3   4
ENDBRANCH   2   3
TORSDOF 9
ENDMDL
MODEL      201
REMARK 921   NORMALIZED FREE ENERGY PREDICTED BY IDOCK:   -2.93 KCAL/MOL
REMARK 922        TOTAL FREE ENERGY PREDICTED BY IDOCK:   -5.02 KCAL/MOL
REMARK 923 INTER-LIGAND FREE ENERGY PREDICTED BY IDOCK:   -4.35 KCAL/MOL
REMARK 924 INTRA-LIGAND FREE ENERGY PREDICTED BY IDOCK:   -0.67 KCAL/MOL
REMARK 927      BINDING AFFINITY PREDICTED BY RF-SCORE:    0.00 PKD
ROOT
HETATM    1  C   UNL     1     -11.888  12.946  69.825  1.00  0.00    -0.380 C  
HETATM    2  C   UNL     1     -12.481  12.076  70.922  1.00  0.00    -0.384 C  
ENDROOT
BRANCH   2   3
HETATM    3  C   UNL     1     -12.457  10.600  70.531  1.00  0.00    -0.445 C  
BRANCH   3   4
HETATM    4  C   UNL     1     -12.026   9.721  71.702  1.00  0.00    -0.454 C  
BRANCH   4   5
HETATM    5  C   UNL     1     -10.678   9.059  71.423  1.00  0.00    -0.401 C  
BRANCH   5   6
HETATM    6  C   UNL     1     -10.664   8.396  70.048  1.00  0.00    -0.236 C  
BRANCH   6   7
HETATM    7  C   UNL     1      -9.399   8.761  69.272  1.00  0.00    -0.149 C  
BRANCH   7   8
HETATM    8  C   UNL     1      -9.715   9.760  68.159  1.00  0.00    -0.163 C  
BRANCH   8   9
HETATM    9  C   UNL     1      -9.130   9.309  66.822  1.00  0.00    -0.170 C  
BRANCH   9  10
HETATM   10  C   UNL     1      -9.983   9.817  65.659  1.00  0.00    -0.352 C  
BRANCH  10  11
HETATM   11  C   UNL     1      -9.473  11.156  65.133  1.00  0.00    -0.257 C  
HETATM   12  C   UNL     1     -10.489  11.827  64.237  1.00  0.00    -0.325 C  
HETATM   13  O   UNL     1     -10.048  13.017  63.765  1.00  0.00    -0.334 OA 
HETATM   14  O   UNL     1     -11.587  11.380  63.951  1.00  0.00    -0.299 OA 
ENDBRANCH  10  11
ENDBRANCH   9  10
ENDBRANCH   8   9
ENDBRANCH   7   8
ENDBRANCH   6   7
ENDBRANCH   5   6
ENDBRANCH   4   5
ENDBRANCH   3   4
ENDBRANCH   2   3
TORSDOF 9
ENDMDL
MODEL      202
REMARK 921   NORMALIZED FREE ENERGY PREDICTED BY IDOCK:   -2.93 KCAL/MOL
REMARK 922        TOTAL FREE ENERGY PREDICTED BY IDOCK:   -5.01 KCAL/MOL
REMARK 923 INTER-LIGAND FREE ENERGY PREDICTED BY IDOCK:   -4.35 KCAL/MOL
REMARK 924 INTRA-LIGAND FREE ENERGY PREDICTED BY IDOCK:   -0.66 KCAL/MOL
REMARK 927      BINDING AFFINITY PREDICTED BY RF-SCORE:    0.00 PKD
ROOT
HETATM    1  C   UNL     1     -11.750  11.727  69.961  1.00  0.00    -0.386 C  
HETATM    2  C   UNL     1     -12.604  11.104  71.052  1.00  0.00    -0.503 C  
ENDROOT
BRANCH   2   3
HETATM    3  C   UNL     1     -12.720   9.592  70.868  1.00  0.00    -0.280 C  
BRANCH   3   4
HETATM    4  C   UNL     1     -13.715   8.987  71.856  1.00  0.00    -0.495 C  
BRANCH   4   5
HETATM    5  C   UNL     1     -13.827   7.475  71.662  1.00  0.00    -0.486 C  
BRANCH   5   6
HETATM    6  C   UNL     1     -12.496   6.878  71.210  1.00  0.00    -0.409 C  
BRANCH   6   7
HETATM    7  C   UNL     1     -11.766   6.212  72.375  1.00  0.00    -0.319 C  
BRANCH   7   8
HETATM    8  C   UNL     1     -10.963   7.241  73.170  1.00  0.00    -0.384 C  
BRANCH   8   9
HETATM    9  C   UNL     1      -9.698   6.623  73.765  1.00  0.00    -0.248 C  
BRANCH   9  10
HETATM   10  C   UNL     1      -8.454   7.372  73.287  1.00  0.00    -0.173 C  
BRANCH  10  11
HETATM   11  C   UNL     1      -8.732   8.167  72.015  1.00  0.00    -0.221 C  
HETATM   12  C   UNL     1      -7.584   9.089  71.670  1.00  0.00     0.066 C  
HETATM   13  O   UNL     1      -7.820   9.799  70.541  1.00  0.00    -0.214 OA 
HETATM   14  O   UNL     1      -6.552   9.206  72.309  1.00  0.00    -0.298 OA 
ENDBRANCH  10  11
ENDBRANCH   9  10
ENDBRANCH   8   9
ENDBRANCH   7   8
ENDBRANCH   6   7
ENDBRANCH   5   6
ENDBRANCH   4   5
ENDBRANCH   3   4
ENDBRANCH   2   3
TORSDOF 9
ENDMDL
MODEL      203
REMARK 921   NORMALIZED FREE ENERGY PREDICTED BY IDOCK:   -2.93 KCAL/MOL
REMARK 922        TOTAL FREE ENERGY PREDICTED BY IDOCK:   -5.01 KCAL/MOL
REMARK 923 INTER-LIGAND FREE ENERGY PREDICTED BY IDOCK:   -4.53 KCAL/MOL
REMARK 924 INTRA-LIGAND FREE ENERGY PREDICTED BY IDOCK:   -0.49 KCAL/MOL
REMARK 927      BINDING AFFINITY PREDICTED BY RF-SCORE:    0.00 PKD
ROOT
HETATM    1  C   UNL     1     -10.484   8.771  67.272  1.00  0.00    -0.353 C  
HETATM    2  C   UNL     1      -9.613   9.168  66.092  1.00  0.00    -0.333 C  
ENDROOT
BRANCH   2   3
HETATM    3  C   UNL     1     -10.302  10.220  65.225  1.00  0.00    -0.218 C  
BRANCH   3   4
HETATM    4  C   UNL     1     -10.029  11.631  65.741  1.00  0.00    -0.270 C  
BRANCH   4   5
HETATM    5  C   UNL     1     -11.309  12.279  66.266  1.00  0.00    -0.395 C  
BRANCH   5   6
HETATM    6  C   UNL     1     -11.008  13.597  66.976  1.00  0.00    -0.298 C  
BRANCH   6   7
HETATM    7  C   UNL     1     -10.261  14.562  66.056  1.00  0.00    -0.329 C  
BRANCH   7   8
HETATM    8  C   UNL     1      -8.904  14.936  66.649  1.00  0.00    -0.287 C  
BRANCH   8   9
HETATM    9  C   UNL     1      -8.634  16.435  66.523  1.00  0.00    -0.329 C  
BRANCH   9  10
HETATM   10  C   UNL     1      -9.217  17.193  67.716  1.00  0.00    -0.241 C  
BRANCH  10  11
HETATM   11  C   UNL     1      -9.971  18.442  67.271  1.00  0.00    -0.347 C  
HETATM   12  C   UNL     1      -9.226  19.705  67.640  1.00  0.00    -0.333 C  
HETATM   13  O   UNL     1      -9.886  20.821  67.249  1.00  0.00    -0.474 OA 
HETATM   14  O   UNL     1      -8.155  19.752  68.221  1.00  0.00    -0.321 OA 
ENDBRANCH  10  11
ENDBRANCH   9  10
ENDBRANCH   8   9
ENDBRANCH   7   8
ENDBRANCH   6   7
ENDBRANCH   5   6
ENDBRANCH   4   5
ENDBRANCH   3   4
ENDBRANCH   2   3
TORSDOF 9
ENDMDL
MODEL      204
REMARK 921   NORMALIZED FREE ENERGY PREDICTED BY IDOCK:   -2.93 KCAL/MOL
REMARK 922        TOTAL FREE ENERGY PREDICTED BY IDOCK:   -5.01 KCAL/MOL
REMARK 923 INTER-LIGAND FREE ENERGY PREDICTED BY IDOCK:   -4.38 KCAL/MOL
REMARK 924 INTRA-LIGAND FREE ENERGY PREDICTED BY IDOCK:   -0.63 KCAL/MOL
REMARK 927      BINDING AFFINITY PREDICTED BY RF-SCORE:    0.00 PKD
ROOT
HETATM    1  C   UNL     1     -11.128  10.953  69.635  1.00  0.00    -0.328 C  
HETATM    2  C   UNL     1     -10.774  10.610  68.197  1.00  0.00    -0.267 C  
ENDROOT
BRANCH   2   3
HETATM    3  C   UNL     1     -11.084  11.774  67.259  1.00  0.00    -0.342 C  
BRANCH   3   4
HETATM    4  C   UNL     1     -11.976  12.813  67.936  1.00  0.00    -0.320 C  
BRANCH   4   5
HETATM    5  C   UNL     1     -11.283  14.173  67.998  1.00  0.00    -0.302 C  
BRANCH   5   6
HETATM    6  C   UNL     1     -10.056  14.207  67.089  1.00  0.00    -0.258 C  
BRANCH   6   7
HETATM    7  C   UNL     1     -10.329  15.021  65.824  1.00  0.00    -0.354 C  
BRANCH   7   8
HETATM    8  C   UNL     1      -9.962  16.489  66.035  1.00  0.00    -0.359 C  
BRANCH   8   9
HETATM    9  C   UNL     1      -8.447  16.683  66.092  1.00  0.00    -0.308 C  
BRANCH   9  10
HETATM   10  C   UNL     1      -8.099  18.076  66.617  1.00  0.00    -0.285 C  
BRANCH  10  11
HETATM   11  C   UNL     1      -9.288  18.721  67.324  1.00  0.00    -0.310 C  
HETATM   12  C   UNL     1      -8.941  19.132  68.737  1.00  0.00    -0.346 C  
HETATM   13  O   UNL     1      -9.988  19.707  69.374  1.00  0.00    -0.401 OA 
HETATM   14  O   UNL     1      -7.856  18.979  69.274  1.00  0.00    -0.200 OA 
ENDBRANCH  10  11
ENDBRANCH   9  10
ENDBRANCH   8   9
ENDBRANCH   7   8
ENDBRANCH   6   7
ENDBRANCH   5   6
ENDBRANCH   4   5
ENDBRANCH   3   4
ENDBRANCH   2   3
TORSDOF 9
ENDMDL
MODEL      205
REMARK 921   NORMALIZED FREE ENERGY PREDICTED BY IDOCK:   -2.92 KCAL/MOL
REMARK 922        TOTAL FREE ENERGY PREDICTED BY IDOCK:   -5.00 KCAL/MOL
REMARK 923 INTER-LIGAND FREE ENERGY PREDICTED BY IDOCK:   -4.49 KCAL/MOL
REMARK 924 INTRA-LIGAND FREE ENERGY PREDICTED BY IDOCK:   -0.51 KCAL/MOL
REMARK 927      BINDING AFFINITY PREDICTED BY RF-SCORE:    0.00 PKD
ROOT
HETATM    1  C   UNL     1     -12.387  15.561  74.303  1.00  0.00    -0.815 C  
HETATM    2  C   UNL     1     -12.963  15.127  72.965  1.00  0.00    -0.597 C  
ENDROOT
BRANCH   2   3
HETATM    3  C   UNL     1     -12.020  15.478  71.817  1.00  0.00    -0.494 C  
BRANCH   3   4
HETATM    4  C   UNL     1     -11.951  14.351  70.789  1.00  0.00    -0.391 C  
BRANCH   4   5
HETATM    5  C   UNL     1     -11.833  14.909  69.372  1.00  0.00    -0.356 C  
BRANCH   5   6
HETATM    6  C   UNL     1     -11.644  13.788  68.352  1.00  0.00    -0.369 C  
BRANCH   6   7
HETATM    7  C   UNL     1     -10.792  14.252  67.172  1.00  0.00    -0.296 C  
BRANCH   7   8
HETATM    8  C   UNL     1      -9.740  13.202  66.816  1.00  0.00    -0.246 C  
BRANCH   8   9
HETATM    9  C   UNL     1      -9.453  12.277  67.998  1.00  0.00    -0.206 C  
BRANCH   9  10
HETATM   10  C   UNL     1      -8.939  10.922  67.511  1.00  0.00    -0.136 C  
BRANCH  10  11
HETATM   11  C   UNL     1      -9.153  10.747  66.011  1.00  0.00    -0.204 C  
HETATM   12  C   UNL     1      -7.911  10.222  65.327  1.00  0.00    -0.145 C  
HETATM   13  O   UNL     1      -8.090  10.062  63.994  1.00  0.00    -0.142 OA 
HETATM   14  O   UNL     1      -6.854   9.963  65.878  1.00  0.00    -0.091 OA 
ENDBRANCH  10  11
ENDBRANCH   9  10
ENDBRANCH   8   9
ENDBRANCH   7   8
ENDBRANCH   6   7
ENDBRANCH   5   6
ENDBRANCH   4   5
ENDBRANCH   3   4
ENDBRANCH   2   3
TORSDOF 9
ENDMDL
MODEL      206
REMARK 921   NORMALIZED FREE ENERGY PREDICTED BY IDOCK:   -2.92 KCAL/MOL
REMARK 922        TOTAL FREE ENERGY PREDICTED BY IDOCK:   -5.00 KCAL/MOL
REMARK 923 INTER-LIGAND FREE ENERGY PREDICTED BY IDOCK:   -4.21 KCAL/MOL
REMARK 924 INTRA-LIGAND FREE ENERGY PREDICTED BY IDOCK:   -0.79 KCAL/MOL
REMARK 927      BINDING AFFINITY PREDICTED BY RF-SCORE:    0.00 PKD
ROOT
HETATM    1  C   UNL     1      -6.835  15.231  69.111  1.00  0.00    -0.138 C  
HETATM    2  C   UNL     1      -5.840  15.908  68.183  1.00  0.00    -0.129 C  
ENDROOT
BRANCH   2   3
HETATM    3  C   UNL     1      -6.312  17.307  67.793  1.00  0.00    -0.161 C  
BRANCH   3   4
HETATM    4  C   UNL     1      -7.363  17.832  68.768  1.00  0.00    -0.271 C  
BRANCH   4   5
HETATM    5  C   UNL     1      -8.110  19.026  68.176  1.00  0.00    -0.347 C  
BRANCH   5   6
HETATM    6  C   UNL     1      -9.557  19.067  68.666  1.00  0.00    -0.458 C  
BRANCH   6   7
HETATM    7  C   UNL     1     -10.461  18.204  67.786  1.00  0.00    -0.421 C  
BRANCH   7   8
HETATM    8  C   UNL     1     -10.824  16.900  68.496  1.00  0.00    -0.335 C  
BRANCH   8   9
HETATM    9  C   UNL     1     -10.630  15.693  67.580  1.00  0.00    -0.294 C  
BRANCH   9  10
HETATM   10  C   UNL     1     -11.395  14.481  68.113  1.00  0.00    -0.319 C  
BRANCH  10  11
HETATM   11  C   UNL     1     -11.788  14.665  69.576  1.00  0.00    -0.374 C  
HETATM   12  C   UNL     1     -12.088  13.342  70.244  1.00  0.00    -0.349 C  
HETATM   13  O   UNL     1     -12.437  13.494  71.544  1.00  0.00    -0.299 OA 
HETATM   14  O   UNL     1     -12.032  12.248  69.708  1.00  0.00    -0.314 OA 
ENDBRANCH  10  11
ENDBRANCH   9  10
ENDBRANCH   8   9
ENDBRANCH   7   8
ENDBRANCH   6   7
ENDBRANCH   5   6
ENDBRANCH   4   5
ENDBRANCH   3   4
ENDBRANCH   2   3
TORSDOF 9
ENDMDL
MODEL      207
REMARK 921   NORMALIZED FREE ENERGY PREDICTED BY IDOCK:   -2.91 KCAL/MOL
REMARK 922        TOTAL FREE ENERGY PREDICTED BY IDOCK:   -4.99 KCAL/MOL
REMARK 923 INTER-LIGAND FREE ENERGY PREDICTED BY IDOCK:   -4.18 KCAL/MOL
REMARK 924 INTRA-LIGAND FREE ENERGY PREDICTED BY IDOCK:   -0.81 KCAL/MOL
REMARK 927      BINDING AFFINITY PREDICTED BY RF-SCORE:    0.00 PKD
ROOT
HETATM    1  C   UNL     1      -7.090   7.882  70.750  1.00  0.00    -0.052 C  
HETATM    2  C   UNL     1      -7.658   9.211  70.279  1.00  0.00    -0.108 C  
ENDROOT
BRANCH   2   3
HETATM    3  C   UNL     1      -9.170   9.271  70.486  1.00  0.00    -0.311 C  
BRANCH   3   4
HETATM    4  C   UNL     1      -9.717   7.933  70.979  1.00  0.00    -0.178 C  
BRANCH   4   5
HETATM    5  C   UNL     1     -11.237   7.983  71.121  1.00  0.00    -0.287 C  
BRANCH   5   6
HETATM    6  C   UNL     1     -11.672   9.182  71.961  1.00  0.00    -0.384 C  
BRANCH   6   7
HETATM    7  C   UNL     1     -12.796   9.958  71.274  1.00  0.00    -0.486 C  
BRANCH   7   8
HETATM    8  C   UNL     1     -12.285  11.297  70.743  1.00  0.00    -0.479 C  
BRANCH   8   9
HETATM    9  C   UNL     1     -11.965  11.220  69.251  1.00  0.00    -0.411 C  
BRANCH   9  10
HETATM   10  C   UNL     1     -11.019  12.350  68.842  1.00  0.00    -0.268 C  
BRANCH  10  11
HETATM   11  C   UNL     1     -11.766  13.668  68.663  1.00  0.00    -0.389 C  
HETATM   12  C   UNL     1     -10.815  14.840  68.562  1.00  0.00    -0.252 C  
HETATM   13  O   UNL     1     -11.467  16.015  68.402  1.00  0.00    -0.369 OA 
HETATM   14  O   UNL     1      -9.599  14.772  68.615  1.00  0.00    -0.207 OA 
ENDBRANCH  10  11
ENDBRANCH   9  10
ENDBRANCH   8   9
ENDBRANCH   7   8
ENDBRANCH   6   7
ENDBRANCH   5   6
ENDBRANCH   4   5
ENDBRANCH   3   4
ENDBRANCH   2   3
TORSDOF 9
ENDMDL
MODEL      208
REMARK 921   NORMALIZED FREE ENERGY PREDICTED BY IDOCK:   -2.91 KCAL/MOL
REMARK 922        TOTAL FREE ENERGY PREDICTED BY IDOCK:   -4.98 KCAL/MOL
REMARK 923 INTER-LIGAND FREE ENERGY PREDICTED BY IDOCK:   -4.20 KCAL/MOL
REMARK 924 INTRA-LIGAND FREE ENERGY PREDICTED BY IDOCK:   -0.78 KCAL/MOL
REMARK 927      BINDING AFFINITY PREDICTED BY RF-SCORE:    0.00 PKD
ROOT
HETATM    1  C   UNL     1      -9.329   3.936  65.376  1.00  0.00    -0.159 C  
HETATM    2  C   UNL     1      -9.388   5.368  65.881  1.00  0.00    -0.155 C  
ENDROOT
BRANCH   2   3
HETATM    3  C   UNL     1     -10.647   5.610  66.712  1.00  0.00    -0.372 C  
BRANCH   3   4
HETATM    4  C   UNL     1     -10.656   7.013  67.313  1.00  0.00    -0.395 C  
BRANCH   4   5
HETATM    5  C   UNL     1      -9.821   7.975  66.469  1.00  0.00    -0.289 C  
BRANCH   5   6
HETATM    6  C   UNL     1     -10.132   9.428  66.821  1.00  0.00    -0.325 C  
BRANCH   6   7
HETATM    7  C   UNL     1     -10.010   9.670  68.325  1.00  0.00    -0.178 C  
BRANCH   7   8
HETATM    8  C   UNL     1     -10.392  11.107  68.676  1.00  0.00    -0.219 C  
BRANCH   8   9
HETATM    9  C   UNL     1     -11.811  11.436  68.215  1.00  0.00    -0.320 C  
BRANCH   9  10
HETATM   10  C   UNL     1     -11.848  12.785  67.496  1.00  0.00    -0.402 C  
BRANCH  10  11
HETATM   11  C   UNL     1     -12.032  12.612  65.991  1.00  0.00    -0.478 C  
HETATM   12  C   UNL     1     -10.746  12.868  65.238  1.00  0.00    -0.296 C  
HETATM   13  O   UNL     1     -10.898  12.717  63.901  1.00  0.00    -0.379 OA 
HETATM   14  O   UNL     1      -9.679  13.176  65.741  1.00  0.00    -0.236 OA 
ENDBRANCH  10  11
ENDBRANCH   9  10
ENDBRANCH   8   9
ENDBRANCH   7   8
ENDBRANCH   6   7
ENDBRANCH   5   6
ENDBRANCH   4   5
ENDBRANCH   3   4
ENDBRANCH   2   3
TORSDOF 9
ENDMDL
MODEL      209
REMARK 921   NORMALIZED FREE ENERGY PREDICTED BY IDOCK:   -2.90 KCAL/MOL
REMARK 922        TOTAL FREE ENERGY PREDICTED BY IDOCK:   -4.98 KCAL/MOL
REMARK 923 INTER-LIGAND FREE ENERGY PREDICTED BY IDOCK:   -3.74 KCAL/MOL
REMARK 924 INTRA-LIGAND FREE ENERGY PREDICTED BY IDOCK:   -1.24 KCAL/MOL
REMARK 927      BINDING AFFINITY PREDICTED BY RF-SCORE:    0.00 PKD
ROOT
HETATM    1  C   UNL     1     -12.257  12.588  64.720  1.00  0.00    -0.532 C  
HETATM    2  C   UNL     1     -12.903  13.730  65.488  1.00  0.00    -0.464 C  
ENDROOT
BRANCH   2   3
HETATM    3  C   UNL     1     -11.919  14.363  66.469  1.00  0.00    -0.406 C  
BRANCH   3   4
HETATM    4  C   UNL     1     -11.786  13.526  67.740  1.00  0.00    -0.394 C  
BRANCH   4   5
HETATM    5  C   UNL     1     -10.323  13.183  68.019  1.00  0.00    -0.240 C  
BRANCH   5   6
HETATM    6  C   UNL     1     -10.182  11.752  68.533  1.00  0.00    -0.215 C  
BRANCH   6   7
HETATM    7  C   UNL     1     -11.283  10.853  67.970  1.00  0.00    -0.378 C  
BRANCH   7   8
HETATM    8  C   UNL     1     -10.684   9.615  67.304  1.00  0.00    -0.284 C  
BRANCH   8   9
HETATM    9  C   UNL     1     -10.003   9.967  65.982  1.00  0.00    -0.338 C  
BRANCH   9  10
HETATM   10  C   UNL     1      -8.636   9.289  65.880  1.00  0.00    -0.163 C  
BRANCH  10  11
HETATM   11  C   UNL     1      -7.500  10.302  65.980  1.00  0.00    -0.128 C  
HETATM   12  C   UNL     1      -6.834  10.262  67.337  1.00  0.00    -0.077 C  
HETATM   13  O   UNL     1      -5.823  11.157  67.438  1.00  0.00    -0.045 OA 
HETATM   14  O   UNL     1      -7.144   9.524  68.257  1.00  0.00    -0.073 OA 
ENDBRANCH  10  11
ENDBRANCH   9  10
ENDBRANCH   8   9
ENDBRANCH   7   8
ENDBRANCH   6   7
ENDBRANCH   5   6
ENDBRANCH   4   5
ENDBRANCH   3   4
ENDBRANCH   2   3
TORSDOF 9
ENDMDL
MODEL      210
REMARK 921   NORMALIZED FREE ENERGY PREDICTED BY IDOCK:   -2.90 KCAL/MOL
REMARK 922        TOTAL FREE ENERGY PREDICTED BY IDOCK:   -4.98 KCAL/MOL
REMARK 923 INTER-LIGAND FREE ENERGY PREDICTED BY IDOCK:   -4.61 KCAL/MOL
REMARK 924 INTRA-LIGAND FREE ENERGY PREDICTED BY IDOCK:   -0.37 KCAL/MOL
REMARK 927      BINDING AFFINITY PREDICTED BY RF-SCORE:    0.00 PKD
ROOT
HETATM    1  C   UNL     1     -12.870  15.927  73.634  1.00  0.00    -0.717 C  
HETATM    2  C   UNL     1     -13.550  15.660  72.301  1.00  0.00    -0.590 C  
ENDROOT
BRANCH   2   3
HETATM    3  C   UNL     1     -12.530  15.563  71.169  1.00  0.00    -0.491 C  
BRANCH   3   4
HETATM    4  C   UNL     1     -12.381  14.125  70.677  1.00  0.00    -0.435 C  
BRANCH   4   5
HETATM    5  C   UNL     1     -12.036  14.090  69.188  1.00  0.00    -0.400 C  
BRANCH   5   6
HETATM    6  C   UNL     1     -11.893  12.653  68.691  1.00  0.00    -0.342 C  
BRANCH   6   7
HETATM    7  C   UNL     1     -10.461  12.364  68.242  1.00  0.00    -0.234 C  
BRANCH   7   8
HETATM    8  C   UNL     1      -9.862  11.214  69.050  1.00  0.00    -0.132 C  
BRANCH   8   9
HETATM    9  C   UNL     1      -9.462  10.047  68.148  1.00  0.00    -0.148 C  
BRANCH   9  10
HETATM   10  C   UNL     1      -9.362   8.750  68.951  1.00  0.00    -0.145 C  
BRANCH  10  11
HETATM   11  C   UNL     1     -10.711   8.356  69.547  1.00  0.00    -0.181 C  
HETATM   12  C   UNL     1     -10.767   6.880  69.872  1.00  0.00    -0.246 C  
HETATM   13  O   UNL     1     -11.960   6.519  70.402  1.00  0.00    -0.397 OA 
HETATM   14  O   UNL     1      -9.866   6.079  69.691  1.00  0.00    -0.154 OA 
ENDBRANCH  10  11
ENDBRANCH   9  10
ENDBRANCH   8   9
ENDBRANCH   7   8
ENDBRANCH   6   7
ENDBRANCH   5   6
ENDBRANCH   4   5
ENDBRANCH   3   4
ENDBRANCH   2   3
TORSDOF 9
ENDMDL
MODEL      211
REMARK 921   NORMALIZED FREE ENERGY PREDICTED BY IDOCK:   -2.90 KCAL/MOL
REMARK 922        TOTAL FREE ENERGY PREDICTED BY IDOCK:   -4.97 KCAL/MOL
REMARK 923 INTER-LIGAND FREE ENERGY PREDICTED BY IDOCK:   -3.86 KCAL/MOL
REMARK 924 INTRA-LIGAND FREE ENERGY PREDICTED BY IDOCK:   -1.10 KCAL/MOL
REMARK 927      BINDING AFFINITY PREDICTED BY RF-SCORE:    0.00 PKD
ROOT
HETATM    1  C   UNL     1      -7.690  14.205  68.565  1.00  0.00    -0.138 C  
HETATM    2  C   UNL     1      -8.228  13.786  67.207  1.00  0.00    -0.173 C  
ENDROOT
BRANCH   2   3
HETATM    3  C   UNL     1      -9.721  14.085  67.087  1.00  0.00    -0.242 C  
BRANCH   3   4
HETATM    4  C   UNL     1     -10.563  12.848  67.391  1.00  0.00    -0.242 C  
BRANCH   4   5
HETATM    5  C   UNL     1     -11.647  13.164  68.420  1.00  0.00    -0.372 C  
BRANCH   5   6
HETATM    6  C   UNL     1     -11.105  14.056  69.535  1.00  0.00    -0.200 C  
BRANCH   6   7
HETATM    7  C   UNL     1     -12.122  15.127  69.927  1.00  0.00    -0.373 C  
BRANCH   7   8
HETATM    8  C   UNL     1     -11.862  16.426  69.167  1.00  0.00     0.077 C  
BRANCH   8   9
HETATM    9  C   UNL     1     -10.530  17.054  69.573  1.00  0.00    -0.182 C  
BRANCH   9  10
HETATM   10  C   UNL     1      -9.726  17.464  68.339  1.00  0.00    -0.304 C  
BRANCH  10  11
HETATM   11  C   UNL     1     -10.305  18.714  67.683  1.00  0.00    -0.455 C  
HETATM   12  C   UNL     1      -9.490  19.145  66.485  1.00  0.00    -0.356 C  
HETATM   13  O   UNL     1      -9.996  20.253  65.894  1.00  0.00    -0.411 OA 
HETATM   14  O   UNL     1      -8.489  18.586  66.071  1.00  0.00    -0.489 OA 
ENDBRANCH  10  11
ENDBRANCH   9  10
ENDBRANCH   8   9
ENDBRANCH   7   8
ENDBRANCH   6   7
ENDBRANCH   5   6
ENDBRANCH   4   5
ENDBRANCH   3   4
ENDBRANCH   2   3
TORSDOF 9
ENDMDL
MODEL      212
REMARK 921   NORMALIZED FREE ENERGY PREDICTED BY IDOCK:   -2.89 KCAL/MOL
REMARK 922        TOTAL FREE ENERGY PREDICTED BY IDOCK:   -4.96 KCAL/MOL
REMARK 923 INTER-LIGAND FREE ENERGY PREDICTED BY IDOCK:   -4.39 KCAL/MOL
REMARK 924 INTRA-LIGAND FREE ENERGY PREDICTED BY IDOCK:   -0.56 KCAL/MOL
REMARK 927      BINDING AFFINITY PREDICTED BY RF-SCORE:    0.00 PKD
ROOT
HETATM    1  C   UNL     1      -6.360  10.014  63.991  1.00  0.00    -0.132 C  
HETATM    2  C   UNL     1      -6.954   8.768  64.629  1.00  0.00    -0.080 C  
ENDROOT
BRANCH   2   3
HETATM    3  C   UNL     1      -7.766   9.118  65.874  1.00  0.00    -0.095 C  
BRANCH   3   4
HETATM    4  C   UNL     1      -8.609  10.372  65.653  1.00  0.00    -0.175 C  
BRANCH   4   5
HETATM    5  C   UNL     1     -10.025  10.009  65.210  1.00  0.00    -0.368 C  
BRANCH   5   6
HETATM    6  C   UNL     1     -10.589  11.060  64.256  1.00  0.00    -0.402 C  
BRANCH   6   7
HETATM    7  C   UNL     1     -10.694  12.424  64.938  1.00  0.00    -0.328 C  
BRANCH   7   8
HETATM    8  C   UNL     1     -11.938  12.494  65.822  1.00  0.00    -0.482 C  
BRANCH   8   9
HETATM    9  C   UNL     1     -12.461  13.925  65.938  1.00  0.00    -0.519 C  
BRANCH   9  10
HETATM   10  C   UNL     1     -11.971  14.578  67.230  1.00  0.00    -0.375 C  
BRANCH  10  11
HETATM   11  C   UNL     1     -12.019  13.603  68.404  1.00  0.00    -0.391 C  
HETATM   12  C   UNL     1     -12.244  14.320  69.716  1.00  0.00    -0.339 C  
HETATM   13  O   UNL     1     -12.290  13.464  70.764  1.00  0.00    -0.353 OA 
HETATM   14  O   UNL     1     -12.373  15.525  69.852  1.00  0.00    -0.357 OA 
ENDBRANCH  10  11
ENDBRANCH   9  10
ENDBRANCH   8   9
ENDBRANCH   7   8
ENDBRANCH   6   7
ENDBRANCH   5   6
ENDBRANCH   4   5
ENDBRANCH   3   4
ENDBRANCH   2   3
TORSDOF 9
ENDMDL
MODEL      213
REMARK 921   NORMALIZED FREE ENERGY PREDICTED BY IDOCK:   -2.89 KCAL/MOL
REMARK 922        TOTAL FREE ENERGY PREDICTED BY IDOCK:   -4.96 KCAL/MOL
REMARK 923 INTER-LIGAND FREE ENERGY PREDICTED BY IDOCK:   -4.39 KCAL/MOL
REMARK 924 INTRA-LIGAND FREE ENERGY PREDICTED BY IDOCK:   -0.57 KCAL/MOL
REMARK 927      BINDING AFFINITY PREDICTED BY RF-SCORE:    0.00 PKD
ROOT
HETATM    1  C   UNL     1     -11.586  11.421  69.484  1.00  0.00    -0.399 C  
HETATM    2  C   UNL     1     -11.713  11.731  68.002  1.00  0.00    -0.363 C  
ENDROOT
BRANCH   2   3
HETATM    3  C   UNL     1     -10.342  11.824  67.337  1.00  0.00    -0.228 C  
BRANCH   3   4
HETATM    4  C   UNL     1      -9.402  12.735  68.125  1.00  0.00    -0.214 C  
BRANCH   4   5
HETATM    5  C   UNL     1      -8.591  13.627  67.186  1.00  0.00    -0.203 C  
BRANCH   5   6
HETATM    6  C   UNL     1      -9.499  14.575  66.407  1.00  0.00    -0.316 C  
BRANCH   6   7
HETATM    7  C   UNL     1     -10.007  15.709  67.297  1.00  0.00    -0.236 C  
BRANCH   7   8
HETATM    8  C   UNL     1      -9.708  17.069  66.666  1.00  0.00    -0.287 C  
BRANCH   8   9
HETATM    9  C   UNL     1     -10.653  18.148  67.191  1.00  0.00    -0.362 C  
BRANCH   9  10
HETATM   10  C   UNL     1      -9.912  19.472  67.380  1.00  0.00    -0.498 C  
BRANCH  10  11
HETATM   11  C   UNL     1      -8.979  19.425  68.586  1.00  0.00    -0.419 C  
HETATM   12  C   UNL     1      -7.567  19.817  68.215  1.00  0.00    -0.303 C  
HETATM   13  O   UNL     1      -6.729  19.780  69.278  1.00  0.00    -0.330 OA 
HETATM   14  O   UNL     1      -7.189  20.136  67.100  1.00  0.00    -0.233 OA 
ENDBRANCH  10  11
ENDBRANCH   9  10
ENDBRANCH   8   9
ENDBRANCH   7   8
ENDBRANCH   6   7
ENDBRANCH   5   6
ENDBRANCH   4   5
ENDBRANCH   3   4
ENDBRANCH   2   3
TORSDOF 9
ENDMDL
MODEL      214
REMARK 921   NORMALIZED FREE ENERGY PREDICTED BY IDOCK:   -2.89 KCAL/MOL
REMARK 922        TOTAL FREE ENERGY PREDICTED BY IDOCK:   -4.95 KCAL/MOL
REMARK 923 INTER-LIGAND FREE ENERGY PREDICTED BY IDOCK:   -4.09 KCAL/MOL
REMARK 924 INTRA-LIGAND FREE ENERGY PREDICTED BY IDOCK:   -0.86 KCAL/MOL
REMARK 927      BINDING AFFINITY PREDICTED BY RF-SCORE:    0.00 PKD
ROOT
HETATM    1  C   UNL     1      -9.976   4.967  67.681  1.00  0.00    -0.192 C  
HETATM    2  C   UNL     1     -10.709   6.283  67.880  1.00  0.00    -0.380 C  
ENDROOT
BRANCH   2   3
HETATM    3  C   UNL     1     -10.472   7.230  66.705  1.00  0.00    -0.311 C  
BRANCH   3   4
HETATM    4  C   UNL     1      -8.991   7.575  66.558  1.00  0.00    -0.189 C  
BRANCH   4   5
HETATM    5  C   UNL     1      -8.765   9.081  66.678  1.00  0.00    -0.140 C  
BRANCH   5   6
HETATM    6  C   UNL     1      -9.663   9.850  65.711  1.00  0.00    -0.332 C  
BRANCH   6   7
HETATM    7  C   UNL     1     -10.533  10.864  66.455  1.00  0.00    -0.308 C  
BRANCH   7   8
HETATM    8  C   UNL     1      -9.694  11.681  67.437  1.00  0.00    -0.186 C  
BRANCH   8   9
HETATM    9  C   UNL     1     -10.321  11.694  68.830  1.00  0.00    -0.213 C  
BRANCH   9  10
HETATM   10  C   UNL     1     -11.070  10.389  69.099  1.00  0.00    -0.296 C  
BRANCH  10  11
HETATM   11  C   UNL     1     -12.286  10.615  69.993  1.00  0.00    -0.373 C  
HETATM   12  C   UNL     1     -12.154   9.885  71.311  1.00  0.00    -0.394 C  
HETATM   13  O   UNL     1     -13.227  10.079  72.113  1.00  0.00    -0.442 OA 
HETATM   14  O   UNL     1     -11.207   9.194  71.646  1.00  0.00    -0.333 OA 
ENDBRANCH  10  11
ENDBRANCH   9  10
ENDBRANCH   8   9
ENDBRANCH   7   8
ENDBRANCH   6   7
ENDBRANCH   5   6
ENDBRANCH   4   5
ENDBRANCH   3   4
ENDBRANCH   2   3
TORSDOF 9
ENDMDL
MODEL      215
REMARK 921   NORMALIZED FREE ENERGY PREDICTED BY IDOCK:   -2.89 KCAL/MOL
REMARK 922        TOTAL FREE ENERGY PREDICTED BY IDOCK:   -4.95 KCAL/MOL
REMARK 923 INTER-LIGAND FREE ENERGY PREDICTED BY IDOCK:   -4.18 KCAL/MOL
REMARK 924 INTRA-LIGAND FREE ENERGY PREDICTED BY IDOCK:   -0.78 KCAL/MOL
REMARK 927      BINDING AFFINITY PREDICTED BY RF-SCORE:    0.00 PKD
ROOT
HETATM    1  C   UNL     1     -10.406   9.072  66.873  1.00  0.00    -0.324 C  
HETATM    2  C   UNL     1      -9.098   9.566  66.275  1.00  0.00    -0.202 C  
ENDROOT
BRANCH   2   3
HETATM    3  C   UNL     1      -9.305  10.102  64.860  1.00  0.00    -0.310 C  
BRANCH   3   4
HETATM    4  C   UNL     1     -10.170  11.360  64.863  1.00  0.00    -0.330 C  
BRANCH   4   5
HETATM    5  C   UNL     1     -11.301  11.249  63.842  1.00  0.00    -0.147 C  
BRANCH   5   6
HETATM    6  C   UNL     1     -12.330  12.361  64.037  1.00  0.00    -0.579 C  
BRANCH   6   7
HETATM    7  C   UNL     1     -11.806  13.696  63.509  1.00  0.00    -0.217 C  
BRANCH   7   8
HETATM    8  C   UNL     1     -11.907  14.780  64.581  1.00  0.00    -0.442 C  
BRANCH   8   9
HETATM    9  C   UNL     1     -12.547  14.242  65.860  1.00  0.00    -0.376 C  
BRANCH   9  10
HETATM   10  C   UNL     1     -11.647  14.507  67.068  1.00  0.00    -0.402 C  
BRANCH  10  11
HETATM   11  C   UNL     1     -10.494  13.510  67.136  1.00  0.00    -0.256 C  
HETATM   12  C   UNL     1      -9.167  14.171  66.840  1.00  0.00    -0.257 C  
HETATM   13  O   UNL     1      -8.135  13.296  66.899  1.00  0.00    -0.068 OA 
HETATM   14  O   UNL     1      -9.006  15.351  66.576  1.00  0.00    -0.264 OA 
ENDBRANCH  10  11
ENDBRANCH   9  10
ENDBRANCH   8   9
ENDBRANCH   7   8
ENDBRANCH   6   7
ENDBRANCH   5   6
ENDBRANCH   4   5
ENDBRANCH   3   4
ENDBRANCH   2   3
TORSDOF 9
ENDMDL
MODEL      216
REMARK 921   NORMALIZED FREE ENERGY PREDICTED BY IDOCK:   -2.87 KCAL/MOL
REMARK 922        TOTAL FREE ENERGY PREDICTED BY IDOCK:   -4.93 KCAL/MOL
REMARK 923 INTER-LIGAND FREE ENERGY PREDICTED BY IDOCK:   -3.93 KCAL/MOL
REMARK 924 INTRA-LIGAND FREE ENERGY PREDICTED BY IDOCK:   -1.00 KCAL/MOL
REMARK 927      BINDING AFFINITY PREDICTED BY RF-SCORE:    0.00 PKD
ROOT
HETATM    1  C   UNL     1     -12.928  11.212  71.634  1.00  0.00    -0.548 C  
HETATM    2  C   UNL     1     -11.807  10.463  70.933  1.00  0.00    -0.475 C  
ENDROOT
BRANCH   2   3
HETATM    3  C   UNL     1     -11.996   8.952  71.046  1.00  0.00    -0.307 C  
BRANCH   3   4
HETATM    4  C   UNL     1     -12.039   8.504  72.505  1.00  0.00    -0.395 C  
BRANCH   4   5
HETATM    5  C   UNL     1     -11.042   7.374  72.760  1.00  0.00    -0.394 C  
BRANCH   5   6
HETATM    6  C   UNL     1      -9.686   7.924  73.195  1.00  0.00    -0.353 C  
BRANCH   6   7
HETATM    7  C   UNL     1      -8.586   7.519  72.214  1.00  0.00    -0.141 C  
BRANCH   7   8
HETATM    8  C   UNL     1      -8.083   8.733  71.433  1.00  0.00    -0.189 C  
BRANCH   8   9
HETATM    9  C   UNL     1      -8.591   8.718  69.992  1.00  0.00    -0.136 C  
BRANCH   9  10
HETATM   10  C   UNL     1      -8.739  10.142  69.456  1.00  0.00    -0.189 C  
BRANCH  10  11
HETATM   11  C   UNL     1      -9.543  10.172  68.158  1.00  0.00    -0.151 C  
HETATM   12  C   UNL     1     -10.170  11.526  67.921  1.00  0.00    -0.184 C  
HETATM   13  O   UNL     1     -10.885  11.564  66.771  1.00  0.00    -0.257 OA 
HETATM   14  O   UNL     1     -10.067  12.494  68.655  1.00  0.00    -0.210 OA 
ENDBRANCH  10  11
ENDBRANCH   9  10
ENDBRANCH   8   9
ENDBRANCH   7   8
ENDBRANCH   6   7
ENDBRANCH   5   6
ENDBRANCH   4   5
ENDBRANCH   3   4
ENDBRANCH   2   3
TORSDOF 9
ENDMDL
MODEL      217
REMARK 921   NORMALIZED FREE ENERGY PREDICTED BY IDOCK:   -2.87 KCAL/MOL
REMARK 922        TOTAL FREE ENERGY PREDICTED BY IDOCK:   -4.92 KCAL/MOL
REMARK 923 INTER-LIGAND FREE ENERGY PREDICTED BY IDOCK:   -4.03 KCAL/MOL
REMARK 924 INTRA-LIGAND FREE ENERGY PREDICTED BY IDOCK:   -0.89 KCAL/MOL
REMARK 927      BINDING AFFINITY PREDICTED BY RF-SCORE:    0.00 PKD
ROOT
HETATM    1  C   UNL     1     -11.363   5.538  72.562  1.00  0.00    -0.323 C  
HETATM    2  C   UNL     1     -10.329   5.213  71.496  1.00  0.00    -0.278 C  
ENDROOT
BRANCH   2   3
HETATM    3  C   UNL     1     -10.827   5.603  70.106  1.00  0.00    -0.356 C  
BRANCH   3   4
HETATM    4  C   UNL     1      -9.869   5.123  69.017  1.00  0.00    -0.246 C  
BRANCH   4   5
HETATM    5  C   UNL     1     -10.318   5.610  67.640  1.00  0.00    -0.266 C  
BRANCH   5   6
HETATM    6  C   UNL     1     -11.113   6.909  67.748  1.00  0.00    -0.223 C  
BRANCH   6   7
HETATM    7  C   UNL     1     -10.385   8.060  67.053  1.00  0.00    -0.414 C  
BRANCH   7   8
HETATM    8  C   UNL     1      -9.575   8.876  68.060  1.00  0.00    -0.167 C  
BRANCH   8   9
HETATM    9  C   UNL     1     -10.424   9.276  69.266  1.00  0.00    -0.228 C  
BRANCH   9  10
HETATM   10  C   UNL     1     -11.215  10.551  68.972  1.00  0.00    -0.316 C  
BRANCH  10  11
HETATM   11  C   UNL     1     -10.295  11.698  68.562  1.00  0.00    -0.224 C  
HETATM   12  C   UNL     1     -10.730  12.322  67.255  1.00  0.00    -0.231 C  
HETATM   13  O   UNL     1      -9.921  13.342  66.882  1.00  0.00    -0.241 OA 
HETATM   14  O   UNL     1     -11.689  11.974  66.587  1.00  0.00    -0.522 OA 
ENDBRANCH  10  11
ENDBRANCH   9  10
ENDBRANCH   8   9
ENDBRANCH   7   8
ENDBRANCH   6   7
ENDBRANCH   5   6
ENDBRANCH   4   5
ENDBRANCH   3   4
ENDBRANCH   2   3
TORSDOF 9
ENDMDL
MODEL      218
REMARK 921   NORMALIZED FREE ENERGY PREDICTED BY IDOCK:   -2.87 KCAL/MOL
REMARK 922        TOTAL FREE ENERGY PREDICTED BY IDOCK:   -4.92 KCAL/MOL
REMARK 923 INTER-LIGAND FREE ENERGY PREDICTED BY IDOCK:   -4.14 KCAL/MOL
REMARK 924 INTRA-LIGAND FREE ENERGY PREDICTED BY IDOCK:   -0.78 KCAL/MOL
REMARK 927      BINDING AFFINITY PREDICTED BY RF-SCORE:    0.00 PKD
ROOT
HETATM    1  C   UNL     1      -6.990   7.456  68.707  1.00  0.00    -0.078 C  
HETATM    2  C   UNL     1      -8.204   6.674  68.233  1.00  0.00    -0.114 C  
ENDROOT
BRANCH   2   3
HETATM    3  C   UNL     1      -8.446   5.446  69.108  1.00  0.00    -0.103 C  
BRANCH   3   4
HETATM    4  C   UNL     1      -9.917   5.036  69.095  1.00  0.00    -0.267 C  
BRANCH   4   5
HETATM    5  C   UNL     1     -10.801   6.151  69.651  1.00  0.00    -0.424 C  
BRANCH   5   6
HETATM    6  C   UNL     1     -10.607   6.308  71.158  1.00  0.00    -0.289 C  
BRANCH   6   7
HETATM    7  C   UNL     1      -9.938   7.640  71.493  1.00  0.00    -0.200 C  
BRANCH   7   8
HETATM    8  C   UNL     1     -10.824   8.474  72.417  1.00  0.00    -0.378 C  
BRANCH   8   9
HETATM    9  C   UNL     1     -12.279   8.012  72.364  1.00  0.00    -0.337 C  
BRANCH   9  10
HETATM   10  C   UNL     1     -13.105   8.926  71.459  1.00  0.00    -0.376 C  
BRANCH  10  11
HETATM   11  C   UNL     1     -13.562  10.181  72.197  1.00  0.00    -0.295 C  
HETATM   12  C   UNL     1     -13.017  11.437  71.554  1.00  0.00    -0.399 C  
HETATM   13  O   UNL     1     -13.418  12.557  72.201  1.00  0.00    -0.532 OA 
HETATM   14  O   UNL     1     -12.300  11.475  70.569  1.00  0.00    -0.350 OA 
ENDBRANCH  10  11
ENDBRANCH   9  10
ENDBRANCH   8   9
ENDBRANCH   7   8
ENDBRANCH   6   7
ENDBRANCH   5   6
ENDBRANCH   4   5
ENDBRANCH   3   4
ENDBRANCH   2   3
TORSDOF 9
ENDMDL
MODEL      219
REMARK 921   NORMALIZED FREE ENERGY PREDICTED BY IDOCK:   -2.86 KCAL/MOL
REMARK 922        TOTAL FREE ENERGY PREDICTED BY IDOCK:   -4.92 KCAL/MOL
REMARK 923 INTER-LIGAND FREE ENERGY PREDICTED BY IDOCK:   -4.10 KCAL/MOL
REMARK 924 INTRA-LIGAND FREE ENERGY PREDICTED BY IDOCK:   -0.82 KCAL/MOL
REMARK 927      BINDING AFFINITY PREDICTED BY RF-SCORE:    0.00 PKD
ROOT
HETATM    1  C   UNL     1      -8.714   5.183  73.471  1.00  0.00    -0.114 C  
HETATM    2  C   UNL     1      -8.832   5.860  72.115  1.00  0.00    -0.136 C  
ENDROOT
BRANCH   2   3
HETATM    3  C   UNL     1      -9.968   5.256  71.292  1.00  0.00    -0.256 C  
BRANCH   3   4
HETATM    4  C   UNL     1     -10.610   6.299  70.381  1.00  0.00    -0.309 C  
BRANCH   4   5
HETATM    5  C   UNL     1     -10.862   5.727  68.987  1.00  0.00    -0.330 C  
BRANCH   5   6
HETATM    6  C   UNL     1     -11.027   6.841  67.956  1.00  0.00    -0.289 C  
BRANCH   6   7
HETATM    7  C   UNL     1      -9.972   7.931  68.149  1.00  0.00    -0.210 C  
BRANCH   7   8
HETATM    8  C   UNL     1     -10.373   9.209  67.413  1.00  0.00    -0.330 C  
BRANCH   8   9
HETATM    9  C   UNL     1     -11.207  10.128  68.305  1.00  0.00    -0.246 C  
BRANCH   9  10
HETATM   10  C   UNL     1     -10.684  10.108  69.741  1.00  0.00    -0.317 C  
BRANCH  10  11
HETATM   11  C   UNL     1     -11.808   9.856  70.743  1.00  0.00    -0.415 C  
HETATM   12  C   UNL     1     -12.502  11.140  71.138  1.00  0.00    -0.393 C  
HETATM   13  O   UNL     1     -13.502  10.928  72.026  1.00  0.00    -0.373 OA 
HETATM   14  O   UNL     1     -12.221  12.253  70.727  1.00  0.00    -0.378 OA 
ENDBRANCH  10  11
ENDBRANCH   9  10
ENDBRANCH   8   9
ENDBRANCH   7   8
ENDBRANCH   6   7
ENDBRANCH   5   6
ENDBRANCH   4   5
ENDBRANCH   3   4
ENDBRANCH   2   3
TORSDOF 9
ENDMDL
MODEL      220
REMARK 921   NORMALIZED FREE ENERGY PREDICTED BY IDOCK:   -2.85 KCAL/MOL
REMARK 922        TOTAL FREE ENERGY PREDICTED BY IDOCK:   -4.90 KCAL/MOL
REMARK 923 INTER-LIGAND FREE ENERGY PREDICTED BY IDOCK:   -4.28 KCAL/MOL
REMARK 924 INTRA-LIGAND FREE ENERGY PREDICTED BY IDOCK:   -0.63 KCAL/MOL
REMARK 927      BINDING AFFINITY PREDICTED BY RF-SCORE:    0.00 PKD
ROOT
HETATM    1  C   UNL     1      -8.142   6.435  67.489  1.00  0.00    -0.117 C  
HETATM    2  C   UNL     1      -7.978   7.533  66.451  1.00  0.00    -0.107 C  
ENDROOT
BRANCH   2   3
HETATM    3  C   UNL     1      -8.503   8.869  66.971  1.00  0.00    -0.112 C  
BRANCH   3   4
HETATM    4  C   UNL     1      -8.866   9.809  65.823  1.00  0.00    -0.180 C  
BRANCH   4   5
HETATM    5  C   UNL     1      -8.436  11.242  66.133  1.00  0.00    -0.135 C  
BRANCH   5   6
HETATM    6  C   UNL     1      -7.993  11.381  67.588  1.00  0.00    -0.123 C  
BRANCH   6   7
HETATM    7  C   UNL     1      -8.324  12.769  68.135  1.00  0.00    -0.172 C  
BRANCH   7   8
HETATM    8  C   UNL     1      -9.115  13.582  67.110  1.00  0.00    -0.232 C  
BRANCH   8   9
HETATM    9  C   UNL     1      -8.601  15.018  67.020  1.00  0.00    -0.266 C  
BRANCH   9  10
HETATM   10  C   UNL     1      -9.448  15.835  66.044  1.00  0.00    -0.392 C  
BRANCH  10  11
HETATM   11  C   UNL     1     -10.490  14.968  65.344  1.00  0.00    -0.406 C  
HETATM   12  C   UNL     1     -11.457  15.802  64.534  1.00  0.00    -0.289 C  
HETATM   13  O   UNL     1     -12.387  15.042  63.907  1.00  0.00    -0.695 OA 
HETATM   14  O   UNL     1     -11.433  17.017  64.432  1.00  0.00    -1.048 OA 
ENDBRANCH  10  11
ENDBRANCH   9  10
ENDBRANCH   8   9
ENDBRANCH   7   8
ENDBRANCH   6   7
ENDBRANCH   5   6
ENDBRANCH   4   5
ENDBRANCH   3   4
ENDBRANCH   2   3
TORSDOF 9
ENDMDL
MODEL      221
REMARK 921   NORMALIZED FREE ENERGY PREDICTED BY IDOCK:   -2.84 KCAL/MOL
REMARK 922        TOTAL FREE ENERGY PREDICTED BY IDOCK:   -4.89 KCAL/MOL
REMARK 923 INTER-LIGAND FREE ENERGY PREDICTED BY IDOCK:   -4.33 KCAL/MOL
REMARK 924 INTRA-LIGAND FREE ENERGY PREDICTED BY IDOCK:   -0.56 KCAL/MOL
REMARK 927      BINDING AFFINITY PREDICTED BY RF-SCORE:    0.00 PKD
ROOT
HETATM    1  C   UNL     1     -11.751  11.314  68.525  1.00  0.00    -0.378 C  
HETATM    2  C   UNL     1     -11.642  12.737  68.002  1.00  0.00    -0.388 C  
ENDROOT
BRANCH   2   3
HETATM    3  C   UNL     1     -11.092  13.678  69.072  1.00  0.00    -0.295 C  
BRANCH   3   4
HETATM    4  C   UNL     1     -10.958  15.104  68.544  1.00  0.00    -0.263 C  
BRANCH   4   5
HETATM    5  C   UNL     1      -9.876  15.871  69.303  1.00  0.00    -0.259 C  
BRANCH   5   6
HETATM    6  C   UNL     1      -8.900  16.543  68.341  1.00  0.00    -0.218 C  
BRANCH   6   7
HETATM    7  C   UNL     1      -7.533  16.744  68.994  1.00  0.00    -0.228 C  
BRANCH   7   8
HETATM    8  C   UNL     1      -6.529  17.305  67.988  1.00  0.00    -0.157 C  
BRANCH   8   9
HETATM    9  C   UNL     1      -7.130  17.388  66.586  1.00  0.00    -0.275 C  
BRANCH   9  10
HETATM   10  C   UNL     1      -6.980  18.798  66.014  1.00  0.00    -0.302 C  
BRANCH  10  11
HETATM   11  C   UNL     1      -7.663  19.837  66.899  1.00  0.00    -0.300 C  
HETATM   12  C   UNL     1      -9.151  19.902  66.636  1.00  0.00    -0.376 C  
HETATM   13  O   UNL     1      -9.768  20.820  67.416  1.00  0.00    -0.465 OA 
HETATM   14  O   UNL     1      -9.758  19.223  65.824  1.00  0.00    -0.421 OA 
ENDBRANCH  10  11
ENDBRANCH   9  10
ENDBRANCH   8   9
ENDBRANCH   7   8
ENDBRANCH   6   7
ENDBRANCH   5   6
ENDBRANCH   4   5
ENDBRANCH   3   4
ENDBRANCH   2   3
TORSDOF 9
ENDMDL
MODEL      222
REMARK 921   NORMALIZED FREE ENERGY PREDICTED BY IDOCK:   -2.83 KCAL/MOL
REMARK 922        TOTAL FREE ENERGY PREDICTED BY IDOCK:   -4.87 KCAL/MOL
REMARK 923 INTER-LIGAND FREE ENERGY PREDICTED BY IDOCK:   -4.05 KCAL/MOL
REMARK 924 INTRA-LIGAND FREE ENERGY PREDICTED BY IDOCK:   -0.81 KCAL/MOL
REMARK 927      BINDING AFFINITY PREDICTED BY RF-SCORE:    0.00 PKD
ROOT
HETATM    1  C   UNL     1      -8.475   5.777  66.432  1.00  0.00    -0.122 C  
HETATM    2  C   UNL     1      -8.162   6.940  65.504  1.00  0.00    -0.135 C  
ENDROOT
BRANCH   2   3
HETATM    3  C   UNL     1      -8.203   8.271  66.251  1.00  0.00    -0.112 C  
BRANCH   3   4
HETATM    4  C   UNL     1      -8.838   8.114  67.631  1.00  0.00    -0.136 C  
BRANCH   4   5
HETATM    5  C   UNL     1     -10.158   8.879  67.715  1.00  0.00    -0.263 C  
BRANCH   5   6
HETATM    6  C   UNL     1     -10.135  10.117  66.822  1.00  0.00    -0.277 C  
BRANCH   6   7
HETATM    7  C   UNL     1     -10.392  11.387  67.632  1.00  0.00    -0.209 C  
BRANCH   7   8
HETATM    8  C   UNL     1     -10.554  11.060  69.116  1.00  0.00    -0.253 C  
BRANCH   8   9
HETATM    9  C   UNL     1     -11.683  11.872  69.747  1.00  0.00    -0.403 C  
BRANCH   9  10
HETATM   10  C   UNL     1     -12.433  11.041  70.788  1.00  0.00    -0.491 C  
BRANCH  10  11
HETATM   11  C   UNL     1     -11.664   9.774  71.152  1.00  0.00    -0.465 C  
HETATM   12  C   UNL     1     -12.468   8.874  72.063  1.00  0.00    -0.392 C  
HETATM   13  O   UNL     1     -11.796   7.746  72.391  1.00  0.00    -0.324 OA 
HETATM   14  O   UNL     1     -13.593   9.105  72.474  1.00  0.00    -0.470 OA 
ENDBRANCH  10  11
ENDBRANCH   9  10
ENDBRANCH   8   9
ENDBRANCH   7   8
ENDBRANCH   6   7
ENDBRANCH   5   6
ENDBRANCH   4   5
ENDBRANCH   3   4
ENDBRANCH   2   3
TORSDOF 9
ENDMDL
MODEL      223
REMARK 921   NORMALIZED FREE ENERGY PREDICTED BY IDOCK:   -2.83 KCAL/MOL
REMARK 922        TOTAL FREE ENERGY PREDICTED BY IDOCK:   -4.86 KCAL/MOL
REMARK 923 INTER-LIGAND FREE ENERGY PREDICTED BY IDOCK:   -4.17 KCAL/MOL
REMARK 924 INTRA-LIGAND FREE ENERGY PREDICTED BY IDOCK:   -0.68 KCAL/MOL
REMARK 927      BINDING AFFINITY PREDICTED BY RF-SCORE:    0.00 PKD
ROOT
HETATM    1  C   UNL     1      -6.686   7.022  71.019  1.00  0.00    -0.053 C  
HETATM    2  C   UNL     1      -7.093   8.471  70.803  1.00  0.00    -0.055 C  
ENDROOT
BRANCH   2   3
HETATM    3  C   UNL     1      -8.494   8.738  71.349  1.00  0.00    -0.245 C  
BRANCH   3   4
HETATM    4  C   UNL     1      -8.880   7.715  72.416  1.00  0.00    -0.176 C  
BRANCH   4   5
HETATM    5  C   UNL     1     -10.333   7.899  72.850  1.00  0.00    -0.413 C  
BRANCH   5   6
HETATM    6  C   UNL     1     -11.111   8.730  71.832  1.00  0.00    -0.434 C  
BRANCH   6   7
HETATM    7  C   UNL     1     -12.592   8.806  72.199  1.00  0.00    -0.463 C  
BRANCH   7   8
HETATM    8  C   UNL     1     -13.283   9.936  71.435  1.00  0.00    -0.487 C  
BRANCH   8   9
HETATM    9  C   UNL     1     -12.820  11.306  71.927  1.00  0.00    -0.386 C  
BRANCH   9  10
HETATM   10  C   UNL     1     -12.546  12.241  70.748  1.00  0.00    -0.302 C  
BRANCH  10  11
HETATM   11  C   UNL     1     -12.475  11.474  69.431  1.00  0.00    -0.003 C  
HETATM   12  C   UNL     1     -11.737  12.256  68.369  1.00  0.00    -0.337 C  
HETATM   13  O   UNL     1     -11.667  11.585  67.195  1.00  0.00    -0.567 OA 
HETATM   14  O   UNL     1     -11.248  13.364  68.515  1.00  0.00    -0.252 OA 
ENDBRANCH  10  11
ENDBRANCH   9  10
ENDBRANCH   8   9
ENDBRANCH   7   8
ENDBRANCH   6   7
ENDBRANCH   5   6
ENDBRANCH   4   5
ENDBRANCH   3   4
ENDBRANCH   2   3
TORSDOF 9
ENDMDL
MODEL      224
REMARK 921   NORMALIZED FREE ENERGY PREDICTED BY IDOCK:   -2.81 KCAL/MOL
REMARK 922        TOTAL FREE ENERGY PREDICTED BY IDOCK:   -4.84 KCAL/MOL
REMARK 923 INTER-LIGAND FREE ENERGY PREDICTED BY IDOCK:   -4.05 KCAL/MOL
REMARK 924 INTRA-LIGAND FREE ENERGY PREDICTED BY IDOCK:   -0.78 KCAL/MOL
REMARK 927      BINDING AFFINITY PREDICTED BY RF-SCORE:    0.00 PKD
ROOT
HETATM    1  C   UNL     1     -12.820  13.796  65.593  1.00  0.00    -0.456 C  
HETATM    2  C   UNL     1     -12.030  14.408  64.447  1.00  0.00    -0.471 C  
ENDROOT
BRANCH   2   3
HETATM    3  C   UNL     1     -11.029  13.408  63.871  1.00  0.00    -0.128 C  
BRANCH   3   4
HETATM    4  C   UNL     1     -11.582  11.985  63.906  1.00  0.00    -0.536 C  
BRANCH   4   5
HETATM    5  C   UNL     1     -10.479  10.978  64.228  1.00  0.00    -0.427 C  
BRANCH   5   6
HETATM    6  C   UNL     1     -10.244  10.882  65.734  1.00  0.00    -0.318 C  
BRANCH   6   7
HETATM    7  C   UNL     1      -9.343  12.015  66.226  1.00  0.00    -0.228 C  
BRANCH   7   8
HETATM    8  C   UNL     1      -8.927  11.786  67.678  1.00  0.00    -0.169 C  
BRANCH   8   9
HETATM    9  C   UNL     1      -8.551  13.098  68.364  1.00  0.00    -0.124 C  
BRANCH   9  10
HETATM   10  C   UNL     1      -8.882  14.292  67.468  1.00  0.00    -0.202 C  
BRANCH  10  11
HETATM   11  C   UNL     1     -10.096  15.060  67.984  1.00  0.00    -0.223 C  
HETATM   12  C   UNL     1      -9.710  16.420  68.519  1.00  0.00    -0.228 C  
HETATM   13  O   UNL     1     -10.779  17.111  68.979  1.00  0.00    -0.309 OA 
HETATM   14  O   UNL     1      -8.579  16.875  68.549  1.00  0.00    -0.233 OA 
ENDBRANCH  10  11
ENDBRANCH   9  10
ENDBRANCH   8   9
ENDBRANCH   7   8
ENDBRANCH   6   7
ENDBRANCH   5   6
ENDBRANCH   4   5
ENDBRANCH   3   4
ENDBRANCH   2   3
TORSDOF 9
ENDMDL
MODEL      225
REMARK 921   NORMALIZED FREE ENERGY PREDICTED BY IDOCK:   -2.81 KCAL/MOL
REMARK 922        TOTAL FREE ENERGY PREDICTED BY IDOCK:   -4.83 KCAL/MOL
REMARK 923 INTER-LIGAND FREE ENERGY PREDICTED BY IDOCK:   -4.08 KCAL/MOL
REMARK 924 INTRA-LIGAND FREE ENERGY PREDICTED BY IDOCK:   -0.75 KCAL/MOL
REMARK 927      BINDING AFFINITY PREDICTED BY RF-SCORE:    0.00 PKD
ROOT
HETATM    1  C   UNL     1      -8.517   5.557  66.674  1.00  0.00    -0.112 C  
HETATM    2  C   UNL     1      -8.794   6.724  67.608  1.00  0.00    -0.117 C  
ENDROOT
BRANCH   2   3
HETATM    3  C   UNL     1     -10.294   6.978  67.747  1.00  0.00    -0.255 C  
BRANCH   3   4
HETATM    4  C   UNL     1     -10.652   8.414  67.372  1.00  0.00    -0.313 C  
BRANCH   4   5
HETATM    5  C   UNL     1      -9.630   9.399  67.939  1.00  0.00    -0.155 C  
BRANCH   5   6
HETATM    6  C   UNL     1     -10.248  10.781  68.136  1.00  0.00    -0.194 C  
BRANCH   6   7
HETATM    7  C   UNL     1     -11.548  10.695  68.935  1.00  0.00    -0.320 C  
BRANCH   7   8
HETATM    8  C   UNL     1     -11.260  10.423  70.411  1.00  0.00    -0.399 C  
BRANCH   8   9
HETATM    9  C   UNL     1     -12.542  10.434  71.241  1.00  0.00    -0.525 C  
BRANCH   9  10
HETATM   10  C   UNL     1     -12.887   9.024  71.722  1.00  0.00    -0.437 C  
BRANCH  10  11
HETATM   11  C   UNL     1     -11.635   8.243  72.112  1.00  0.00    -0.428 C  
HETATM   12  C   UNL     1     -11.495   6.974  71.302  1.00  0.00    -0.286 C  
HETATM   13  O   UNL     1     -10.387   6.272  71.639  1.00  0.00    -0.205 OA 
HETATM   14  O   UNL     1     -12.269   6.593  70.440  1.00  0.00    -0.332 OA 
ENDBRANCH  10  11
ENDBRANCH   9  10
ENDBRANCH   8   9
ENDBRANCH   7   8
ENDBRANCH   6   7
ENDBRANCH   5   6
ENDBRANCH   4   5
ENDBRANCH   3   4
ENDBRANCH   2   3
TORSDOF 9
ENDMDL
MODEL      226
REMARK 921   NORMALIZED FREE ENERGY PREDICTED BY IDOCK:   -2.79 KCAL/MOL
REMARK 922        TOTAL FREE ENERGY PREDICTED BY IDOCK:   -4.80 KCAL/MOL
REMARK 923 INTER-LIGAND FREE ENERGY PREDICTED BY IDOCK:   -3.50 KCAL/MOL
REMARK 924 INTRA-LIGAND FREE ENERGY PREDICTED BY IDOCK:   -1.30 KCAL/MOL
REMARK 927      BINDING AFFINITY PREDICTED BY RF-SCORE:    0.00 PKD
ROOT
HETATM    1  C   UNL     1      -7.507   8.347  70.072  1.00  0.00    -0.063 C  
HETATM    2  C   UNL     1      -7.192   6.955  69.548  1.00  0.00    -0.081 C  
ENDROOT
BRANCH   2   3
HETATM    3  C   UNL     1      -7.135   5.936  70.684  1.00  0.00    -0.074 C  
BRANCH   3   4
HETATM    4  C   UNL     1      -8.332   6.081  71.622  1.00  0.00    -0.127 C  
BRANCH   4   5
HETATM    5  C   UNL     1      -9.575   5.421  71.027  1.00  0.00    -0.224 C  
BRANCH   5   6
HETATM    6  C   UNL     1     -10.801   6.319  71.181  1.00  0.00    -0.320 C  
BRANCH   6   7
HETATM    7  C   UNL     1     -11.561   6.446  69.861  1.00  0.00    -0.422 C  
BRANCH   7   8
HETATM    8  C   UNL     1     -10.695   5.982  68.690  1.00  0.00    -0.363 C  
BRANCH   8   9
HETATM    9  C   UNL     1     -10.898   6.866  67.461  1.00  0.00    -0.363 C  
BRANCH   9  10
HETATM   10  C   UNL     1      -9.975   8.083  67.510  1.00  0.00    -0.253 C  
BRANCH  10  11
HETATM   11  C   UNL     1     -10.693   9.350  67.053  1.00  0.00    -0.207 C  
HETATM   12  C   UNL     1     -11.058  10.237  68.221  1.00  0.00    -0.254 C  
HETATM   13  O   UNL     1     -11.696  11.365  67.827  1.00  0.00    -0.533 OA 
HETATM   14  O   UNL     1     -10.824   9.998  69.394  1.00  0.00    -0.217 OA 
ENDBRANCH  10  11
ENDBRANCH   9  10
ENDBRANCH   8   9
ENDBRANCH   7   8
ENDBRANCH   6   7
ENDBRANCH   5   6
ENDBRANCH   4   5
ENDBRANCH   3   4
ENDBRANCH   2   3
TORSDOF 9
ENDMDL
MODEL      227
REMARK 921   NORMALIZED FREE ENERGY PREDICTED BY IDOCK:   -2.77 KCAL/MOL
REMARK 922        TOTAL FREE ENERGY PREDICTED BY IDOCK:   -4.77 KCAL/MOL
REMARK 923 INTER-LIGAND FREE ENERGY PREDICTED BY IDOCK:   -3.88 KCAL/MOL
REMARK 924 INTRA-LIGAND FREE ENERGY PREDICTED BY IDOCK:   -0.89 KCAL/MOL
REMARK 927      BINDING AFFINITY PREDICTED BY RF-SCORE:    0.00 PKD
ROOT
HETATM    1  C   UNL     1      -7.150  16.353  66.941  1.00  0.00    -0.256 C  
HETATM    2  C   UNL     1      -7.905  15.115  67.396  1.00  0.00    -0.224 C  
ENDROOT
BRANCH   2   3
HETATM    3  C   UNL     1      -6.980  13.902  67.477  1.00  0.00    -0.162 C  
BRANCH   3   4
HETATM    4  C   UNL     1      -7.319  13.024  68.680  1.00  0.00    -0.097 C  
BRANCH   4   5
HETATM    5  C   UNL     1      -7.817  11.651  68.232  1.00  0.00    -0.136 C  
BRANCH   5   6
HETATM    6  C   UNL     1      -9.084  11.774  67.387  1.00  0.00    -0.175 C  
BRANCH   6   7
HETATM    7  C   UNL     1     -10.324  11.908  68.270  1.00  0.00    -0.211 C  
BRANCH   7   8
HETATM    8  C   UNL     1     -10.865  13.337  68.231  1.00  0.00    -0.276 C  
BRANCH   8   9
HETATM    9  C   UNL     1     -12.282  13.381  67.660  1.00  0.00    -0.202 C  
BRANCH   9  10
HETATM   10  C   UNL     1     -12.295  14.077  66.299  1.00  0.00    -0.482 C  
BRANCH  10  11
HETATM   11  C   UNL     1     -12.362  13.070  65.155  1.00  0.00    -0.536 C  
HETATM   12  C   UNL     1     -11.091  13.071  64.335  1.00  0.00    -0.370 C  
HETATM   13  O   UNL     1     -11.139  12.180  63.317  1.00  0.00    -0.410 OA 
HETATM   14  O   UNL     1     -10.119  13.779  64.536  1.00  0.00    -0.348 OA 
ENDBRANCH  10  11
ENDBRANCH   9  10
ENDBRANCH   8   9
ENDBRANCH   7   8
ENDBRANCH   6   7
ENDBRANCH   5   6
ENDBRANCH   4   5
ENDBRANCH   3   4
ENDBRANCH   2   3
TORSDOF 9
ENDMDL
MODEL      228
REMARK 921   NORMALIZED FREE ENERGY PREDICTED BY IDOCK:   -2.77 KCAL/MOL
REMARK 922        TOTAL FREE ENERGY PREDICTED BY IDOCK:   -4.77 KCAL/MOL
REMARK 923 INTER-LIGAND FREE ENERGY PREDICTED BY IDOCK:   -3.99 KCAL/MOL
REMARK 924 INTRA-LIGAND FREE ENERGY PREDICTED BY IDOCK:   -0.78 KCAL/MOL
REMARK 927      BINDING AFFINITY PREDICTED BY RF-SCORE:    0.00 PKD
ROOT
HETATM    1  C   UNL     1      -8.683   6.539  66.954  1.00  0.00    -0.115 C  
HETATM    2  C   UNL     1      -9.669   5.454  67.359  1.00  0.00    -0.153 C  
ENDROOT
BRANCH   2   3
HETATM    3  C   UNL     1      -9.299   4.848  68.711  1.00  0.00    -0.184 C  
BRANCH   3   4
HETATM    4  C   UNL     1     -10.405   5.069  69.740  1.00  0.00    -0.286 C  
BRANCH   4   5
HETATM    5  C   UNL     1     -10.072   6.245  70.657  1.00  0.00    -0.230 C  
BRANCH   5   6
HETATM    6  C   UNL     1     -11.076   7.382  70.480  1.00  0.00    -0.280 C  
BRANCH   6   7
HETATM    7  C   UNL     1     -10.377   8.677  70.068  1.00  0.00    -0.213 C  
BRANCH   7   8
HETATM    8  C   UNL     1     -10.636   8.987  68.594  1.00  0.00    -0.194 C  
BRANCH   8   9
HETATM    9  C   UNL     1     -10.474  10.478  68.301  1.00  0.00    -0.211 C  
BRANCH   9  10
HETATM   10  C   UNL     1     -11.792  11.219  68.522  1.00  0.00    -0.355 C  
BRANCH  10  11
HETATM   11  C   UNL     1     -11.646  12.714  68.253  1.00  0.00    -0.377 C  
HETATM   12  C   UNL     1     -11.949  13.055  66.811  1.00  0.00    -0.369 C  
HETATM   13  O   UNL     1     -11.823  14.379  66.561  1.00  0.00    -0.384 OA 
HETATM   14  O   UNL     1     -12.272  12.257  65.947  1.00  0.00    -0.634 OA 
ENDBRANCH  10  11
ENDBRANCH   9  10
ENDBRANCH   8   9
ENDBRANCH   7   8
ENDBRANCH   6   7
ENDBRANCH   5   6
ENDBRANCH   4   5
ENDBRANCH   3   4
ENDBRANCH   2   3
TORSDOF 9
ENDMDL
MODEL      229
REMARK 921   NORMALIZED FREE ENERGY PREDICTED BY IDOCK:   -2.77 KCAL/MOL
REMARK 922        TOTAL FREE ENERGY PREDICTED BY IDOCK:   -4.77 KCAL/MOL
REMARK 923 INTER-LIGAND FREE ENERGY PREDICTED BY IDOCK:   -3.79 KCAL/MOL
REMARK 924 INTRA-LIGAND FREE ENERGY PREDICTED BY IDOCK:   -0.98 KCAL/MOL
REMARK 927      BINDING AFFINITY PREDICTED BY RF-SCORE:    0.00 PKD
ROOT
HETATM    1  C   UNL     1      -6.768  18.831  69.219  1.00  0.00    -0.288 C  
HETATM    2  C   UNL     1      -7.634  19.573  68.213  1.00  0.00    -0.346 C  
ENDROOT
BRANCH   2   3
HETATM    3  C   UNL     1      -9.108  19.517  68.606  1.00  0.00    -0.396 C  
BRANCH   3   4
HETATM    4  C   UNL     1      -9.779  18.254  68.070  1.00  0.00    -0.324 C  
BRANCH   4   5
HETATM    5  C   UNL     1      -9.308  17.946  66.649  1.00  0.00    -0.293 C  
BRANCH   5   6
HETATM    6  C   UNL     1      -9.126  16.443  66.444  1.00  0.00    -0.341 C  
BRANCH   6   7
HETATM    7  C   UNL     1      -7.695  16.013  66.764  1.00  0.00    -0.270 C  
BRANCH   7   8
HETATM    8  C   UNL     1      -7.660  14.567  67.256  1.00  0.00    -0.150 C  
BRANCH   8   9
HETATM    9  C   UNL     1      -9.044  13.923  67.193  1.00  0.00    -0.245 C  
BRANCH   9  10
HETATM   10  C   UNL     1      -9.535  13.554  68.593  1.00  0.00    -0.057 C  
BRANCH  10  11
HETATM   11  C   UNL     1     -10.431  14.643  69.177  1.00  0.00    -0.239 C  
HETATM   12  C   UNL     1     -11.801  14.110  69.529  1.00  0.00    -0.322 C  
HETATM   13  O   UNL     1     -12.605  15.068  70.049  1.00  0.00    -0.292 OA 
HETATM   14  O   UNL     1     -12.175  12.959  69.376  1.00  0.00    -0.221 OA 
ENDBRANCH  10  11
ENDBRANCH   9  10
ENDBRANCH   8   9
ENDBRANCH   7   8
ENDBRANCH   6   7
ENDBRANCH   5   6
ENDBRANCH   4   5
ENDBRANCH   3   4
ENDBRANCH   2   3
TORSDOF 9
ENDMDL
MODEL      230
REMARK 921   NORMALIZED FREE ENERGY PREDICTED BY IDOCK:   -2.76 KCAL/MOL
REMARK 922        TOTAL FREE ENERGY PREDICTED BY IDOCK:   -4.76 KCAL/MOL
REMARK 923 INTER-LIGAND FREE ENERGY PREDICTED BY IDOCK:   -3.98 KCAL/MOL
REMARK 924 INTRA-LIGAND FREE ENERGY PREDICTED BY IDOCK:   -0.77 KCAL/MOL
REMARK 927      BINDING AFFINITY PREDICTED BY RF-SCORE:    0.00 PKD
ROOT
HETATM    1  C   UNL     1      -8.916   8.690  71.530  1.00  0.00    -0.302 C  
HETATM    2  C   UNL     1     -10.367   9.143  71.529  1.00  0.00    -0.414 C  
ENDROOT
BRANCH   2   3
HETATM    3  C   UNL     1     -11.022   8.892  70.172  1.00  0.00    -0.245 C  
BRANCH   3   4
HETATM    4  C   UNL     1     -10.819   7.450  69.714  1.00  0.00    -0.246 C  
BRANCH   4   5
HETATM    5  C   UNL     1     -10.484   7.391  68.225  1.00  0.00    -0.231 C  
BRANCH   5   6
HETATM    6  C   UNL     1      -9.587   8.557  67.816  1.00  0.00    -0.185 C  
BRANCH   6   7
HETATM    7  C   UNL     1      -9.723   8.860  66.324  1.00  0.00    -0.345 C  
BRANCH   7   8
HETATM    8  C   UNL     1     -10.156  10.308  66.102  1.00  0.00    -0.307 C  
BRANCH   8   9
HETATM    9  C   UNL     1      -9.381  11.268  67.003  1.00  0.00    -0.183 C  
BRANCH   9  10
HETATM   10  C   UNL     1      -9.840  12.709  66.782  1.00  0.00    -0.236 C  
BRANCH  10  11
HETATM   11  C   UNL     1     -10.345  13.341  68.076  1.00  0.00    -0.243 C  
HETATM   12  C   UNL     1     -11.731  13.922  67.910  1.00  0.00    -0.361 C  
HETATM   13  O   UNL     1     -12.190  14.485  69.052  1.00  0.00    -0.275 OA 
HETATM   14  O   UNL     1     -12.389  13.905  66.883  1.00  0.00    -0.410 OA 
ENDBRANCH  10  11
ENDBRANCH   9  10
ENDBRANCH   8   9
ENDBRANCH   7   8
ENDBRANCH   6   7
ENDBRANCH   5   6
ENDBRANCH   4   5
ENDBRANCH   3   4
ENDBRANCH   2   3
TORSDOF 9
ENDMDL
MODEL      231
REMARK 921   NORMALIZED FREE ENERGY PREDICTED BY IDOCK:   -2.75 KCAL/MOL
REMARK 922        TOTAL FREE ENERGY PREDICTED BY IDOCK:   -4.75 KCAL/MOL
REMARK 923 INTER-LIGAND FREE ENERGY PREDICTED BY IDOCK:   -4.33 KCAL/MOL
REMARK 924 INTRA-LIGAND FREE ENERGY PREDICTED BY IDOCK:   -0.42 KCAL/MOL
REMARK 927      BINDING AFFINITY PREDICTED BY RF-SCORE:    0.00 PKD
ROOT
HETATM    1  C   UNL     1     -12.612  12.955  64.773  1.00  0.00    -0.493 C  
HETATM    2  C   UNL     1     -12.165  11.899  63.775  1.00  0.00    -0.549 C  
ENDROOT
BRANCH   2   3
HETATM    3  C   UNL     1     -10.670  12.014  63.481  1.00  0.00    -0.513 C  
BRANCH   3   4
HETATM    4  C   UNL     1      -9.933  10.724  63.833  1.00  0.00    -0.404 C  
BRANCH   4   5
HETATM    5  C   UNL     1      -9.425  10.759  65.274  1.00  0.00    -0.263 C  
BRANCH   5   6
HETATM    6  C   UNL     1      -8.033  10.140  65.382  1.00  0.00    -0.144 C  
BRANCH   6   7
HETATM    7  C   UNL     1      -7.953   9.166  66.557  1.00  0.00    -0.100 C  
BRANCH   7   8
HETATM    8  C   UNL     1      -8.896   9.593  67.681  1.00  0.00    -0.127 C  
BRANCH   8   9
HETATM    9  C   UNL     1      -9.921   8.504  67.993  1.00  0.00    -0.221 C  
BRANCH   9  10
HETATM   10  C   UNL     1     -10.761   8.885  69.213  1.00  0.00    -0.177 C  
BRANCH  10  11
HETATM   11  C   UNL     1     -10.457  10.305  69.680  1.00  0.00    -0.286 C  
HETATM   12  C   UNL     1     -11.374  11.315  69.028  1.00  0.00    -0.278 C  
HETATM   13  O   UNL     1     -11.114  12.580  69.436  1.00  0.00    -0.188 OA 
HETATM   14  O   UNL     1     -12.254  11.059  68.224  1.00  0.00    -0.582 OA 
ENDBRANCH  10  11
ENDBRANCH   9  10
ENDBRANCH   8   9
ENDBRANCH   7   8
ENDBRANCH   6   7
ENDBRANCH   5   6
ENDBRANCH   4   5
ENDBRANCH   3   4
ENDBRANCH   2   3
TORSDOF 9
ENDMDL
MODEL      232
REMARK 921   NORMALIZED FREE ENERGY PREDICTED BY IDOCK:   -2.74 KCAL/MOL
REMARK 922        TOTAL FREE ENERGY PREDICTED BY IDOCK:   -4.73 KCAL/MOL
REMARK 923 INTER-LIGAND FREE ENERGY PREDICTED BY IDOCK:   -4.18 KCAL/MOL
REMARK 924 INTRA-LIGAND FREE ENERGY PREDICTED BY IDOCK:   -0.54 KCAL/MOL
REMARK 927      BINDING AFFINITY PREDICTED BY RF-SCORE:    0.00 PKD
ROOT
HETATM    1  C   UNL     1     -10.821   6.530  67.188  1.00  0.00    -0.472 C  
HETATM    2  C   UNL     1     -10.204   6.513  68.577  1.00  0.00    -0.190 C  
ENDROOT
BRANCH   2   3
HETATM    3  C   UNL     1     -10.831   7.579  69.473  1.00  0.00    -0.184 C  
BRANCH   3   4
HETATM    4  C   UNL     1      -9.834   8.688  69.799  1.00  0.00    -0.183 C  
BRANCH   4   5
HETATM    5  C   UNL     1     -10.488  10.064  69.681  1.00  0.00    -0.275 C  
BRANCH   5   6
HETATM    6  C   UNL     1     -11.320  10.170  68.405  1.00  0.00    -0.179 C  
BRANCH   6   7
HETATM    7  C   UNL     1     -11.896  11.575  68.237  1.00  0.00    -0.327 C  
BRANCH   7   8
HETATM    8  C   UNL     1     -11.652  12.096  66.821  1.00  0.00    -0.412 C  
BRANCH   8   9
HETATM    9  C   UNL     1     -10.956  13.456  66.839  1.00  0.00    -0.295 C  
BRANCH   9  10
HETATM   10  C   UNL     1     -11.937  14.561  67.232  1.00  0.00    -0.375 C  
BRANCH  10  11
HETATM   11  C   UNL     1     -11.370  15.446  68.338  1.00  0.00    -0.345 C  
HETATM   12  C   UNL     1     -10.719  16.691  67.779  1.00  0.00    -0.327 C  
HETATM   13  O   UNL     1     -10.214  17.485  68.753  1.00  0.00    -0.344 OA 
HETATM   14  O   UNL     1     -10.640  16.980  66.597  1.00  0.00    -0.279 OA 
ENDBRANCH  10  11
ENDBRANCH   9  10
ENDBRANCH   8   9
ENDBRANCH   7   8
ENDBRANCH   6   7
ENDBRANCH   5   6
ENDBRANCH   4   5
ENDBRANCH   3   4
ENDBRANCH   2   3
TORSDOF 9
ENDMDL
MODEL      233
REMARK 921   NORMALIZED FREE ENERGY PREDICTED BY IDOCK:   -2.73 KCAL/MOL
REMARK 922        TOTAL FREE ENERGY PREDICTED BY IDOCK:   -4.72 KCAL/MOL
REMARK 923 INTER-LIGAND FREE ENERGY PREDICTED BY IDOCK:   -3.79 KCAL/MOL
REMARK 924 INTRA-LIGAND FREE ENERGY PREDICTED BY IDOCK:   -0.93 KCAL/MOL
REMARK 927      BINDING AFFINITY PREDICTED BY RF-SCORE:    0.00 PKD
ROOT
HETATM    1  C   UNL     1      -9.465   3.599  66.717  1.00  0.00    -0.203 C  
HETATM    2  C   UNL     1      -9.302   2.756  67.971  1.00  0.00    -0.257 C  
ENDROOT
BRANCH   2   3
HETATM    3  C   UNL     1      -8.579   3.532  69.069  1.00  0.00    -0.119 C  
BRANCH   3   4
HETATM    4  C   UNL     1      -9.565   4.111  70.082  1.00  0.00    -0.272 C  
BRANCH   4   5
HETATM    5  C   UNL     1      -9.712   5.621  69.902  1.00  0.00    -0.222 C  
BRANCH   5   6
HETATM    6  C   UNL     1     -11.136   5.990  69.492  1.00  0.00    -0.468 C  
BRANCH   6   7
HETATM    7  C   UNL     1     -11.846   6.764  70.601  1.00  0.00    -0.442 C  
BRANCH   7   8
HETATM    8  C   UNL     1     -11.336   8.203  70.670  1.00  0.00    -0.256 C  
BRANCH   8   9
HETATM    9  C   UNL     1     -11.104   8.645  72.114  1.00  0.00    -0.434 C  
BRANCH   9  10
HETATM   10  C   UNL     1     -10.877   7.435  73.021  1.00  0.00    -0.423 C  
BRANCH  10  11
HETATM   11  C   UNL     1      -9.507   7.488  73.692  1.00  0.00    -0.338 C  
HETATM   12  C   UNL     1      -8.922   6.106  73.874  1.00  0.00    -0.128 C  
HETATM   13  O   UNL     1      -7.705   6.141  74.468  1.00  0.00    -0.099 OA 
HETATM   14  O   UNL     1      -9.453   5.061  73.539  1.00  0.00    -0.132 OA 
ENDBRANCH  10  11
ENDBRANCH   9  10
ENDBRANCH   8   9
ENDBRANCH   7   8
ENDBRANCH   6   7
ENDBRANCH   5   6
ENDBRANCH   4   5
ENDBRANCH   3   4
ENDBRANCH   2   3
TORSDOF 9
ENDMDL
MODEL      234
REMARK 921   NORMALIZED FREE ENERGY PREDICTED BY IDOCK:   -2.73 KCAL/MOL
REMARK 922        TOTAL FREE ENERGY PREDICTED BY IDOCK:   -4.71 KCAL/MOL
REMARK 923 INTER-LIGAND FREE ENERGY PREDICTED BY IDOCK:   -3.16 KCAL/MOL
REMARK 924 INTRA-LIGAND FREE ENERGY PREDICTED BY IDOCK:   -1.55 KCAL/MOL
REMARK 927      BINDING AFFINITY PREDICTED BY RF-SCORE:    0.00 PKD
ROOT
HETATM    1  C   UNL     1      -7.626   7.102  70.766  1.00  0.00    -0.089 C  
HETATM    2  C   UNL     1      -7.923   6.803  69.305  1.00  0.00    -0.115 C  
ENDROOT
BRANCH   2   3
HETATM    3  C   UNL     1      -9.092   5.830  69.167  1.00  0.00    -0.126 C  
BRANCH   3   4
HETATM    4  C   UNL     1      -9.672   5.461  70.530  1.00  0.00    -0.246 C  
BRANCH   4   5
HETATM    5  C   UNL     1     -11.103   5.978  70.675  1.00  0.00    -0.371 C  
BRANCH   5   6
HETATM    6  C   UNL     1     -11.324   6.608  72.049  1.00  0.00    -0.317 C  
BRANCH   6   7
HETATM    7  C   UNL     1     -11.013   8.104  72.026  1.00  0.00    -0.350 C  
BRANCH   7   8
HETATM    8  C   UNL     1     -11.217   8.679  70.626  1.00  0.00    -0.284 C  
BRANCH   8   9
HETATM    9  C   UNL     1     -10.289   9.865  70.369  1.00  0.00    -0.322 C  
BRANCH   9  10
HETATM   10  C   UNL     1     -10.320  10.268  68.894  1.00  0.00    -0.221 C  
BRANCH  10  11
HETATM   11  C   UNL     1     -10.508   9.056  67.986  1.00  0.00    -0.270 C  
HETATM   12  C   UNL     1      -9.441   8.990  66.917  1.00  0.00    -0.167 C  
HETATM   13  O   UNL     1      -9.597   7.917  66.105  1.00  0.00    -0.159 OA 
HETATM   14  O   UNL     1      -8.532   9.790  66.771  1.00  0.00    -0.123 OA 
ENDBRANCH  10  11
ENDBRANCH   9  10
ENDBRANCH   8   9
ENDBRANCH   7   8
ENDBRANCH   6   7
ENDBRANCH   5   6
ENDBRANCH   4   5
ENDBRANCH   3   4
ENDBRANCH   2   3
TORSDOF 9
ENDMDL
MODEL      235
REMARK 921   NORMALIZED FREE ENERGY PREDICTED BY IDOCK:   -2.72 KCAL/MOL
REMARK 922        TOTAL FREE ENERGY PREDICTED BY IDOCK:   -4.69 KCAL/MOL
REMARK 923 INTER-LIGAND FREE ENERGY PREDICTED BY IDOCK:   -3.60 KCAL/MOL
REMARK 924 INTRA-LIGAND FREE ENERGY PREDICTED BY IDOCK:   -1.09 KCAL/MOL
REMARK 927      BINDING AFFINITY PREDICTED BY RF-SCORE:    0.00 PKD
ROOT
HETATM    1  C   UNL     1      -6.422  11.454  69.940  1.00  0.00    -0.118 C  
HETATM    2  C   UNL     1      -7.326  10.242  70.098  1.00  0.00    -0.115 C  
ENDROOT
BRANCH   2   3
HETATM    3  C   UNL     1      -8.379  10.190  68.993  1.00  0.00    -0.138 C  
BRANCH   3   4
HETATM    4  C   UNL     1      -8.894  11.586  68.650  1.00  0.00    -0.108 C  
BRANCH   4   5
HETATM    5  C   UNL     1     -10.419  11.597  68.552  1.00  0.00    -0.236 C  
BRANCH   5   6
HETATM    6  C   UNL     1     -11.020  10.344  69.185  1.00  0.00    -0.285 C  
BRANCH   6   7
HETATM    7  C   UNL     1     -11.768  10.682  70.475  1.00  0.00    -0.451 C  
BRANCH   7   8
HETATM    8  C   UNL     1     -11.545   9.600  71.530  1.00  0.00    -0.451 C  
BRANCH   8   9
HETATM    9  C   UNL     1     -11.312   8.233  70.888  1.00  0.00    -0.292 C  
BRANCH   9  10
HETATM   10  C   UNL     1     -10.319   7.411  71.711  1.00  0.00    -0.215 C  
BRANCH  10  11
HETATM   11  C   UNL     1      -9.193   8.280  72.262  1.00  0.00    -0.297 C  
HETATM   12  C   UNL     1      -8.817   7.880  73.671  1.00  0.00    -0.274 C  
HETATM   13  O   UNL     1      -7.817   8.644  74.170  1.00  0.00    -0.398 OA 
HETATM   14  O   UNL     1      -9.331   6.979  74.313  1.00  0.00    -0.218 OA 
ENDBRANCH  10  11
ENDBRANCH   9  10
ENDBRANCH   8   9
ENDBRANCH   7   8
ENDBRANCH   6   7
ENDBRANCH   5   6
ENDBRANCH   4   5
ENDBRANCH   3   4
ENDBRANCH   2   3
TORSDOF 9
ENDMDL
MODEL      236
REMARK 921   NORMALIZED FREE ENERGY PREDICTED BY IDOCK:   -2.70 KCAL/MOL
REMARK 922        TOTAL FREE ENERGY PREDICTED BY IDOCK:   -4.67 KCAL/MOL
REMARK 923 INTER-LIGAND FREE ENERGY PREDICTED BY IDOCK:   -3.48 KCAL/MOL
REMARK 924 INTRA-LIGAND FREE ENERGY PREDICTED BY IDOCK:   -1.19 KCAL/MOL
REMARK 927      BINDING AFFINITY PREDICTED BY RF-SCORE:    0.00 PKD
ROOT
HETATM    1  C   UNL     1     -11.616  11.497  67.982  1.00  0.00    -0.370 C  
HETATM    2  C   UNL     1     -11.685  12.380  66.746  1.00  0.00    -0.430 C  
ENDROOT
BRANCH   2   3
HETATM    3  C   UNL     1     -12.012  13.825  67.118  1.00  0.00    -0.442 C  
BRANCH   3   4
HETATM    4  C   UNL     1     -11.797  14.078  68.608  1.00  0.00    -0.396 C  
BRANCH   4   5
HETATM    5  C   UNL     1     -11.933  15.565  68.936  1.00  0.00    -0.306 C  
BRANCH   5   6
HETATM    6  C   UNL     1     -10.664  16.101  69.593  1.00  0.00    -0.325 C  
BRANCH   6   7
HETATM    7  C   UNL     1      -9.502  16.138  68.601  1.00  0.00    -0.227 C  
BRANCH   7   8
HETATM    8  C   UNL     1      -8.217  15.625  69.251  1.00  0.00    -0.253 C  
BRANCH   8   9
HETATM    9  C   UNL     1      -7.508  14.608  68.360  1.00  0.00    -0.117 C  
BRANCH   9  10
HETATM   10  C   UNL     1      -8.218  13.254  68.412  1.00  0.00    -0.134 C  
BRANCH  10  11
HETATM   11  C   UNL     1      -8.114  12.516  67.081  1.00  0.00    -0.156 C  
HETATM   12  C   UNL     1      -7.098  11.397  67.141  1.00  0.00    -0.134 C  
HETATM   13  O   UNL     1      -6.999  10.734  65.964  1.00  0.00    -0.131 OA 
HETATM   14  O   UNL     1      -6.428  11.099  68.115  1.00  0.00    -0.056 OA 
ENDBRANCH  10  11
ENDBRANCH   9  10
ENDBRANCH   8   9
ENDBRANCH   7   8
ENDBRANCH   6   7
ENDBRANCH   5   6
ENDBRANCH   4   5
ENDBRANCH   3   4
ENDBRANCH   2   3
TORSDOF 9
ENDMDL
MODEL      237
REMARK 921   NORMALIZED FREE ENERGY PREDICTED BY IDOCK:   -2.70 KCAL/MOL
REMARK 922        TOTAL FREE ENERGY PREDICTED BY IDOCK:   -4.66 KCAL/MOL
REMARK 923 INTER-LIGAND FREE ENERGY PREDICTED BY IDOCK:   -4.04 KCAL/MOL
REMARK 924 INTRA-LIGAND FREE ENERGY PREDICTED BY IDOCK:   -0.62 KCAL/MOL
REMARK 927      BINDING AFFINITY PREDICTED BY RF-SCORE:    0.00 PKD
ROOT
HETATM    1  C   UNL     1      -6.339  15.456  67.495  1.00  0.00    -0.148 C  
HETATM    2  C   UNL     1      -7.535  14.518  67.461  1.00  0.00    -0.216 C  
ENDROOT
BRANCH   2   3
HETATM    3  C   UNL     1      -7.105  13.066  67.665  1.00  0.00    -0.156 C  
BRANCH   3   4
HETATM    4  C   UNL     1      -8.294  12.179  68.025  1.00  0.00    -0.167 C  
BRANCH   4   5
HETATM    5  C   UNL     1      -8.712  11.315  66.837  1.00  0.00    -0.157 C  
BRANCH   5   6
HETATM    6  C   UNL     1      -9.893  11.936  66.093  1.00  0.00    -0.254 C  
BRANCH   6   7
HETATM    7  C   UNL     1     -11.223  11.482  66.693  1.00  0.00    -0.336 C  
BRANCH   7   8
HETATM    8  C   UNL     1     -11.760  12.524  67.673  1.00  0.00    -0.423 C  
BRANCH   8   9
HETATM    9  C   UNL     1     -11.811  13.913  67.038  1.00  0.00    -0.447 C  
BRANCH   9  10
HETATM   10  C   UNL     1     -10.813  14.854  67.714  1.00  0.00    -0.286 C  
BRANCH  10  11
HETATM   11  C   UNL     1     -11.033  16.302  67.289  1.00  0.00    -0.144 C  
HETATM   12  C   UNL     1     -10.484  16.567  65.905  1.00  0.00    -0.323 C  
HETATM   13  O   UNL     1     -10.674  17.850  65.516  1.00  0.00    -0.585 OA 
HETATM   14  O   UNL     1      -9.929  15.746  65.193  1.00  0.00    -0.393 OA 
ENDBRANCH  10  11
ENDBRANCH   9  10
ENDBRANCH   8   9
ENDBRANCH   7   8
ENDBRANCH   6   7
ENDBRANCH   5   6
ENDBRANCH   4   5
ENDBRANCH   3   4
ENDBRANCH   2   3
TORSDOF 9
ENDMDL
MODEL      238
REMARK 921   NORMALIZED FREE ENERGY PREDICTED BY IDOCK:   -2.69 KCAL/MOL
REMARK 922        TOTAL FREE ENERGY PREDICTED BY IDOCK:   -4.65 KCAL/MOL
REMARK 923 INTER-LIGAND FREE ENERGY PREDICTED BY IDOCK:   -3.94 KCAL/MOL
REMARK 924 INTRA-LIGAND FREE ENERGY PREDICTED BY IDOCK:   -0.71 KCAL/MOL
REMARK 927      BINDING AFFINITY PREDICTED BY RF-SCORE:    0.00 PKD
ROOT
HETATM    1  C   UNL     1      -7.568  14.255  68.494  1.00  0.00    -0.127 C  
HETATM    2  C   UNL     1      -8.551  13.562  67.565  1.00  0.00    -0.193 C  
ENDROOT
BRANCH   2   3
HETATM    3  C   UNL     1      -9.613  14.536  67.059  1.00  0.00    -0.250 C  
BRANCH   3   4
HETATM    4  C   UNL     1     -10.939  14.342  67.792  1.00  0.00    -0.283 C  
BRANCH   4   5
HETATM    5  C   UNL     1     -10.944  13.032  68.578  1.00  0.00    -0.290 C  
BRANCH   5   6
HETATM    6  C   UNL     1     -11.685  11.936  67.815  1.00  0.00    -0.362 C  
BRANCH   6   7
HETATM    7  C   UNL     1     -11.408  10.560  68.419  1.00  0.00    -0.328 C  
BRANCH   7   8
HETATM    8  C   UNL     1      -9.988  10.491  68.981  1.00  0.00    -0.223 C  
BRANCH   8   9
HETATM    9  C   UNL     1      -9.960   9.798  70.342  1.00  0.00    -0.294 C  
BRANCH   9  10
HETATM   10  C   UNL     1     -11.363   9.342  70.747  1.00  0.00    -0.363 C  
BRANCH  10  11
HETATM   11  C   UNL     1     -11.477   7.821  70.755  1.00  0.00    -0.285 C  
HETATM   12  C   UNL     1     -11.362   7.259  72.154  1.00  0.00    -0.265 C  
HETATM   13  O   UNL     1     -11.463   5.909  72.173  1.00  0.00    -0.291 OA 
HETATM   14  O   UNL     1     -11.198   7.914  73.169  1.00  0.00    -0.382 OA 
ENDBRANCH  10  11
ENDBRANCH   9  10
ENDBRANCH   8   9
ENDBRANCH   7   8
ENDBRANCH   6   7
ENDBRANCH   5   6
ENDBRANCH   4   5
ENDBRANCH   3   4
ENDBRANCH   2   3
TORSDOF 9
ENDMDL
MODEL      239
REMARK 921   NORMALIZED FREE ENERGY PREDICTED BY IDOCK:   -2.68 KCAL/MOL
REMARK 922        TOTAL FREE ENERGY PREDICTED BY IDOCK:   -4.63 KCAL/MOL
REMARK 923 INTER-LIGAND FREE ENERGY PREDICTED BY IDOCK:   -3.65 KCAL/MOL
REMARK 924 INTRA-LIGAND FREE ENERGY PREDICTED BY IDOCK:   -0.98 KCAL/MOL
REMARK 927      BINDING AFFINITY PREDICTED BY RF-SCORE:    0.00 PKD
ROOT
HETATM    1  C   UNL     1     -10.108  11.329  68.569  1.00  0.00    -0.210 C  
HETATM    2  C   UNL     1     -10.863  10.612  69.676  1.00  0.00    -0.318 C  
ENDROOT
BRANCH   2   3
HETATM    3  C   UNL     1     -12.339  11.005  69.684  1.00  0.00    -0.303 C  
BRANCH   3   4
HETATM    4  C   UNL     1     -12.727  11.682  70.997  1.00  0.00    -0.395 C  
BRANCH   4   5
HETATM    5  C   UNL     1     -13.403  10.692  71.944  1.00  0.00    -0.454 C  
BRANCH   5   6
HETATM    6  C   UNL     1     -13.769   9.398  71.218  1.00  0.00    -0.248 C  
BRANCH   6   7
HETATM    7  C   UNL     1     -13.270   8.175  71.988  1.00  0.00    -0.306 C  
BRANCH   7   8
HETATM    8  C   UNL     1     -11.789   7.925  71.708  1.00  0.00    -0.333 C  
BRANCH   8   9
HETATM    9  C   UNL     1     -11.596   6.828  70.663  1.00  0.00    -0.422 C  
BRANCH   9  10
HETATM   10  C   UNL     1     -10.237   6.968  69.975  1.00  0.00    -0.206 C  
BRANCH  10  11
HETATM   11  C   UNL     1      -9.183   7.528  70.926  1.00  0.00    -0.153 C  
HETATM   12  C   UNL     1      -8.162   6.480  71.307  1.00  0.00    -0.121 C  
HETATM   13  O   UNL     1      -7.221   6.967  72.150  1.00  0.00    -0.080 OA 
HETATM   14  O   UNL     1      -8.155   5.324  70.921  1.00  0.00    -0.102 OA 
ENDBRANCH  10  11
ENDBRANCH   9  10
ENDBRANCH   8   9
ENDBRANCH   7   8
ENDBRANCH   6   7
ENDBRANCH   5   6
ENDBRANCH   4   5
ENDBRANCH   3   4
ENDBRANCH   2   3
TORSDOF 9
ENDMDL
MODEL      240
REMARK 921   NORMALIZED FREE ENERGY PREDICTED BY IDOCK:   -2.66 KCAL/MOL
REMARK 922        TOTAL FREE ENERGY PREDICTED BY IDOCK:   -4.60 KCAL/MOL
REMARK 923 INTER-LIGAND FREE ENERGY PREDICTED BY IDOCK:   -3.55 KCAL/MOL
REMARK 924 INTRA-LIGAND FREE ENERGY PREDICTED BY IDOCK:   -1.05 KCAL/MOL
REMARK 927      BINDING AFFINITY PREDICTED BY RF-SCORE:    0.00 PKD
ROOT
HETATM    1  C   UNL     1      -6.260  13.459  69.634  1.00  0.00    -0.120 C  
HETATM    2  C   UNL     1      -6.452  12.983  68.204  1.00  0.00    -0.100 C  
ENDROOT
BRANCH   2   3
HETATM    3  C   UNL     1      -7.805  12.298  68.026  1.00  0.00    -0.147 C  
BRANCH   3   4
HETATM    4  C   UNL     1      -7.752  10.837  68.467  1.00  0.00    -0.118 C  
BRANCH   4   5
HETATM    5  C   UNL     1      -8.988  10.467  69.286  1.00  0.00    -0.148 C  
BRANCH   5   6
HETATM    6  C   UNL     1      -9.525   9.096  68.881  1.00  0.00    -0.151 C  
BRANCH   6   7
HETATM    7  C   UNL     1      -9.157   8.764  67.436  1.00  0.00    -0.147 C  
BRANCH   7   8
HETATM    8  C   UNL     1     -10.269   9.196  66.480  1.00  0.00    -0.322 C  
BRANCH   8   9
HETATM    9  C   UNL     1      -9.704   9.904  65.250  1.00  0.00    -0.383 C  
BRANCH   9  10
HETATM   10  C   UNL     1     -10.541  11.135  64.902  1.00  0.00    -0.356 C  
BRANCH  10  11
HETATM   11  C   UNL     1     -11.042  11.845  66.157  1.00  0.00    -0.374 C  
HETATM   12  C   UNL     1     -11.972  12.988  65.818  1.00  0.00    -0.429 C  
HETATM   13  O   UNL     1     -12.424  13.625  66.924  1.00  0.00    -0.320 OA 
HETATM   14  O   UNL     1     -12.298  13.327  64.693  1.00  0.00    -0.432 OA 
ENDBRANCH  10  11
ENDBRANCH   9  10
ENDBRANCH   8   9
ENDBRANCH   7   8
ENDBRANCH   6   7
ENDBRANCH   5   6
ENDBRANCH   4   5
ENDBRANCH   3   4
ENDBRANCH   2   3
TORSDOF 9
ENDMDL
MODEL      241
REMARK 921   NORMALIZED FREE ENERGY PREDICTED BY IDOCK:   -2.65 KCAL/MOL
REMARK 922        TOTAL FREE ENERGY PREDICTED BY IDOCK:   -4.58 KCAL/MOL
REMARK 923 INTER-LIGAND FREE ENERGY PREDICTED BY IDOCK:   -3.75 KCAL/MOL
REMARK 924 INTRA-LIGAND FREE ENERGY PREDICTED BY IDOCK:   -0.83 KCAL/MOL
REMARK 927      BINDING AFFINITY PREDICTED BY RF-SCORE:    0.00 PKD
ROOT
HETATM    1  C   UNL     1     -11.360  11.671  63.283  1.00  0.00    -0.288 C  
HETATM    2  C   UNL     1     -10.020  11.039  63.623  1.00  0.00    -0.415 C  
ENDROOT
BRANCH   2   3
HETATM    3  C   UNL     1      -9.987  10.560  65.073  1.00  0.00    -0.388 C  
BRANCH   3   4
HETATM    4  C   UNL     1      -8.559  10.518  65.613  1.00  0.00    -0.182 C  
BRANCH   4   5
HETATM    5  C   UNL     1      -8.538  10.750  67.123  1.00  0.00    -0.128 C  
BRANCH   5   6
HETATM    6  C   UNL     1      -7.158  11.210  67.589  1.00  0.00    -0.089 C  
BRANCH   6   7
HETATM    7  C   UNL     1      -7.102  12.730  67.730  1.00  0.00    -0.132 C  
BRANCH   7   8
HETATM    8  C   UNL     1      -8.507  13.314  67.869  1.00  0.00    -0.177 C  
BRANCH   8   9
HETATM    9  C   UNL     1      -8.731  14.469  66.894  1.00  0.00    -0.237 C  
BRANCH   9  10
HETATM   10  C   UNL     1     -10.137  15.049  67.056  1.00  0.00    -0.244 C  
BRANCH  10  11
HETATM   11  C   UNL     1     -11.107  14.459  66.035  1.00  0.00    -0.324 C  
HETATM   12  C   UNL     1     -12.004  13.414  66.657  1.00  0.00    -0.399 C  
HETATM   13  O   UNL     1     -12.870  12.885  65.760  1.00  0.00    -0.403 OA 
HETATM   14  O   UNL     1     -11.981  13.063  67.825  1.00  0.00    -0.348 OA 
ENDBRANCH  10  11
ENDBRANCH   9  10
ENDBRANCH   8   9
ENDBRANCH   7   8
ENDBRANCH   6   7
ENDBRANCH   5   6
ENDBRANCH   4   5
ENDBRANCH   3   4
ENDBRANCH   2   3
TORSDOF 9
ENDMDL
MODEL      242
REMARK 921   NORMALIZED FREE ENERGY PREDICTED BY IDOCK:   -2.64 KCAL/MOL
REMARK 922        TOTAL FREE ENERGY PREDICTED BY IDOCK:   -4.58 KCAL/MOL
REMARK 923 INTER-LIGAND FREE ENERGY PREDICTED BY IDOCK:   -3.43 KCAL/MOL
REMARK 924 INTRA-LIGAND FREE ENERGY PREDICTED BY IDOCK:   -1.14 KCAL/MOL
REMARK 927      BINDING AFFINITY PREDICTED BY RF-SCORE:    0.00 PKD
ROOT
HETATM    1  C   UNL     1      -6.896   6.053  68.862  1.00  0.00    -0.066 C  
HETATM    2  C   UNL     1      -7.402   6.810  70.079  1.00  0.00    -0.085 C  
ENDROOT
BRANCH   2   3
HETATM    3  C   UNL     1      -7.712   8.265  69.736  1.00  0.00    -0.098 C  
BRANCH   3   4
HETATM    4  C   UNL     1      -8.065   8.426  68.259  1.00  0.00    -0.120 C  
BRANCH   4   5
HETATM    5  C   UNL     1      -9.570   8.281  68.038  1.00  0.00    -0.171 C  
BRANCH   5   6
HETATM    6  C   UNL     1      -9.876   7.138  67.073  1.00  0.00    -0.257 C  
BRANCH   6   7
HETATM    7  C   UNL     1     -11.010   6.260  67.600  1.00  0.00    -0.438 C  
BRANCH   7   8
HETATM    8  C   UNL     1     -11.378   6.650  69.031  1.00  0.00    -0.235 C  
BRANCH   8   9
HETATM    9  C   UNL     1     -10.921   5.592  70.034  1.00  0.00    -0.205 C  
BRANCH   9  10
HETATM   10  C   UNL     1     -11.124   6.081  71.468  1.00  0.00    -0.336 C  
BRANCH  10  11
HETATM   11  C   UNL     1     -12.271   7.084  71.561  1.00  0.00    -0.407 C  
HETATM   12  C   UNL     1     -11.768   8.481  71.844  1.00  0.00    -0.341 C  
HETATM   13  O   UNL     1     -12.778   9.380  71.928  1.00  0.00    -0.349 OA 
HETATM   14  O   UNL     1     -10.600   8.799  71.987  1.00  0.00    -0.324 OA 
ENDBRANCH  10  11
ENDBRANCH   9  10
ENDBRANCH   8   9
ENDBRANCH   7   8
ENDBRANCH   6   7
ENDBRANCH   5   6
ENDBRANCH   4   5
ENDBRANCH   3   4
ENDBRANCH   2   3
TORSDOF 9
ENDMDL
MODEL      243
REMARK 921   NORMALIZED FREE ENERGY PREDICTED BY IDOCK:   -2.64 KCAL/MOL
REMARK 922        TOTAL FREE ENERGY PREDICTED BY IDOCK:   -4.58 KCAL/MOL
REMARK 923 INTER-LIGAND FREE ENERGY PREDICTED BY IDOCK:   -4.19 KCAL/MOL
REMARK 924 INTRA-LIGAND FREE ENERGY PREDICTED BY IDOCK:   -0.38 KCAL/MOL
REMARK 927      BINDING AFFINITY PREDICTED BY RF-SCORE:    0.00 PKD
ROOT
HETATM    1  C   UNL     1     -10.392   9.051  67.285  1.00  0.00    -0.342 C  
HETATM    2  C   UNL     1      -9.612   9.057  65.980  1.00  0.00    -0.342 C  
ENDROOT
BRANCH   2   3
HETATM    3  C   UNL     1      -9.934  10.297  65.149  1.00  0.00    -0.395 C  
BRANCH   3   4
HETATM    4  C   UNL     1      -9.746  11.575  65.962  1.00  0.00    -0.253 C  
BRANCH   4   5
HETATM    5  C   UNL     1     -11.057  12.354  66.068  1.00  0.00    -0.344 C  
BRANCH   5   6
HETATM    6  C   UNL     1     -10.904  13.566  66.984  1.00  0.00    -0.287 C  
BRANCH   6   7
HETATM    7  C   UNL     1     -12.143  13.755  67.859  1.00  0.00    -0.322 C  
BRANCH   7   8
HETATM    8  C   UNL     1     -11.955  14.930  68.817  1.00  0.00    -0.284 C  
BRANCH   8   9
HETATM    9  C   UNL     1     -10.512  15.433  68.809  1.00  0.00    -0.231 C  
BRANCH   9  10
HETATM   10  C   UNL     1     -10.393  16.725  68.000  1.00  0.00    -0.317 C  
BRANCH  10  11
HETATM   11  C   UNL     1      -8.936  17.139  67.818  1.00  0.00    -0.226 C  
HETATM   12  C   UNL     1      -8.515  17.076  66.368  1.00  0.00    -0.283 C  
HETATM   13  O   UNL     1      -7.223  17.443  66.194  1.00  0.00    -0.285 OA 
HETATM   14  O   UNL     1      -9.227  16.740  65.437  1.00  0.00    -0.281 OA 
ENDBRANCH  10  11
ENDBRANCH   9  10
ENDBRANCH   8   9
ENDBRANCH   7   8
ENDBRANCH   6   7
ENDBRANCH   5   6
ENDBRANCH   4   5
ENDBRANCH   3   4
ENDBRANCH   2   3
TORSDOF 9
ENDMDL
MODEL      244
REMARK 921   NORMALIZED FREE ENERGY PREDICTED BY IDOCK:   -2.64 KCAL/MOL
REMARK 922        TOTAL FREE ENERGY PREDICTED BY IDOCK:   -4.57 KCAL/MOL
REMARK 923 INTER-LIGAND FREE ENERGY PREDICTED BY IDOCK:   -3.76 KCAL/MOL
REMARK 924 INTRA-LIGAND FREE ENERGY PREDICTED BY IDOCK:   -0.81 KCAL/MOL
REMARK 927      BINDING AFFINITY PREDICTED BY RF-SCORE:    0.00 PKD
ROOT
HETATM    1  C   UNL     1      -9.831   5.291  68.621  1.00  0.00    -0.216 C  
HETATM    2  C   UNL     1     -11.074   6.139  68.406  1.00  0.00    -0.343 C  
ENDROOT
BRANCH   2   3
HETATM    3  C   UNL     1     -10.858   7.163  67.293  1.00  0.00    -0.382 C  
BRANCH   3   4
HETATM    4  C   UNL     1     -10.478   8.529  67.861  1.00  0.00    -0.262 C  
BRANCH   4   5
HETATM    5  C   UNL     1     -10.763   9.640  66.851  1.00  0.00    -0.185 C  
BRANCH   5   6
HETATM    6  C   UNL     1      -9.476  10.354  66.440  1.00  0.00    -0.209 C  
BRANCH   6   7
HETATM    7  C   UNL     1      -9.773  11.740  65.869  1.00  0.00    -0.259 C  
BRANCH   7   8
HETATM    8  C   UNL     1     -11.226  12.134  66.129  1.00  0.00    -0.386 C  
BRANCH   8   9
HETATM    9  C   UNL     1     -11.327  13.541  66.715  1.00  0.00    -0.351 C  
BRANCH   9  10
HETATM   10  C   UNL     1     -12.084  13.523  68.043  1.00  0.00    -0.298 C  
BRANCH  10  11
HETATM   11  C   UNL     1     -11.293  12.799  69.129  1.00  0.00    -0.337 C  
HETATM   12  C   UNL     1     -11.967  11.512  69.547  1.00  0.00    -0.335 C  
HETATM   13  O   UNL     1     -11.273  10.861  70.510  1.00  0.00    -0.240 OA 
HETATM   14  O   UNL     1     -13.013  11.080  69.093  1.00  0.00     0.039 OA 
ENDBRANCH  10  11
ENDBRANCH   9  10
ENDBRANCH   8   9
ENDBRANCH   7   8
ENDBRANCH   6   7
ENDBRANCH   5   6
ENDBRANCH   4   5
ENDBRANCH   3   4
ENDBRANCH   2   3
TORSDOF 9
ENDMDL
MODEL      245
REMARK 921   NORMALIZED FREE ENERGY PREDICTED BY IDOCK:   -2.64 KCAL/MOL
REMARK 922        TOTAL FREE ENERGY PREDICTED BY IDOCK:   -4.57 KCAL/MOL
REMARK 923 INTER-LIGAND FREE ENERGY PREDICTED BY IDOCK:   -3.05 KCAL/MOL
REMARK 924 INTRA-LIGAND FREE ENERGY PREDICTED BY IDOCK:   -1.52 KCAL/MOL
REMARK 927      BINDING AFFINITY PREDICTED BY RF-SCORE:    0.00 PKD
ROOT
HETATM    1  C   UNL     1      -7.667   7.594  71.636  1.00  0.00    -0.086 C  
HETATM    2  C   UNL     1      -7.634   6.275  70.882  1.00  0.00    -0.096 C  
ENDROOT
BRANCH   2   3
HETATM    3  C   UNL     1      -8.100   5.121  71.767  1.00  0.00    -0.116 C  
BRANCH   3   4
HETATM    4  C   UNL     1      -9.285   5.531  72.638  1.00  0.00    -0.143 C  
BRANCH   4   5
HETATM    5  C   UNL     1     -10.606   5.095  72.007  1.00  0.00    -0.266 C  
BRANCH   5   6
HETATM    6  C   UNL     1     -11.641   6.217  72.063  1.00  0.00    -0.364 C  
BRANCH   6   7
HETATM    7  C   UNL     1     -11.676   7.000  70.751  1.00  0.00    -0.394 C  
BRANCH   7   8
HETATM    8  C   UNL     1     -11.261   6.113  69.578  1.00  0.00    -0.482 C  
BRANCH   8   9
HETATM    9  C   UNL     1     -10.490   6.906  68.524  1.00  0.00    -0.229 C  
BRANCH   9  10
HETATM   10  C   UNL     1      -9.568   5.987  67.723  1.00  0.00    -0.113 C  
BRANCH  10  11
HETATM   11  C   UNL     1      -9.501   4.590  68.334  1.00  0.00    -0.209 C  
HETATM   12  C   UNL     1      -9.512   3.515  67.271  1.00  0.00    -0.187 C  
HETATM   13  O   UNL     1      -9.452   2.270  67.801  1.00  0.00    -0.188 OA 
HETATM   14  O   UNL     1      -9.568   3.708  66.068  1.00  0.00    -0.180 OA 
ENDBRANCH  10  11
ENDBRANCH   9  10
ENDBRANCH   8   9
ENDBRANCH   7   8
ENDBRANCH   6   7
ENDBRANCH   5   6
ENDBRANCH   4   5
ENDBRANCH   3   4
ENDBRANCH   2   3
TORSDOF 9
ENDMDL
MODEL      246
REMARK 921   NORMALIZED FREE ENERGY PREDICTED BY IDOCK:   -2.64 KCAL/MOL
REMARK 922        TOTAL FREE ENERGY PREDICTED BY IDOCK:   -4.57 KCAL/MOL
REMARK 923 INTER-LIGAND FREE ENERGY PREDICTED BY IDOCK:   -4.18 KCAL/MOL
REMARK 924 INTRA-LIGAND FREE ENERGY PREDICTED BY IDOCK:   -0.39 KCAL/MOL
REMARK 927      BINDING AFFINITY PREDICTED BY RF-SCORE:    0.00 PKD
ROOT
HETATM    1  C   UNL     1     -10.071   8.368  70.311  1.00  0.00    -0.196 C  
HETATM    2  C   UNL     1     -10.850   9.575  69.813  1.00  0.00    -0.264 C  
ENDROOT
BRANCH   2   3
HETATM    3  C   UNL     1     -11.994   9.925  70.763  1.00  0.00    -0.410 C  
BRANCH   3   4
HETATM    4  C   UNL     1     -12.239  11.432  70.807  1.00  0.00    -0.475 C  
BRANCH   4   5
HETATM    5  C   UNL     1     -12.082  12.052  69.419  1.00  0.00    -0.261 C  
BRANCH   5   6
HETATM    6  C   UNL     1     -11.587  13.494  69.514  1.00  0.00    -0.355 C  
BRANCH   6   7
HETATM    7  C   UNL     1     -10.335  13.703  68.662  1.00  0.00    -0.223 C  
BRANCH   7   8
HETATM    8  C   UNL     1     -10.511  14.897  67.725  1.00  0.00    -0.255 C  
BRANCH   8   9
HETATM    9  C   UNL     1      -9.341  15.873  67.837  1.00  0.00    -0.207 C  
BRANCH   9  10
HETATM   10  C   UNL     1      -8.474  15.826  66.579  1.00  0.00    -0.335 C  
BRANCH  10  11
HETATM   11  C   UNL     1      -7.178  16.612  66.763  1.00  0.00    -0.272 C  
HETATM   12  C   UNL     1      -7.314  18.035  66.270  1.00  0.00    -0.282 C  
HETATM   13  O   UNL     1      -6.170  18.742  66.429  1.00  0.00    -0.173 OA 
HETATM   14  O   UNL     1      -8.319  18.523  65.781  1.00  0.00    -0.471 OA 
ENDBRANCH  10  11
ENDBRANCH   9  10
ENDBRANCH   8   9
ENDBRANCH   7   8
ENDBRANCH   6   7
ENDBRANCH   5   6
ENDBRANCH   4   5
ENDBRANCH   3   4
ENDBRANCH   2   3
TORSDOF 9
ENDMDL
MODEL      247
REMARK 921   NORMALIZED FREE ENERGY PREDICTED BY IDOCK:   -2.63 KCAL/MOL
REMARK 922        TOTAL FREE ENERGY PREDICTED BY IDOCK:   -4.56 KCAL/MOL
REMARK 923 INTER-LIGAND FREE ENERGY PREDICTED BY IDOCK:   -3.33 KCAL/MOL
REMARK 924 INTRA-LIGAND FREE ENERGY PREDICTED BY IDOCK:   -1.22 KCAL/MOL
REMARK 927      BINDING AFFINITY PREDICTED BY RF-SCORE:    0.00 PKD
ROOT
HETATM    1  C   UNL     1      -6.426  11.786  67.419  1.00  0.00    -0.116 C  
HETATM    2  C   UNL     1      -7.391  12.957  67.336  1.00  0.00    -0.132 C  
ENDROOT
BRANCH   2   3
HETATM    3  C   UNL     1      -8.742  12.606  67.956  1.00  0.00    -0.190 C  
BRANCH   3   4
HETATM    4  C   UNL     1      -8.988  11.099  67.934  1.00  0.00    -0.143 C  
BRANCH   4   5
HETATM    5  C   UNL     1     -10.159  10.749  67.018  1.00  0.00    -0.249 C  
BRANCH   5   6
HETATM    6  C   UNL     1      -9.752  10.834  65.548  1.00  0.00    -0.290 C  
BRANCH   6   7
HETATM    7  C   UNL     1     -10.978  10.935  64.641  1.00  0.00    -0.027 C  
BRANCH   7   8
HETATM    8  C   UNL     1     -10.935  12.218  63.813  1.00  0.00    -0.495 C  
BRANCH   8   9
HETATM    9  C   UNL     1      -9.926  13.216  64.379  1.00  0.00    -0.095 C  
BRANCH   9  10
HETATM   10  C   UNL     1     -10.629  14.489  64.851  1.00  0.00    -0.450 C  
BRANCH  10  11
HETATM   11  C   UNL     1     -10.922  14.445  66.348  1.00  0.00    -0.319 C  
HETATM   12  C   UNL     1     -12.363  14.081  66.624  1.00  0.00    -0.371 C  
HETATM   13  O   UNL     1     -12.635  14.038  67.950  1.00  0.00     0.065 OA 
HETATM   14  O   UNL     1     -13.210  13.846  65.778  1.00  0.00    -0.521 OA 
ENDBRANCH  10  11
ENDBRANCH   9  10
ENDBRANCH   8   9
ENDBRANCH   7   8
ENDBRANCH   6   7
ENDBRANCH   5   6
ENDBRANCH   4   5
ENDBRANCH   3   4
ENDBRANCH   2   3
TORSDOF 9
ENDMDL
MODEL      248
REMARK 921   NORMALIZED FREE ENERGY PREDICTED BY IDOCK:   -2.62 KCAL/MOL
REMARK 922        TOTAL FREE ENERGY PREDICTED BY IDOCK:   -4.55 KCAL/MOL
REMARK 923 INTER-LIGAND FREE ENERGY PREDICTED BY IDOCK:   -3.76 KCAL/MOL
REMARK 924 INTRA-LIGAND FREE ENERGY PREDICTED BY IDOCK:   -0.78 KCAL/MOL
REMARK 927      BINDING AFFINITY PREDICTED BY RF-SCORE:    0.00 PKD
ROOT
HETATM    1  C   UNL     1      -6.898   5.893  67.093  1.00  0.00    -0.063 C  
HETATM    2  C   UNL     1      -6.196   6.775  68.113  1.00  0.00    -0.033 C  
ENDROOT
BRANCH   2   3
HETATM    3  C   UNL     1      -7.203   7.495  69.007  1.00  0.00    -0.085 C  
BRANCH   3   4
HETATM    4  C   UNL     1      -8.372   6.583  69.374  1.00  0.00    -0.123 C  
BRANCH   4   5
HETATM    5  C   UNL     1      -9.677   7.374  69.456  1.00  0.00    -0.159 C  
BRANCH   5   6
HETATM    6  C   UNL     1     -10.389   7.402  68.106  1.00  0.00    -0.235 C  
BRANCH   6   7
HETATM    7  C   UNL     1     -10.562   8.835  67.603  1.00  0.00    -0.281 C  
BRANCH   7   8
HETATM    8  C   UNL     1      -9.434   9.213  66.645  1.00  0.00    -0.242 C  
BRANCH   8   9
HETATM    9  C   UNL     1      -9.964   9.977  65.432  1.00  0.00    -0.364 C  
BRANCH   9  10
HETATM   10  C   UNL     1      -9.886  11.486  65.665  1.00  0.00    -0.269 C  
BRANCH  10  11
HETATM   11  C   UNL     1     -11.266  12.086  65.916  1.00  0.00    -0.385 C  
HETATM   12  C   UNL     1     -11.790  12.810  64.696  1.00  0.00    -0.374 C  
HETATM   13  O   UNL     1     -13.015  13.346  64.907  1.00  0.00    -0.717 OA 
HETATM   14  O   UNL     1     -11.206  12.918  63.631  1.00  0.00    -0.430 OA 
ENDBRANCH  10  11
ENDBRANCH   9  10
ENDBRANCH   8   9
ENDBRANCH   7   8
ENDBRANCH   6   7
ENDBRANCH   5   6
ENDBRANCH   4   5
ENDBRANCH   3   4
ENDBRANCH   2   3
TORSDOF 9
ENDMDL
MODEL      249
REMARK 921   NORMALIZED FREE ENERGY PREDICTED BY IDOCK:   -2.61 KCAL/MOL
REMARK 922        TOTAL FREE ENERGY PREDICTED BY IDOCK:   -4.52 KCAL/MOL
REMARK 923 INTER-LIGAND FREE ENERGY PREDICTED BY IDOCK:   -3.91 KCAL/MOL
REMARK 924 INTRA-LIGAND FREE ENERGY PREDICTED BY IDOCK:   -0.61 KCAL/MOL
REMARK 927      BINDING AFFINITY PREDICTED BY RF-SCORE:    0.00 PKD
ROOT
HETATM    1  C   UNL     1     -11.528  12.551  66.347  1.00  0.00    -0.418 C  
HETATM    2  C   UNL     1     -10.042  12.847  66.223  1.00  0.00    -0.281 C  
ENDROOT
BRANCH   2   3
HETATM    3  C   UNL     1      -9.263  11.599  65.812  1.00  0.00    -0.184 C  
BRANCH   3   4
HETATM    4  C   UNL     1     -10.202  10.464  65.409  1.00  0.00    -0.329 C  
BRANCH   4   5
HETATM    5  C   UNL     1      -9.888   9.190  66.192  1.00  0.00    -0.363 C  
BRANCH   5   6
HETATM    6  C   UNL     1      -9.461   9.515  67.622  1.00  0.00    -0.153 C  
BRANCH   6   7
HETATM    7  C   UNL     1     -10.675   9.716  68.528  1.00  0.00    -0.239 C  
BRANCH   7   8
HETATM    8  C   UNL     1     -10.692   8.679  69.651  1.00  0.00    -0.204 C  
BRANCH   8   9
HETATM    9  C   UNL     1     -11.259   9.265  70.943  1.00  0.00    -0.372 C  
BRANCH   9  10
HETATM   10  C   UNL     1     -11.745   8.154  71.874  1.00  0.00    -0.362 C  
BRANCH  10  11
HETATM   11  C   UNL     1     -10.689   7.792  72.914  1.00  0.00    -0.446 C  
HETATM   12  C   UNL     1     -10.308   6.331  72.836  1.00  0.00    -0.207 C  
HETATM   13  O   UNL     1      -9.370   5.998  73.755  1.00  0.00    -0.127 OA 
HETATM   14  O   UNL     1     -10.769   5.518  72.053  1.00  0.00    -0.225 OA 
ENDBRANCH  10  11
ENDBRANCH   9  10
ENDBRANCH   8   9
ENDBRANCH   7   8
ENDBRANCH   6   7
ENDBRANCH   5   6
ENDBRANCH   4   5
ENDBRANCH   3   4
ENDBRANCH   2   3
TORSDOF 9
ENDMDL
MODEL      250
REMARK 921   NORMALIZED FREE ENERGY PREDICTED BY IDOCK:   -2.61 KCAL/MOL
REMARK 922        TOTAL FREE ENERGY PREDICTED BY IDOCK:   -4.52 KCAL/MOL
REMARK 923 INTER-LIGAND FREE ENERGY PREDICTED BY IDOCK:   -3.91 KCAL/MOL
REMARK 924 INTRA-LIGAND FREE ENERGY PREDICTED BY IDOCK:   -0.61 KCAL/MOL
REMARK 927      BINDING AFFINITY PREDICTED BY RF-SCORE:    0.00 PKD
ROOT
HETATM    1  C   UNL     1      -6.819   7.749  68.894  1.00  0.00    -0.058 C  
HETATM    2  C   UNL     1      -7.655   7.935  67.639  1.00  0.00    -0.109 C  
ENDROOT
BRANCH   2   3
HETATM    3  C   UNL     1      -9.146   7.821  67.946  1.00  0.00    -0.132 C  
BRANCH   3   4
HETATM    4  C   UNL     1      -9.994   8.376  66.803  1.00  0.00    -0.354 C  
BRANCH   4   5
HETATM    5  C   UNL     1     -10.688   9.673  67.217  1.00  0.00    -0.284 C  
BRANCH   5   6
HETATM    6  C   UNL     1      -9.736  10.585  67.988  1.00  0.00    -0.162 C  
BRANCH   6   7
HETATM    7  C   UNL     1      -9.688  11.981  67.369  1.00  0.00    -0.185 C  
BRANCH   7   8
HETATM    8  C   UNL     1     -10.177  13.033  68.365  1.00  0.00    -0.246 C  
BRANCH   8   9
HETATM    9  C   UNL     1     -11.702  13.060  68.443  1.00  0.00    -0.386 C  
BRANCH   9  10
HETATM   10  C   UNL     1     -12.169  13.101  69.898  1.00  0.00    -0.293 C  
BRANCH  10  11
HETATM   11  C   UNL     1     -12.242  11.702  70.503  1.00  0.00    -0.451 C  
HETATM   12  C   UNL     1     -13.157  11.661  71.706  1.00  0.00    -0.382 C  
HETATM   13  O   UNL     1     -13.230  10.423  72.250  1.00  0.00    -0.400 OA 
HETATM   14  O   UNL     1     -13.773  12.610  72.161  1.00  0.00    -0.467 OA 
ENDBRANCH  10  11
ENDBRANCH   9  10
ENDBRANCH   8   9
ENDBRANCH   7   8
ENDBRANCH   6   7
ENDBRANCH   5   6
ENDBRANCH   4   5
ENDBRANCH   3   4
ENDBRANCH   2   3
TORSDOF 9
ENDMDL
MODEL      251
REMARK 921   NORMALIZED FREE ENERGY PREDICTED BY IDOCK:   -2.60 KCAL/MOL
REMARK 922        TOTAL FREE ENERGY PREDICTED BY IDOCK:   -4.52 KCAL/MOL
REMARK 923 INTER-LIGAND FREE ENERGY PREDICTED BY IDOCK:   -3.26 KCAL/MOL
REMARK 924 INTRA-LIGAND FREE ENERGY PREDICTED BY IDOCK:   -1.26 KCAL/MOL
REMARK 927      BINDING AFFINITY PREDICTED BY RF-SCORE:    0.00 PKD
ROOT
HETATM    1  C   UNL     1      -6.713   7.114  70.760  1.00  0.00    -0.052 C  
HETATM    2  C   UNL     1      -6.966   8.613  70.758  1.00  0.00    -0.059 C  
ENDROOT
BRANCH   2   3
HETATM    3  C   UNL     1      -8.451   8.923  70.932  1.00  0.00    -0.226 C  
BRANCH   3   4
HETATM    4  C   UNL     1      -9.282   7.644  71.003  1.00  0.00    -0.152 C  
BRANCH   4   5
HETATM    5  C   UNL     1     -10.774   7.963  71.076  1.00  0.00    -0.239 C  
BRANCH   5   6
HETATM    6  C   UNL     1     -11.006   9.427  71.443  1.00  0.00    -0.443 C  
BRANCH   6   7
HETATM    7  C   UNL     1     -12.366   9.913  70.943  1.00  0.00    -0.403 C  
BRANCH   7   8
HETATM    8  C   UNL     1     -12.201  10.848  69.745  1.00  0.00    -0.381 C  
BRANCH   8   9
HETATM    9  C   UNL     1     -10.735  11.216  69.523  1.00  0.00    -0.193 C  
BRANCH   9  10
HETATM   10  C   UNL     1     -10.327  10.963  68.071  1.00  0.00    -0.212 C  
BRANCH  10  11
HETATM   11  C   UNL     1     -11.024   9.730  67.501  1.00  0.00    -0.205 C  
HETATM   12  C   UNL     1     -10.044   8.612  67.228  1.00  0.00    -0.244 C  
HETATM   13  O   UNL     1     -10.652   7.512  66.722  1.00  0.00    -0.318 OA 
HETATM   14  O   UNL     1      -8.842   8.658  67.426  1.00  0.00    -0.132 OA 
ENDBRANCH  10  11
ENDBRANCH   9  10
ENDBRANCH   8   9
ENDBRANCH   7   8
ENDBRANCH   6   7
ENDBRANCH   5   6
ENDBRANCH   4   5
ENDBRANCH   3   4
ENDBRANCH   2   3
TORSDOF 9
ENDMDL
MODEL      252
REMARK 921   NORMALIZED FREE ENERGY PREDICTED BY IDOCK:   -2.60 KCAL/MOL
REMARK 922        TOTAL FREE ENERGY PREDICTED BY IDOCK:   -4.51 KCAL/MOL
REMARK 923 INTER-LIGAND FREE ENERGY PREDICTED BY IDOCK:   -3.96 KCAL/MOL
REMARK 924 INTRA-LIGAND FREE ENERGY PREDICTED BY IDOCK:   -0.55 KCAL/MOL
REMARK 927      BINDING AFFINITY PREDICTED BY RF-SCORE:    0.00 PKD
ROOT
HETATM    1  C   UNL     1     -11.720  15.648  68.831  1.00  0.00    -0.396 C  
HETATM    2  C   UNL     1     -11.120  14.458  68.100  1.00  0.00    -0.279 C  
ENDROOT
BRANCH   2   3
HETATM    3  C   UNL     1     -12.207  13.584  67.480  1.00  0.00    -0.247 C  
BRANCH   3   4
HETATM    4  C   UNL     1     -12.422  13.925  66.007  1.00  0.00    -0.501 C  
BRANCH   4   5
HETATM    5  C   UNL     1     -11.107  14.324  65.340  1.00  0.00    -0.327 C  
BRANCH   5   6
HETATM    6  C   UNL     1     -10.711  13.321  64.259  1.00  0.00    -0.408 C  
BRANCH   6   7
HETATM    7  C   UNL     1     -11.319  11.946  64.533  1.00  0.00    -0.382 C  
BRANCH   7   8
HETATM    8  C   UNL     1     -10.370  11.091  65.372  1.00  0.00    -0.330 C  
BRANCH   8   9
HETATM    9  C   UNL     1      -9.630  10.069  64.510  1.00  0.00    -0.346 C  
BRANCH   9  10
HETATM   10  C   UNL     1      -8.373   9.569  65.223  1.00  0.00    -0.144 C  
BRANCH  10  11
HETATM   11  C   UNL     1      -8.139   8.083  64.968  1.00  0.00    -0.145 C  
HETATM   12  C   UNL     1      -8.870   7.222  65.973  1.00  0.00    -0.136 C  
HETATM   13  O   UNL     1      -8.670   5.900  65.755  1.00  0.00    -0.147 OA 
HETATM   14  O   UNL     1      -9.566   7.633  66.886  1.00  0.00    -0.167 OA 
ENDBRANCH  10  11
ENDBRANCH   9  10
ENDBRANCH   8   9
ENDBRANCH   7   8
ENDBRANCH   6   7
ENDBRANCH   5   6
ENDBRANCH   4   5
ENDBRANCH   3   4
ENDBRANCH   2   3
TORSDOF 9
ENDMDL
MODEL      253
REMARK 921   NORMALIZED FREE ENERGY PREDICTED BY IDOCK:   -2.60 KCAL/MOL
REMARK 922        TOTAL FREE ENERGY PREDICTED BY IDOCK:   -4.51 KCAL/MOL
REMARK 923 INTER-LIGAND FREE ENERGY PREDICTED BY IDOCK:   -3.67 KCAL/MOL
REMARK 924 INTRA-LIGAND FREE ENERGY PREDICTED BY IDOCK:   -0.84 KCAL/MOL
REMARK 927      BINDING AFFINITY PREDICTED BY RF-SCORE:    0.00 PKD
ROOT
HETATM    1  C   UNL     1     -11.426  15.322  69.055  1.00  0.00    -0.338 C  
HETATM    2  C   UNL     1     -10.955  14.074  68.326  1.00  0.00    -0.272 C  
ENDROOT
BRANCH   2   3
HETATM    3  C   UNL     1     -12.055  13.509  67.430  1.00  0.00    -0.360 C  
BRANCH   3   4
HETATM    4  C   UNL     1     -11.881  13.964  65.982  1.00  0.00    -0.412 C  
BRANCH   4   5
HETATM    5  C   UNL     1     -10.402  14.112  65.629  1.00  0.00    -0.348 C  
BRANCH   5   6
HETATM    6  C   UNL     1     -10.047  13.288  64.393  1.00  0.00    -0.190 C  
BRANCH   6   7
HETATM    7  C   UNL     1     -10.891  12.016  64.317  1.00  0.00    -0.389 C  
BRANCH   7   8
HETATM    8  C   UNL     1     -10.105  10.811  64.831  1.00  0.00    -0.387 C  
BRANCH   8   9
HETATM    9  C   UNL     1     -10.742  10.225  66.089  1.00  0.00    -0.042 C  
BRANCH   9  10
HETATM   10  C   UNL     1     -10.205   8.820  66.364  1.00  0.00    -0.256 C  
BRANCH  10  11
HETATM   11  C   UNL     1     -10.539   8.359  67.780  1.00  0.00    -0.238 C  
HETATM   12  C   UNL     1      -9.416   8.664  68.746  1.00  0.00    -0.143 C  
HETATM   13  O   UNL     1      -9.702   8.260  70.006  1.00  0.00    -0.174 OA 
HETATM   14  O   UNL     1      -8.362   9.207  68.460  1.00  0.00    -0.120 OA 
ENDBRANCH  10  11
ENDBRANCH   9  10
ENDBRANCH   8   9
ENDBRANCH   7   8
ENDBRANCH   6   7
ENDBRANCH   5   6
ENDBRANCH   4   5
ENDBRANCH   3   4
ENDBRANCH   2   3
TORSDOF 9
ENDMDL
MODEL      254
REMARK 921   NORMALIZED FREE ENERGY PREDICTED BY IDOCK:   -2.59 KCAL/MOL
REMARK 922        TOTAL FREE ENERGY PREDICTED BY IDOCK:   -4.50 KCAL/MOL
REMARK 923 INTER-LIGAND FREE ENERGY PREDICTED BY IDOCK:   -3.30 KCAL/MOL
REMARK 924 INTRA-LIGAND FREE ENERGY PREDICTED BY IDOCK:   -1.20 KCAL/MOL
REMARK 927      BINDING AFFINITY PREDICTED BY RF-SCORE:    0.00 PKD
ROOT
HETATM    1  C   UNL     1      -7.543   5.931  73.056  1.00  0.00    -0.095 C  
HETATM    2  C   UNL     1      -8.287   6.221  71.763  1.00  0.00    -0.121 C  
ENDROOT
BRANCH   2   3
HETATM    3  C   UNL     1      -9.320   5.137  71.464  1.00  0.00    -0.187 C  
BRANCH   3   4
HETATM    4  C   UNL     1     -10.108   5.454  70.195  1.00  0.00    -0.322 C  
BRANCH   4   5
HETATM    5  C   UNL     1      -9.187   5.497  68.976  1.00  0.00    -0.143 C  
BRANCH   5   6
HETATM    6  C   UNL     1      -9.478   6.720  68.110  1.00  0.00    -0.120 C  
BRANCH   6   7
HETATM    7  C   UNL     1      -8.625   7.914  68.536  1.00  0.00    -0.128 C  
BRANCH   7   8
HETATM    8  C   UNL     1      -9.412   9.217  68.407  1.00  0.00    -0.145 C  
BRANCH   8   9
HETATM    9  C   UNL     1     -10.724   9.157  69.189  1.00  0.00    -0.190 C  
BRANCH   9  10
HETATM   10  C   UNL     1     -10.603   9.919  70.509  1.00  0.00    -0.359 C  
BRANCH  10  11
HETATM   11  C   UNL     1     -10.214   8.992  71.658  1.00  0.00    -0.418 C  
HETATM   12  C   UNL     1     -11.430   8.459  72.381  1.00  0.00    -0.380 C  
HETATM   13  O   UNL     1     -11.097   7.635  73.402  1.00  0.00    -0.337 OA 
HETATM   14  O   UNL     1     -12.589   8.720  72.106  1.00  0.00    -0.353 OA 
ENDBRANCH  10  11
ENDBRANCH   9  10
ENDBRANCH   8   9
ENDBRANCH   7   8
ENDBRANCH   6   7
ENDBRANCH   5   6
ENDBRANCH   4   5
ENDBRANCH   3   4
ENDBRANCH   2   3
TORSDOF 9
ENDMDL
MODEL      255
REMARK 921   NORMALIZED FREE ENERGY PREDICTED BY IDOCK:   -2.58 KCAL/MOL
REMARK 922        TOTAL FREE ENERGY PREDICTED BY IDOCK:   -4.49 KCAL/MOL
REMARK 923 INTER-LIGAND FREE ENERGY PREDICTED BY IDOCK:   -3.59 KCAL/MOL
REMARK 924 INTRA-LIGAND FREE ENERGY PREDICTED BY IDOCK:   -0.90 KCAL/MOL
REMARK 927      BINDING AFFINITY PREDICTED BY RF-SCORE:    0.00 PKD
ROOT
HETATM    1  C   UNL     1      -6.262  14.160  67.792  1.00  0.00    -0.153 C  
HETATM    2  C   UNL     1      -7.778  14.046  67.781  1.00  0.00    -0.178 C  
ENDROOT
BRANCH   2   3
HETATM    3  C   UNL     1      -8.394  14.757  68.984  1.00  0.00    -0.144 C  
BRANCH   3   4
HETATM    4  C   UNL     1      -9.230  15.960  68.552  1.00  0.00    -0.200 C  
BRANCH   4   5
HETATM    5  C   UNL     1     -10.500  16.074  69.393  1.00  0.00    -0.271 C  
BRANCH   5   6
HETATM    6  C   UNL     1     -11.270  14.755  69.408  1.00  0.00    -0.308 C  
BRANCH   6   7
HETATM    7  C   UNL     1     -11.974  14.512  68.074  1.00  0.00    -0.305 C  
BRANCH   7   8
HETATM    8  C   UNL     1     -11.408  13.274  67.380  1.00  0.00    -0.337 C  
BRANCH   8   9
HETATM    9  C   UNL     1     -11.798  11.994  68.117  1.00  0.00    -0.352 C  
BRANCH   9  10
HETATM   10  C   UNL     1     -10.561  11.301  68.690  1.00  0.00    -0.231 C  
BRANCH  10  11
HETATM   11  C   UNL     1     -10.776   9.797  68.830  1.00  0.00    -0.243 C  
HETATM   12  C   UNL     1     -11.160   9.417  70.242  1.00  0.00    -0.257 C  
HETATM   13  O   UNL     1     -11.355   8.084  70.378  1.00  0.00    -0.261 OA 
HETATM   14  O   UNL     1     -11.289  10.192  71.174  1.00  0.00    -0.346 OA 
ENDBRANCH  10  11
ENDBRANCH   9  10
ENDBRANCH   8   9
ENDBRANCH   7   8
ENDBRANCH   6   7
ENDBRANCH   5   6
ENDBRANCH   4   5
ENDBRANCH   3   4
ENDBRANCH   2   3
TORSDOF 9
ENDMDL
MODEL      256
REMARK 921   NORMALIZED FREE ENERGY PREDICTED BY IDOCK:   -2.57 KCAL/MOL
REMARK 922        TOTAL FREE ENERGY PREDICTED BY IDOCK:   -4.47 KCAL/MOL
REMARK 923 INTER-LIGAND FREE ENERGY PREDICTED BY IDOCK:   -3.15 KCAL/MOL
REMARK 924 INTRA-LIGAND FREE ENERGY PREDICTED BY IDOCK:   -1.32 KCAL/MOL
REMARK 927      BINDING AFFINITY PREDICTED BY RF-SCORE:    0.00 PKD
ROOT
HETATM    1  C   UNL     1     -10.624   3.444  63.742  1.00  0.00    -0.265 C  
HETATM    2  C   UNL     1      -9.529   3.582  64.788  1.00  0.00    -0.157 C  
ENDROOT
BRANCH   2   3
HETATM    3  C   UNL     1      -8.745   4.879  64.599  1.00  0.00    -0.152 C  
BRANCH   3   4
HETATM    4  C   UNL     1      -7.690   5.055  65.689  1.00  0.00    -0.087 C  
BRANCH   4   5
HETATM    5  C   UNL     1      -8.004   4.177  66.900  1.00  0.00    -0.097 C  
BRANCH   5   6
HETATM    6  C   UNL     1      -8.443   5.023  68.094  1.00  0.00    -0.099 C  
BRANCH   6   7
HETATM    7  C   UNL     1      -9.884   4.708  68.493  1.00  0.00    -0.181 C  
BRANCH   7   8
HETATM    8  C   UNL     1     -10.735   5.977  68.500  1.00  0.00    -0.354 C  
BRANCH   8   9
HETATM    9  C   UNL     1     -10.928   6.526  67.087  1.00  0.00    -0.480 C  
BRANCH   9  10
HETATM   10  C   UNL     1     -10.568   8.011  67.030  1.00  0.00    -0.364 C  
BRANCH  10  11
HETATM   11  C   UNL     1      -9.275   8.245  66.255  1.00  0.00    -0.258 C  
HETATM   12  C   UNL     1      -9.364   9.473  65.378  1.00  0.00    -0.261 C  
HETATM   13  O   UNL     1      -8.220   9.691  64.686  1.00  0.00    -0.131 OA 
HETATM   14  O   UNL     1     -10.334  10.206  65.280  1.00  0.00    -0.266 OA 
ENDBRANCH  10  11
ENDBRANCH   9  10
ENDBRANCH   8   9
ENDBRANCH   7   8
ENDBRANCH   6   7
ENDBRANCH   5   6
ENDBRANCH   4   5
ENDBRANCH   3   4
ENDBRANCH   2   3
TORSDOF 9
ENDMDL
MODEL      257
REMARK 921   NORMALIZED FREE ENERGY PREDICTED BY IDOCK:   -2.57 KCAL/MOL
REMARK 922        TOTAL FREE ENERGY PREDICTED BY IDOCK:   -4.46 KCAL/MOL
REMARK 923 INTER-LIGAND FREE ENERGY PREDICTED BY IDOCK:   -3.99 KCAL/MOL
REMARK 924 INTRA-LIGAND FREE ENERGY PREDICTED BY IDOCK:   -0.48 KCAL/MOL
REMARK 927      BINDING AFFINITY PREDICTED BY RF-SCORE:    0.00 PKD
ROOT
HETATM    1  C   UNL     1     -13.360  13.809  72.575  1.00  0.00    -0.656 C  
HETATM    2  C   UNL     1     -12.826  14.857  71.612  1.00  0.00    -0.402 C  
ENDROOT
BRANCH   2   3
HETATM    3  C   UNL     1     -12.234  14.209  70.362  1.00  0.00    -0.427 C  
BRANCH   3   4
HETATM    4  C   UNL     1     -12.097  15.218  69.224  1.00  0.00    -0.280 C  
BRANCH   4   5
HETATM    5  C   UNL     1     -10.733  15.095  68.546  1.00  0.00    -0.240 C  
BRANCH   5   6
HETATM    6  C   UNL     1     -10.485  13.668  68.062  1.00  0.00    -0.251 C  
BRANCH   6   7
HETATM    7  C   UNL     1     -10.605  13.573  66.542  1.00  0.00    -0.281 C  
BRANCH   7   8
HETATM    8  C   UNL     1     -11.159  12.211  66.126  1.00  0.00    -0.354 C  
BRANCH   8   9
HETATM    9  C   UNL     1     -10.045  11.274  65.661  1.00  0.00    -0.295 C  
BRANCH   9  10
HETATM   10  C   UNL     1     -10.282   9.854  66.176  1.00  0.00    -0.277 C  
BRANCH  10  11
HETATM   11  C   UNL     1      -8.967   9.118  66.415  1.00  0.00    -0.182 C  
HETATM   12  C   UNL     1      -8.491   9.275  67.841  1.00  0.00    -0.117 C  
HETATM   13  O   UNL     1      -7.324   8.625  68.066  1.00  0.00    -0.089 OA 
HETATM   14  O   UNL     1      -9.063   9.906  68.714  1.00  0.00    -0.137 OA 
ENDBRANCH  10  11
ENDBRANCH   9  10
ENDBRANCH   8   9
ENDBRANCH   7   8
ENDBRANCH   6   7
ENDBRANCH   5   6
ENDBRANCH   4   5
ENDBRANCH   3   4
ENDBRANCH   2   3
TORSDOF 9
ENDMDL
MODEL      258
REMARK 921   NORMALIZED FREE ENERGY PREDICTED BY IDOCK:   -2.56 KCAL/MOL
REMARK 922        TOTAL FREE ENERGY PREDICTED BY IDOCK:   -4.45 KCAL/MOL
REMARK 923 INTER-LIGAND FREE ENERGY PREDICTED BY IDOCK:   -3.27 KCAL/MOL
REMARK 924 INTRA-LIGAND FREE ENERGY PREDICTED BY IDOCK:   -1.18 KCAL/MOL
REMARK 927      BINDING AFFINITY PREDICTED BY RF-SCORE:    0.00 PKD
ROOT
HETATM    1  C   UNL     1     -10.397   4.861  66.417  1.00  0.00    -0.328 C  
HETATM    2  C   UNL     1      -9.130   4.048  66.207  1.00  0.00    -0.139 C  
ENDROOT
BRANCH   2   3
HETATM    3  C   UNL     1      -8.310   3.961  67.492  1.00  0.00    -0.096 C  
BRANCH   3   4
HETATM    4  C   UNL     1      -7.275   5.081  67.568  1.00  0.00    -0.070 C  
BRANCH   4   5
HETATM    5  C   UNL     1      -6.924   5.405  69.019  1.00  0.00    -0.056 C  
BRANCH   5   6
HETATM    6  C   UNL     1      -7.258   6.857  69.355  1.00  0.00    -0.089 C  
BRANCH   6   7
HETATM    7  C   UNL     1      -8.726   7.009  69.750  1.00  0.00    -0.142 C  
BRANCH   7   8
HETATM    8  C   UNL     1      -9.125   5.946  70.773  1.00  0.00    -0.163 C  
BRANCH   8   9
HETATM    9  C   UNL     1     -10.461   5.298  70.412  1.00  0.00    -0.322 C  
BRANCH   9  10
HETATM   10  C   UNL     1     -11.510   6.363  70.091  1.00  0.00    -0.484 C  
BRANCH  10  11
HETATM   11  C   UNL     1     -12.205   6.863  71.354  1.00  0.00    -0.418 C  
HETATM   12  C   UNL     1     -12.150   8.370  71.462  1.00  0.00    -0.301 C  
HETATM   13  O   UNL     1     -12.765   8.826  72.579  1.00  0.00    -0.396 OA 
HETATM   14  O   UNL     1     -11.624   9.120  70.657  1.00  0.00    -0.266 OA 
ENDBRANCH  10  11
ENDBRANCH   9  10
ENDBRANCH   8   9
ENDBRANCH   7   8
ENDBRANCH   6   7
ENDBRANCH   5   6
ENDBRANCH   4   5
ENDBRANCH   3   4
ENDBRANCH   2   3
TORSDOF 9
ENDMDL
MODEL      259
REMARK 921   NORMALIZED FREE ENERGY PREDICTED BY IDOCK:   -2.55 KCAL/MOL
REMARK 922        TOTAL FREE ENERGY PREDICTED BY IDOCK:   -4.44 KCAL/MOL
REMARK 923 INTER-LIGAND FREE ENERGY PREDICTED BY IDOCK:   -3.80 KCAL/MOL
REMARK 924 INTRA-LIGAND FREE ENERGY PREDICTED BY IDOCK:   -0.64 KCAL/MOL
REMARK 927      BINDING AFFINITY PREDICTED BY RF-SCORE:    0.00 PKD
ROOT
HETATM    1  C   UNL     1     -11.684  15.582  69.871  1.00  0.00    -0.368 C  
HETATM    2  C   UNL     1     -10.924  14.530  69.079  1.00  0.00    -0.272 C  
ENDROOT
BRANCH   2   3
HETATM    3  C   UNL     1     -11.861  13.436  68.571  1.00  0.00    -0.401 C  
BRANCH   3   4
HETATM    4  C   UNL     1     -12.268  13.683  67.120  1.00  0.00    -0.340 C  
BRANCH   4   5
HETATM    5  C   UNL     1     -11.423  14.792  66.496  1.00  0.00    -0.328 C  
BRANCH   5   6
HETATM    6  C   UNL     1     -11.025  14.441  65.064  1.00  0.00    -0.398 C  
BRANCH   6   7
HETATM    7  C   UNL     1     -11.469  13.024  64.700  1.00  0.00    -0.374 C  
BRANCH   7   8
HETATM    8  C   UNL     1     -10.260  12.124  64.450  1.00  0.00    -0.333 C  
BRANCH   8   9
HETATM    9  C   UNL     1     -10.166  11.013  65.494  1.00  0.00    -0.327 C  
BRANCH   9  10
HETATM   10  C   UNL     1      -9.016  10.059  65.168  1.00  0.00    -0.227 C  
BRANCH  10  11
HETATM   11  C   UNL     1      -7.670  10.639  65.595  1.00  0.00    -0.109 C  
HETATM   12  C   UNL     1      -6.527  10.029  64.815  1.00  0.00    -0.127 C  
HETATM   13  O   UNL     1      -5.328  10.537  65.185  1.00  0.00    -0.109 OA 
HETATM   14  O   UNL     1      -6.635   9.179  63.947  1.00  0.00    -0.088 OA 
ENDBRANCH  10  11
ENDBRANCH   9  10
ENDBRANCH   8   9
ENDBRANCH   7   8
ENDBRANCH   6   7
ENDBRANCH   5   6
ENDBRANCH   4   5
ENDBRANCH   3   4
ENDBRANCH   2   3
TORSDOF 9
ENDMDL
MODEL      260
REMARK 921   NORMALIZED FREE ENERGY PREDICTED BY IDOCK:   -2.55 KCAL/MOL
REMARK 922        TOTAL FREE ENERGY PREDICTED BY IDOCK:   -4.43 KCAL/MOL
REMARK 923 INTER-LIGAND FREE ENERGY PREDICTED BY IDOCK:   -3.35 KCAL/MOL
REMARK 924 INTRA-LIGAND FREE ENERGY PREDICTED BY IDOCK:   -1.08 KCAL/MOL
REMARK 927      BINDING AFFINITY PREDICTED BY RF-SCORE:    0.00 PKD
ROOT
HETATM    1  C   UNL     1     -12.038   7.991  72.113  1.00  0.00    -0.391 C  
HETATM    2  C   UNL     1     -11.333   9.262  71.666  1.00  0.00    -0.467 C  
ENDROOT
BRANCH   2   3
HETATM    3  C   UNL     1      -9.861   8.998  71.355  1.00  0.00    -0.381 C  
BRANCH   3   4
HETATM    4  C   UNL     1      -9.503   7.528  71.568  1.00  0.00    -0.166 C  
BRANCH   4   5
HETATM    5  C   UNL     1      -8.770   6.963  70.352  1.00  0.00    -0.147 C  
BRANCH   5   6
HETATM    6  C   UNL     1      -9.342   5.606  69.946  1.00  0.00    -0.181 C  
BRANCH   6   7
HETATM    7  C   UNL     1     -10.772   5.744  69.427  1.00  0.00    -0.397 C  
BRANCH   7   8
HETATM    8  C   UNL     1     -10.897   6.950  68.497  1.00  0.00    -0.234 C  
BRANCH   8   9
HETATM    9  C   UNL     1     -10.566   6.578  67.053  1.00  0.00    -0.402 C  
BRANCH   9  10
HETATM   10  C   UNL     1      -9.486   7.503  66.490  1.00  0.00    -0.237 C  
BRANCH  10  11
HETATM   11  C   UNL     1      -8.099   6.879  66.603  1.00  0.00    -0.110 C  
HETATM   12  C   UNL     1      -7.465   6.676  65.245  1.00  0.00    -0.082 C  
HETATM   13  O   UNL     1      -6.232   6.123  65.334  1.00  0.00    -0.035 OA 
HETATM   14  O   UNL     1      -7.974   6.964  64.175  1.00  0.00    -0.120 OA 
ENDBRANCH  10  11
ENDBRANCH   9  10
ENDBRANCH   8   9
ENDBRANCH   7   8
ENDBRANCH   6   7
ENDBRANCH   5   6
ENDBRANCH   4   5
ENDBRANCH   3   4
ENDBRANCH   2   3
TORSDOF 9
ENDMDL
MODEL      261
REMARK 921   NORMALIZED FREE ENERGY PREDICTED BY IDOCK:   -2.55 KCAL/MOL
REMARK 922        TOTAL FREE ENERGY PREDICTED BY IDOCK:   -4.43 KCAL/MOL
REMARK 923 INTER-LIGAND FREE ENERGY PREDICTED BY IDOCK:   -3.55 KCAL/MOL
REMARK 924 INTRA-LIGAND FREE ENERGY PREDICTED BY IDOCK:   -0.88 KCAL/MOL
REMARK 927      BINDING AFFINITY PREDICTED BY RF-SCORE:    0.00 PKD
ROOT
HETATM    1  C   UNL     1      -7.735   7.765  62.947  1.00  0.00    -0.131 C  
HETATM    2  C   UNL     1      -7.806   6.831  64.145  1.00  0.00    -0.106 C  
ENDROOT
BRANCH   2   3
HETATM    3  C   UNL     1      -6.492   6.830  64.923  1.00  0.00    -0.042 C  
BRANCH   3   4
HETATM    4  C   UNL     1      -6.387   8.047  65.839  1.00  0.00    -0.045 C  
BRANCH   4   5
HETATM    5  C   UNL     1      -7.541   8.080  66.840  1.00  0.00    -0.095 C  
BRANCH   5   6
HETATM    6  C   UNL     1      -8.078   9.499  67.014  1.00  0.00    -0.113 C  
BRANCH   6   7
HETATM    7  C   UNL     1      -7.871  10.327  65.746  1.00  0.00    -0.145 C  
BRANCH   7   8
HETATM    8  C   UNL     1      -9.189  10.945  65.281  1.00  0.00    -0.236 C  
BRANCH   8   9
HETATM    9  C   UNL     1      -9.795  11.843  66.357  1.00  0.00    -0.234 C  
BRANCH   9  10
HETATM   10  C   UNL     1     -11.321  11.852  66.260  1.00  0.00    -0.394 C  
BRANCH  10  11
HETATM   11  C   UNL     1     -11.791  12.305  64.880  1.00  0.00    -0.417 C  
HETATM   12  C   UNL     1     -12.221  13.755  64.886  1.00  0.00    -0.415 C  
HETATM   13  O   UNL     1     -12.639  14.168  63.666  1.00  0.00    -0.831 OA 
HETATM   14  O   UNL     1     -12.206  14.495  65.855  1.00  0.00    -0.349 OA 
ENDBRANCH  10  11
ENDBRANCH   9  10
ENDBRANCH   8   9
ENDBRANCH   7   8
ENDBRANCH   6   7
ENDBRANCH   5   6
ENDBRANCH   4   5
ENDBRANCH   3   4
ENDBRANCH   2   3
TORSDOF 9
ENDMDL
MODEL      262
REMARK 921   NORMALIZED FREE ENERGY PREDICTED BY IDOCK:   -2.55 KCAL/MOL
REMARK 922        TOTAL FREE ENERGY PREDICTED BY IDOCK:   -4.43 KCAL/MOL
REMARK 923 INTER-LIGAND FREE ENERGY PREDICTED BY IDOCK:   -4.02 KCAL/MOL
REMARK 924 INTRA-LIGAND FREE ENERGY PREDICTED BY IDOCK:   -0.42 KCAL/MOL
REMARK 927      BINDING AFFINITY PREDICTED BY RF-SCORE:    0.00 PKD
ROOT
HETATM    1  C   UNL     1      -7.542   5.960  73.074  1.00  0.00    -0.095 C  
HETATM    2  C   UNL     1      -8.338   6.524  71.908  1.00  0.00    -0.115 C  
ENDROOT
BRANCH   2   3
HETATM    3  C   UNL     1      -9.579   5.679  71.626  1.00  0.00    -0.184 C  
BRANCH   3   4
HETATM    4  C   UNL     1     -10.475   6.339  70.580  1.00  0.00    -0.276 C  
BRANCH   4   5
HETATM    5  C   UNL     1      -9.689   6.657  69.309  1.00  0.00    -0.151 C  
BRANCH   5   6
HETATM    6  C   UNL     1     -10.399   7.723  68.476  1.00  0.00    -0.226 C  
BRANCH   6   7
HETATM    7  C   UNL     1     -10.090   9.126  68.996  1.00  0.00    -0.199 C  
BRANCH   7   8
HETATM    8  C   UNL     1      -9.708  10.058  67.847  1.00  0.00    -0.168 C  
BRANCH   8   9
HETATM    9  C   UNL     1     -10.945  10.604  67.136  1.00  0.00    -0.312 C  
BRANCH   9  10
HETATM   10  C   UNL     1     -10.627  11.923  66.432  1.00  0.00    -0.284 C  
BRANCH  10  11
HETATM   11  C   UNL     1     -11.776  12.919  66.563  1.00  0.00    -0.453 C  
HETATM   12  C   UNL     1     -12.456  13.165  65.235  1.00  0.00    -0.495 C  
HETATM   13  O   UNL     1     -13.478  14.046  65.339  1.00  0.00    -0.679 OA 
HETATM   14  O   UNL     1     -12.147  12.649  64.174  1.00  0.00    -0.380 OA 
ENDBRANCH  10  11
ENDBRANCH   9  10
ENDBRANCH   8   9
ENDBRANCH   7   8
ENDBRANCH   6   7
ENDBRANCH   5   6
ENDBRANCH   4   5
ENDBRANCH   3   4
ENDBRANCH   2   3
TORSDOF 9
ENDMDL
MODEL      263
REMARK 921   NORMALIZED FREE ENERGY PREDICTED BY IDOCK:   -2.54 KCAL/MOL
REMARK 922        TOTAL FREE ENERGY PREDICTED BY IDOCK:   -4.43 KCAL/MOL
REMARK 923 INTER-LIGAND FREE ENERGY PREDICTED BY IDOCK:   -4.02 KCAL/MOL
REMARK 924 INTRA-LIGAND FREE ENERGY PREDICTED BY IDOCK:   -0.41 KCAL/MOL
REMARK 927      BINDING AFFINITY PREDICTED BY RF-SCORE:    0.00 PKD
ROOT
HETATM    1  C   UNL     1     -10.120   8.539  72.347  1.00  0.00    -0.365 C  
HETATM    2  C   UNL     1     -11.615   8.362  72.135  1.00  0.00    -0.442 C  
ENDROOT
BRANCH   2   3
HETATM    3  C   UNL     1     -12.178   9.460  71.235  1.00  0.00    -0.425 C  
BRANCH   3   4
HETATM    4  C   UNL     1     -11.062  10.288  70.602  1.00  0.00    -0.358 C  
BRANCH   4   5
HETATM    5  C   UNL     1     -10.609   9.674  69.278  1.00  0.00    -0.236 C  
BRANCH   5   6
HETATM    6  C   UNL     1     -11.339  10.312  68.098  1.00  0.00    -0.233 C  
BRANCH   6   7
HETATM    7  C   UNL     1     -11.652  11.782  68.372  1.00  0.00    -0.380 C  
BRANCH   7   8
HETATM    8  C   UNL     1     -11.108  12.670  67.253  1.00  0.00    -0.320 C  
BRANCH   8   9
HETATM    9  C   UNL     1     -11.680  12.268  65.894  1.00  0.00    -0.451 C  
BRANCH   9  10
HETATM   10  C   UNL     1     -10.558  12.031  64.883  1.00  0.00    -0.334 C  
BRANCH  10  11
HETATM   11  C   UNL     1     -10.285  10.542  64.688  1.00  0.00    -0.364 C  
HETATM   12  C   UNL     1      -8.924  10.300  64.077  1.00  0.00    -0.237 C  
HETATM   13  O   UNL     1      -8.671   8.981  63.900  1.00  0.00    -0.179 OA 
HETATM   14  O   UNL     1      -8.122  11.164  63.766  1.00  0.00     0.304 OA 
ENDBRANCH  10  11
ENDBRANCH   9  10
ENDBRANCH   8   9
ENDBRANCH   7   8
ENDBRANCH   6   7
ENDBRANCH   5   6
ENDBRANCH   4   5
ENDBRANCH   3   4
ENDBRANCH   2   3
TORSDOF 9
ENDMDL
MODEL      264
REMARK 921   NORMALIZED FREE ENERGY PREDICTED BY IDOCK:   -2.54 KCAL/MOL
REMARK 922        TOTAL FREE ENERGY PREDICTED BY IDOCK:   -4.42 KCAL/MOL
REMARK 923 INTER-LIGAND FREE ENERGY PREDICTED BY IDOCK:   -3.06 KCAL/MOL
REMARK 924 INTRA-LIGAND FREE ENERGY PREDICTED BY IDOCK:   -1.36 KCAL/MOL
REMARK 927      BINDING AFFINITY PREDICTED BY RF-SCORE:    0.00 PKD
ROOT
HETATM    1  C   UNL     1      -6.780   5.444  67.230  1.00  0.00    -0.059 C  
HETATM    2  C   UNL     1      -6.496   6.304  68.450  1.00  0.00    -0.049 C  
ENDROOT
BRANCH   2   3
HETATM    3  C   UNL     1      -7.746   6.475  69.310  1.00  0.00    -0.101 C  
BRANCH   3   4
HETATM    4  C   UNL     1      -8.630   5.231  69.259  1.00  0.00    -0.102 C  
BRANCH   4   5
HETATM    5  C   UNL     1     -10.100   5.611  69.090  1.00  0.00    -0.274 C  
BRANCH   5   6
HETATM    6  C   UNL     1     -10.502   5.610  67.616  1.00  0.00    -0.284 C  
BRANCH   6   7
HETATM    7  C   UNL     1     -10.911   7.008  67.155  1.00  0.00    -0.427 C  
BRANCH   7   8
HETATM    8  C   UNL     1      -9.738   7.722  66.484  1.00  0.00    -0.265 C  
BRANCH   8   9
HETATM    9  C   UNL     1     -10.034   9.206  66.274  1.00  0.00    -0.352 C  
BRANCH   9  10
HETATM   10  C   UNL     1     -10.528   9.848  67.571  1.00  0.00    -0.310 C  
BRANCH  10  11
HETATM   11  C   UNL     1      -9.400   9.997  68.588  1.00  0.00    -0.156 C  
HETATM   12  C   UNL     1      -9.777   9.411  69.929  1.00  0.00    -0.212 C  
HETATM   13  O   UNL     1      -8.782   9.536  70.840  1.00  0.00    -0.243 OA 
HETATM   14  O   UNL     1     -10.841   8.879  70.197  1.00  0.00    -0.227 OA 
ENDBRANCH  10  11
ENDBRANCH   9  10
ENDBRANCH   8   9
ENDBRANCH   7   8
ENDBRANCH   6   7
ENDBRANCH   5   6
ENDBRANCH   4   5
ENDBRANCH   3   4
ENDBRANCH   2   3
TORSDOF 9
ENDMDL
MODEL      265
REMARK 921   NORMALIZED FREE ENERGY PREDICTED BY IDOCK:   -2.53 KCAL/MOL
REMARK 922        TOTAL FREE ENERGY PREDICTED BY IDOCK:   -4.41 KCAL/MOL
REMARK 923 INTER-LIGAND FREE ENERGY PREDICTED BY IDOCK:   -3.91 KCAL/MOL
REMARK 924 INTRA-LIGAND FREE ENERGY PREDICTED BY IDOCK:   -0.51 KCAL/MOL
REMARK 927      BINDING AFFINITY PREDICTED BY RF-SCORE:    0.00 PKD
ROOT
HETATM    1  C   UNL     1      -8.704   5.650  65.421  1.00  0.00    -0.139 C  
HETATM    2  C   UNL     1      -8.813   7.004  66.104  1.00  0.00    -0.165 C  
ENDROOT
BRANCH   2   3
HETATM    3  C   UNL     1      -7.464   7.720  66.131  1.00  0.00    -0.079 C  
BRANCH   3   4
HETATM    4  C   UNL     1      -7.558   9.106  65.497  1.00  0.00    -0.090 C  
BRANCH   4   5
HETATM    5  C   UNL     1      -8.901   9.297  64.794  1.00  0.00    -0.225 C  
BRANCH   5   6
HETATM    6  C   UNL     1      -9.008  10.692  64.182  1.00  0.00    -0.214 C  
BRANCH   6   7
HETATM    7  C   UNL     1     -10.297  10.842  63.375  1.00  0.00    -0.299 C  
BRANCH   7   8
HETATM    8  C   UNL     1     -11.048  12.109  63.784  1.00  0.00    -0.505 C  
BRANCH   8   9
HETATM    9  C   UNL     1     -11.513  12.037  65.237  1.00  0.00    -0.358 C  
BRANCH   9  10
HETATM   10  C   UNL     1     -12.448  13.202  65.564  1.00  0.00    -0.516 C  
BRANCH  10  11
HETATM   11  C   UNL     1     -11.685  14.518  65.678  1.00  0.00    -0.335 C  
HETATM   12  C   UNL     1     -11.515  14.942  67.119  1.00  0.00    -0.335 C  
HETATM   13  O   UNL     1     -10.838  16.110  67.232  1.00  0.00    -0.309 OA 
HETATM   14  O   UNL     1     -11.925  14.331  68.091  1.00  0.00    -0.339 OA 
ENDBRANCH  10  11
ENDBRANCH   9  10
ENDBRANCH   8   9
ENDBRANCH   7   8
ENDBRANCH   6   7
ENDBRANCH   5   6
ENDBRANCH   4   5
ENDBRANCH   3   4
ENDBRANCH   2   3
TORSDOF 9
ENDMDL
MODEL      266
REMARK 921   NORMALIZED FREE ENERGY PREDICTED BY IDOCK:   -2.52 KCAL/MOL
REMARK 922        TOTAL FREE ENERGY PREDICTED BY IDOCK:   -4.39 KCAL/MOL
REMARK 923 INTER-LIGAND FREE ENERGY PREDICTED BY IDOCK:   -3.72 KCAL/MOL
REMARK 924 INTRA-LIGAND FREE ENERGY PREDICTED BY IDOCK:   -0.68 KCAL/MOL
REMARK 927      BINDING AFFINITY PREDICTED BY RF-SCORE:    0.00 PKD
ROOT
HETATM    1  C   UNL     1     -10.835   6.203  67.647  1.00  0.00    -0.421 C  
HETATM    2  C   UNL     1      -9.566   5.659  68.283  1.00  0.00    -0.145 C  
ENDROOT
BRANCH   2   3
HETATM    3  C   UNL     1      -9.008   6.630  69.322  1.00  0.00    -0.135 C  
BRANCH   3   4
HETATM    4  C   UNL     1      -7.718   7.286  68.833  1.00  0.00    -0.116 C  
BRANCH   4   5
HETATM    5  C   UNL     1      -7.905   8.792  68.652  1.00  0.00    -0.103 C  
BRANCH   5   6
HETATM    6  C   UNL     1      -7.946   9.166  67.172  1.00  0.00    -0.106 C  
BRANCH   6   7
HETATM    7  C   UNL     1      -9.230   9.921  66.830  1.00  0.00    -0.176 C  
BRANCH   7   8
HETATM    8  C   UNL     1      -9.397  10.049  65.316  1.00  0.00    -0.294 C  
BRANCH   8   9
HETATM    9  C   UNL     1     -10.512  11.031  64.958  1.00  0.00    -0.344 C  
BRANCH   9  10
HETATM   10  C   UNL     1     -10.966  11.808  66.195  1.00  0.00    -0.355 C  
BRANCH  10  11
HETATM   11  C   UNL     1     -10.761  13.310  66.019  1.00  0.00    -0.286 C  
HETATM   12  C   UNL     1     -11.984  13.976  65.431  1.00  0.00    -0.380 C  
HETATM   13  O   UNL     1     -11.813  15.310  65.272  1.00  0.00    -0.146 OA 
HETATM   14  O   UNL     1     -13.020  13.411  65.123  1.00  0.00    -0.710 OA 
ENDBRANCH  10  11
ENDBRANCH   9  10
ENDBRANCH   8   9
ENDBRANCH   7   8
ENDBRANCH   6   7
ENDBRANCH   5   6
ENDBRANCH   4   5
ENDBRANCH   3   4
ENDBRANCH   2   3
TORSDOF 9
ENDMDL
MODEL      267
REMARK 921   NORMALIZED FREE ENERGY PREDICTED BY IDOCK:   -2.52 KCAL/MOL
REMARK 922        TOTAL FREE ENERGY PREDICTED BY IDOCK:   -4.39 KCAL/MOL
REMARK 923 INTER-LIGAND FREE ENERGY PREDICTED BY IDOCK:   -3.30 KCAL/MOL
REMARK 924 INTRA-LIGAND FREE ENERGY PREDICTED BY IDOCK:   -1.09 KCAL/MOL
REMARK 927      BINDING AFFINITY PREDICTED BY RF-SCORE:    0.00 PKD
ROOT
HETATM    1  C   UNL     1     -10.222   5.102  67.961  1.00  0.00    -0.178 C  
HETATM    2  C   UNL     1     -10.321   5.463  69.434  1.00  0.00    -0.339 C  
ENDROOT
BRANCH   2   3
HETATM    3  C   UNL     1     -11.518   6.374  69.700  1.00  0.00    -0.446 C  
BRANCH   3   4
HETATM    4  C   UNL     1     -11.782   6.522  71.197  1.00  0.00    -0.392 C  
BRANCH   4   5
HETATM    5  C   UNL     1     -12.422   7.874  71.508  1.00  0.00    -0.341 C  
BRANCH   5   6
HETATM    6  C   UNL     1     -11.361   8.922  71.839  1.00  0.00    -0.446 C  
BRANCH   6   7
HETATM    7  C   UNL     1     -10.087   8.267  72.371  1.00  0.00    -0.383 C  
BRANCH   7   8
HETATM    8  C   UNL     1      -8.858   8.787  71.626  1.00  0.00    -0.278 C  
BRANCH   8   9
HETATM    9  C   UNL     1      -7.982   7.640  71.126  1.00  0.00    -0.091 C  
BRANCH   9  10
HETATM   10  C   UNL     1      -7.294   8.017  69.814  1.00  0.00    -0.074 C  
BRANCH  10  11
HETATM   11  C   UNL     1      -6.981   6.784  68.971  1.00  0.00    -0.082 C  
HETATM   12  C   UNL     1      -7.233   7.034  67.501  1.00  0.00    -0.090 C  
HETATM   13  O   UNL     1      -6.958   5.946  66.743  1.00  0.00    -0.065 OA 
HETATM   14  O   UNL     1      -7.636   8.079  67.019  1.00  0.00    -0.093 OA 
ENDBRANCH  10  11
ENDBRANCH   9  10
ENDBRANCH   8   9
ENDBRANCH   7   8
ENDBRANCH   6   7
ENDBRANCH   5   6
ENDBRANCH   4   5
ENDBRANCH   3   4
ENDBRANCH   2   3
TORSDOF 9
ENDMDL
MODEL      268
REMARK 921   NORMALIZED FREE ENERGY PREDICTED BY IDOCK:   -2.51 KCAL/MOL
REMARK 922        TOTAL FREE ENERGY PREDICTED BY IDOCK:   -4.38 KCAL/MOL
REMARK 923 INTER-LIGAND FREE ENERGY PREDICTED BY IDOCK:   -4.00 KCAL/MOL
REMARK 924 INTRA-LIGAND FREE ENERGY PREDICTED BY IDOCK:   -0.38 KCAL/MOL
REMARK 927      BINDING AFFINITY PREDICTED BY RF-SCORE:    0.00 PKD
ROOT
HETATM    1  C   UNL     1      -8.025   7.473  71.929  1.00  0.00    -0.100 C  
HETATM    2  C   UNL     1      -8.900   8.698  71.719  1.00  0.00    -0.281 C  
ENDROOT
BRANCH   2   3
HETATM    3  C   UNL     1     -10.328   8.301  71.348  1.00  0.00    -0.270 C  
BRANCH   3   4
HETATM    4  C   UNL     1     -11.244   9.521  71.278  1.00  0.00    -0.452 C  
BRANCH   4   5
HETATM    5  C   UNL     1     -11.238  10.130  69.877  1.00  0.00    -0.343 C  
BRANCH   5   6
HETATM    6  C   UNL     1     -11.793  11.552  69.893  1.00  0.00    -0.430 C  
BRANCH   6   7
HETATM    7  C   UNL     1     -11.829  12.146  68.485  1.00  0.00    -0.365 C  
BRANCH   7   8
HETATM    8  C   UNL     1     -11.968  13.667  68.541  1.00  0.00    -0.396 C  
BRANCH   8   9
HETATM    9  C   UNL     1     -11.439  14.324  67.268  1.00  0.00    -0.371 C  
BRANCH   9  10
HETATM   10  C   UNL     1     -10.364  15.359  67.599  1.00  0.00    -0.262 C  
BRANCH  10  11
HETATM   11  C   UNL     1      -8.976  14.877  67.186  1.00  0.00    -0.230 C  
HETATM   12  C   UNL     1      -7.970  15.053  68.301  1.00  0.00    -0.128 C  
HETATM   13  O   UNL     1      -6.735  14.627  67.947  1.00  0.00    -0.130 OA 
HETATM   14  O   UNL     1      -8.207  15.521  69.402  1.00  0.00    -0.239 OA 
ENDBRANCH  10  11
ENDBRANCH   9  10
ENDBRANCH   8   9
ENDBRANCH   7   8
ENDBRANCH   6   7
ENDBRANCH   5   6
ENDBRANCH   4   5
ENDBRANCH   3   4
ENDBRANCH   2   3
TORSDOF 9
ENDMDL
MODEL      269
REMARK 921   NORMALIZED FREE ENERGY PREDICTED BY IDOCK:   -2.51 KCAL/MOL
REMARK 922        TOTAL FREE ENERGY PREDICTED BY IDOCK:   -4.38 KCAL/MOL
REMARK 923 INTER-LIGAND FREE ENERGY PREDICTED BY IDOCK:   -3.75 KCAL/MOL
REMARK 924 INTRA-LIGAND FREE ENERGY PREDICTED BY IDOCK:   -0.63 KCAL/MOL
REMARK 927      BINDING AFFINITY PREDICTED BY RF-SCORE:    0.00 PKD
ROOT
HETATM    1  C   UNL     1      -8.308   3.207  64.368  1.00  0.00    -0.093 C  
HETATM    2  C   UNL     1      -8.491   4.370  65.329  1.00  0.00    -0.121 C  
ENDROOT
BRANCH   2   3
HETATM    3  C   UNL     1      -9.960   4.549  65.707  1.00  0.00    -0.253 C  
BRANCH   3   4
HETATM    4  C   UNL     1     -10.168   5.800  66.558  1.00  0.00    -0.241 C  
BRANCH   4   5
HETATM    5  C   UNL     1      -9.015   6.785  66.372  1.00  0.00    -0.165 C  
BRANCH   5   6
HETATM    6  C   UNL     1      -9.458   8.214  66.678  1.00  0.00    -0.274 C  
BRANCH   6   7
HETATM    7  C   UNL     1     -10.781   8.230  67.443  1.00  0.00    -0.236 C  
BRANCH   7   8
HETATM    8  C   UNL     1     -10.659   9.063  68.718  1.00  0.00    -0.196 C  
BRANCH   8   9
HETATM    9  C   UNL     1     -10.038   8.255  69.856  1.00  0.00    -0.195 C  
BRANCH   9  10
HETATM   10  C   UNL     1     -10.840   8.429  71.146  1.00  0.00    -0.286 C  
BRANCH  10  11
HETATM   11  C   UNL     1     -11.355   9.858  71.296  1.00  0.00    -0.404 C  
HETATM   12  C   UNL     1     -12.787   9.887  71.781  1.00  0.00    -0.442 C  
HETATM   13  O   UNL     1     -13.254  11.151  71.919  1.00  0.00    -0.470 OA 
HETATM   14  O   UNL     1     -13.472   8.909  72.028  1.00  0.00    -0.373 OA 
ENDBRANCH  10  11
ENDBRANCH   9  10
ENDBRANCH   8   9
ENDBRANCH   7   8
ENDBRANCH   6   7
ENDBRANCH   5   6
ENDBRANCH   4   5
ENDBRANCH   3   4
ENDBRANCH   2   3
TORSDOF 9
ENDMDL
MODEL      270
REMARK 921   NORMALIZED FREE ENERGY PREDICTED BY IDOCK:   -2.51 KCAL/MOL
REMARK 922        TOTAL FREE ENERGY PREDICTED BY IDOCK:   -4.37 KCAL/MOL
REMARK 923 INTER-LIGAND FREE ENERGY PREDICTED BY IDOCK:   -3.68 KCAL/MOL
REMARK 924 INTRA-LIGAND FREE ENERGY PREDICTED BY IDOCK:   -0.69 KCAL/MOL
REMARK 927      BINDING AFFINITY PREDICTED BY RF-SCORE:    0.00 PKD
ROOT
HETATM    1  C   UNL     1     -12.653  12.668  64.889  1.00  0.00    -0.525 C  
HETATM    2  C   UNL     1     -12.128  11.973  63.644  1.00  0.00    -0.627 C  
ENDROOT
BRANCH   2   3
HETATM    3  C   UNL     1     -10.681  12.370  63.358  1.00  0.00    -0.398 C  
BRANCH   3   4
HETATM    4  C   UNL     1      -9.774  11.144  63.277  1.00  0.00    -0.398 C  
BRANCH   4   5
HETATM    5  C   UNL     1      -9.657  10.459  64.637  1.00  0.00    -0.360 C  
BRANCH   5   6
HETATM    6  C   UNL     1      -8.871  11.322  65.622  1.00  0.00    -0.124 C  
BRANCH   6   7
HETATM    7  C   UNL     1      -7.965  10.465  66.506  1.00  0.00    -0.123 C  
BRANCH   7   8
HETATM    8  C   UNL     1      -8.573   9.080  66.724  1.00  0.00    -0.129 C  
BRANCH   8   9
HETATM    9  C   UNL     1      -7.558   7.974  66.443  1.00  0.00    -0.091 C  
BRANCH   9  10
HETATM   10  C   UNL     1      -8.102   6.615  66.884  1.00  0.00    -0.113 C  
BRANCH  10  11
HETATM   11  C   UNL     1      -9.611   6.661  67.107  1.00  0.00    -0.168 C  
HETATM   12  C   UNL     1      -9.978   6.278  68.523  1.00  0.00    -0.144 C  
HETATM   13  O   UNL     1     -11.315   6.317  68.734  1.00  0.00    -0.356 OA 
HETATM   14  O   UNL     1      -9.190   5.966  69.400  1.00  0.00    -0.129 OA 
ENDBRANCH  10  11
ENDBRANCH   9  10
ENDBRANCH   8   9
ENDBRANCH   7   8
ENDBRANCH   6   7
ENDBRANCH   5   6
ENDBRANCH   4   5
ENDBRANCH   3   4
ENDBRANCH   2   3
TORSDOF 9
ENDMDL
MODEL      271
REMARK 921   NORMALIZED FREE ENERGY PREDICTED BY IDOCK:   -2.51 KCAL/MOL
REMARK 922        TOTAL FREE ENERGY PREDICTED BY IDOCK:   -4.37 KCAL/MOL
REMARK 923 INTER-LIGAND FREE ENERGY PREDICTED BY IDOCK:   -3.53 KCAL/MOL
REMARK 924 INTRA-LIGAND FREE ENERGY PREDICTED BY IDOCK:   -0.84 KCAL/MOL
REMARK 927      BINDING AFFINITY PREDICTED BY RF-SCORE:    0.00 PKD
ROOT
HETATM    1  C   UNL     1     -11.095   7.387  72.949  1.00  0.00    -0.397 C  
HETATM    2  C   UNL     1     -10.853   5.992  73.504  1.00  0.00    -0.222 C  
ENDROOT
BRANCH   2   3
HETATM    3  C   UNL     1     -10.387   5.035  72.408  1.00  0.00    -0.261 C  
BRANCH   3   4
HETATM    4  C   UNL     1      -9.001   5.415  71.891  1.00  0.00    -0.144 C  
BRANCH   4   5
HETATM    5  C   UNL     1      -9.005   5.553  70.369  1.00  0.00    -0.156 C  
BRANCH   5   6
HETATM    6  C   UNL     1     -10.303   5.015  69.771  1.00  0.00    -0.286 C  
BRANCH   6   7
HETATM    7  C   UNL     1     -10.949   6.042  68.842  1.00  0.00    -0.395 C  
BRANCH   7   8
HETATM    8  C   UNL     1     -10.327   7.424  69.045  1.00  0.00    -0.214 C  
BRANCH   8   9
HETATM    9  C   UNL     1     -10.730   8.386  67.929  1.00  0.00    -0.141 C  
BRANCH   9  10
HETATM   10  C   UNL     1      -9.548   9.268  67.523  1.00  0.00    -0.184 C  
BRANCH  10  11
HETATM   11  C   UNL     1      -9.349   9.275  66.010  1.00  0.00    -0.283 C  
HETATM   12  C   UNL     1      -9.989  10.485  65.368  1.00  0.00    -0.289 C  
HETATM   13  O   UNL     1      -9.817  10.503  64.025  1.00  0.00    -0.302 OA 
HETATM   14  O   UNL     1     -10.597  11.363  65.958  1.00  0.00    -0.255 OA 
ENDBRANCH  10  11
ENDBRANCH   9  10
ENDBRANCH   8   9
ENDBRANCH   7   8
ENDBRANCH   6   7
ENDBRANCH   5   6
ENDBRANCH   4   5
ENDBRANCH   3   4
ENDBRANCH   2   3
TORSDOF 9
ENDMDL
MODEL      272
REMARK 921   NORMALIZED FREE ENERGY PREDICTED BY IDOCK:   -2.50 KCAL/MOL
REMARK 922        TOTAL FREE ENERGY PREDICTED BY IDOCK:   -4.36 KCAL/MOL
REMARK 923 INTER-LIGAND FREE ENERGY PREDICTED BY IDOCK:   -3.59 KCAL/MOL
REMARK 924 INTRA-LIGAND FREE ENERGY PREDICTED BY IDOCK:   -0.76 KCAL/MOL
REMARK 927      BINDING AFFINITY PREDICTED BY RF-SCORE:    0.00 PKD
ROOT
HETATM    1  C   UNL     1      -9.881   4.366  66.335  1.00  0.00    -0.245 C  
HETATM    2  C   UNL     1      -9.040   3.318  67.047  1.00  0.00    -0.196 C  
ENDROOT
BRANCH   2   3
HETATM    3  C   UNL     1      -8.534   3.837  68.391  1.00  0.00    -0.108 C  
BRANCH   3   4
HETATM    4  C   UNL     1      -9.625   3.777  69.458  1.00  0.00    -0.230 C  
BRANCH   4   5
HETATM    5  C   UNL     1      -9.708   5.092  70.230  1.00  0.00    -0.272 C  
BRANCH   5   6
HETATM    6  C   UNL     1      -9.565   4.859  71.733  1.00  0.00    -0.210 C  
BRANCH   6   7
HETATM    7  C   UNL     1     -10.858   5.207  72.470  1.00  0.00    -0.282 C  
BRANCH   7   8
HETATM    8  C   UNL     1     -11.400   6.558  72.005  1.00  0.00    -0.326 C  
BRANCH   8   9
HETATM    9  C   UNL     1     -11.099   7.660  73.019  1.00  0.00    -0.437 C  
BRANCH   9  10
HETATM   10  C   UNL     1      -9.975   8.567  72.516  1.00  0.00    -0.322 C  
BRANCH  10  11
HETATM   11  C   UNL     1     -10.023   8.728  70.999  1.00  0.00    -0.297 C  
HETATM   12  C   UNL     1      -8.735   9.309  70.459  1.00  0.00    -0.236 C  
HETATM   13  O   UNL     1      -8.766   9.456  69.113  1.00  0.00    -0.132 OA 
HETATM   14  O   UNL     1      -7.763   9.621  71.126  1.00  0.00    -0.302 OA 
ENDBRANCH  10  11
ENDBRANCH   9  10
ENDBRANCH   8   9
ENDBRANCH   7   8
ENDBRANCH   6   7
ENDBRANCH   5   6
ENDBRANCH   4   5
ENDBRANCH   3   4
ENDBRANCH   2   3
TORSDOF 9
ENDMDL
MODEL      273
REMARK 921   NORMALIZED FREE ENERGY PREDICTED BY IDOCK:   -2.49 KCAL/MOL
REMARK 922        TOTAL FREE ENERGY PREDICTED BY IDOCK:   -4.35 KCAL/MOL
REMARK 923 INTER-LIGAND FREE ENERGY PREDICTED BY IDOCK:   -3.72 KCAL/MOL
REMARK 924 INTRA-LIGAND FREE ENERGY PREDICTED BY IDOCK:   -0.62 KCAL/MOL
REMARK 927      BINDING AFFINITY PREDICTED BY RF-SCORE:    0.00 PKD
ROOT
HETATM    1  C   UNL     1     -10.191   5.305  72.923  1.00  0.00    -0.218 C  
HETATM    2  C   UNL     1     -10.453   5.520  71.441  1.00  0.00    -0.305 C  
ENDROOT
BRANCH   2   3
HETATM    3  C   UNL     1     -11.701   6.373  71.219  1.00  0.00    -0.359 C  
BRANCH   3   4
HETATM    4  C   UNL     1     -11.494   7.377  70.088  1.00  0.00    -0.154 C  
BRANCH   4   5
HETATM    5  C   UNL     1     -10.588   8.524  70.533  1.00  0.00    -0.238 C  
BRANCH   5   6
HETATM    6  C   UNL     1      -9.821   9.111  69.350  1.00  0.00    -0.173 C  
BRANCH   6   7
HETATM    7  C   UNL     1     -10.224   8.434  68.041  1.00  0.00    -0.263 C  
BRANCH   7   8
HETATM    8  C   UNL     1      -9.118   8.572  66.996  1.00  0.00    -0.170 C  
BRANCH   8   9
HETATM    9  C   UNL     1      -9.603   9.338  65.767  1.00  0.00    -0.341 C  
BRANCH   9  10
HETATM   10  C   UNL     1      -9.603  10.844  66.032  1.00  0.00    -0.248 C  
BRANCH  10  11
HETATM   11  C   UNL     1     -11.009  11.429  65.942  1.00  0.00    -0.268 C  
HETATM   12  C   UNL     1     -11.002  12.931  66.118  1.00  0.00    -0.281 C  
HETATM   13  O   UNL     1     -12.245  13.461  66.039  1.00  0.00    -0.420 OA 
HETATM   14  O   UNL     1     -10.012  13.617  66.311  1.00  0.00    -0.285 OA 
ENDBRANCH  10  11
ENDBRANCH   9  10
ENDBRANCH   8   9
ENDBRANCH   7   8
ENDBRANCH   6   7
ENDBRANCH   5   6
ENDBRANCH   4   5
ENDBRANCH   3   4
ENDBRANCH   2   3
TORSDOF 9
ENDMDL
MODEL      274
REMARK 921   NORMALIZED FREE ENERGY PREDICTED BY IDOCK:   -2.49 KCAL/MOL
REMARK 922        TOTAL FREE ENERGY PREDICTED BY IDOCK:   -4.34 KCAL/MOL
REMARK 923 INTER-LIGAND FREE ENERGY PREDICTED BY IDOCK:   -3.62 KCAL/MOL
REMARK 924 INTRA-LIGAND FREE ENERGY PREDICTED BY IDOCK:   -0.72 KCAL/MOL
REMARK 927      BINDING AFFINITY PREDICTED BY RF-SCORE:    0.00 PKD
ROOT
HETATM    1  C   UNL     1     -12.620  13.668  65.299  1.00  0.00    -0.512 C  
HETATM    2  C   UNL     1     -11.209  13.770  64.742  1.00  0.00    -0.370 C  
ENDROOT
BRANCH   2   3
HETATM    3  C   UNL     1     -10.527  15.057  65.198  1.00  0.00    -0.438 C  
BRANCH   3   4
HETATM    4  C   UNL     1      -9.305  14.762  66.066  1.00  0.00    -0.249 C  
BRANCH   4   5
HETATM    5  C   UNL     1      -9.658  13.798  67.198  1.00  0.00    -0.244 C  
BRANCH   5   6
HETATM    6  C   UNL     1      -8.400  13.203  67.827  1.00  0.00    -0.171 C  
BRANCH   6   7
HETATM    7  C   UNL     1      -8.421  11.676  67.761  1.00  0.00    -0.144 C  
BRANCH   7   8
HETATM    8  C   UNL     1      -9.104  11.197  66.481  1.00  0.00    -0.193 C  
BRANCH   8   9
HETATM    9  C   UNL     1     -10.090  10.065  66.764  1.00  0.00    -0.286 C  
BRANCH   9  10
HETATM   10  C   UNL     1      -9.455   9.008  67.668  1.00  0.00    -0.166 C  
BRANCH  10  11
HETATM   11  C   UNL     1     -10.359   7.788  67.824  1.00  0.00    -0.284 C  
HETATM   12  C   UNL     1      -9.897   6.637  66.960  1.00  0.00    -0.160 C  
HETATM   13  O   UNL     1     -10.692   5.548  67.091  1.00  0.00    -0.255 OA 
HETATM   14  O   UNL     1      -8.928   6.650  66.220  1.00  0.00    -0.149 OA 
ENDBRANCH  10  11
ENDBRANCH   9  10
ENDBRANCH   8   9
ENDBRANCH   7   8
ENDBRANCH   6   7
ENDBRANCH   5   6
ENDBRANCH   4   5
ENDBRANCH   3   4
ENDBRANCH   2   3
TORSDOF 9
ENDMDL
MODEL      275
REMARK 921   NORMALIZED FREE ENERGY PREDICTED BY IDOCK:   -2.48 KCAL/MOL
REMARK 922        TOTAL FREE ENERGY PREDICTED BY IDOCK:   -4.33 KCAL/MOL
REMARK 923 INTER-LIGAND FREE ENERGY PREDICTED BY IDOCK:   -4.01 KCAL/MOL
REMARK 924 INTRA-LIGAND FREE ENERGY PREDICTED BY IDOCK:   -0.32 KCAL/MOL
REMARK 927      BINDING AFFINITY PREDICTED BY RF-SCORE:    0.00 PKD
ROOT
HETATM    1  C   UNL     1     -10.638  11.915  63.870  1.00  0.00    -0.444 C  
HETATM    2  C   UNL     1     -10.024  10.558  64.172  1.00  0.00    -0.385 C  
ENDROOT
BRANCH   2   3
HETATM    3  C   UNL     1     -10.087  10.243  65.665  1.00  0.00    -0.341 C  
BRANCH   3   4
HETATM    4  C   UNL     1      -9.262   9.004  66.008  1.00  0.00    -0.284 C  
BRANCH   4   5
HETATM    5  C   UNL     1      -9.672   8.431  67.363  1.00  0.00    -0.222 C  
BRANCH   5   6
HETATM    6  C   UNL     1     -10.948   7.600  67.246  1.00  0.00    -0.122 C  
BRANCH   6   7
HETATM    7  C   UNL     1     -10.859   6.330  68.090  1.00  0.00    -0.401 C  
BRANCH   7   8
HETATM    8  C   UNL     1     -11.391   6.577  69.501  1.00  0.00    -0.419 C  
BRANCH   8   9
HETATM    9  C   UNL     1     -10.677   5.700  70.529  1.00  0.00    -0.344 C  
BRANCH   9  10
HETATM   10  C   UNL     1     -11.070   6.103  71.951  1.00  0.00    -0.324 C  
BRANCH  10  11
HETATM   11  C   UNL     1     -11.406   4.884  72.805  1.00  0.00    -0.229 C  
HETATM   12  C   UNL     1     -10.258   4.505  73.713  1.00  0.00    -0.185 C  
HETATM   13  O   UNL     1     -10.545   3.425  74.477  1.00  0.00    -0.192 OA 
HETATM   14  O   UNL     1      -9.184   5.080  73.776  1.00  0.00    -0.122 OA 
ENDBRANCH  10  11
ENDBRANCH   9  10
ENDBRANCH   8   9
ENDBRANCH   7   8
ENDBRANCH   6   7
ENDBRANCH   5   6
ENDBRANCH   4   5
ENDBRANCH   3   4
ENDBRANCH   2   3
TORSDOF 9
ENDMDL
MODEL      276
REMARK 921   NORMALIZED FREE ENERGY PREDICTED BY IDOCK:   -2.48 KCAL/MOL
REMARK 922        TOTAL FREE ENERGY PREDICTED BY IDOCK:   -4.33 KCAL/MOL
REMARK 923 INTER-LIGAND FREE ENERGY PREDICTED BY IDOCK:   -3.75 KCAL/MOL
REMARK 924 INTRA-LIGAND FREE ENERGY PREDICTED BY IDOCK:   -0.58 KCAL/MOL
REMARK 927      BINDING AFFINITY PREDICTED BY RF-SCORE:    0.00 PKD
ROOT
HETATM    1  C   UNL     1      -6.778  11.073  69.032  1.00  0.00    -0.074 C  
HETATM    2  C   UNL     1      -6.993  10.513  67.635  1.00  0.00    -0.079 C  
ENDROOT
BRANCH   2   3
HETATM    3  C   UNL     1      -5.860  10.921  66.696  1.00  0.00    -0.096 C  
BRANCH   3   4
HETATM    4  C   UNL     1      -6.068  10.352  65.294  1.00  0.00    -0.130 C  
BRANCH   4   5
HETATM    5  C   UNL     1      -7.511   9.888  65.100  1.00  0.00    -0.133 C  
BRANCH   5   6
HETATM    6  C   UNL     1      -7.862   9.788  63.617  1.00  0.00    -0.142 C  
BRANCH   6   7
HETATM    7  C   UNL     1      -9.169  10.516  63.310  1.00  0.00    -0.299 C  
BRANCH   7   8
HETATM    8  C   UNL     1     -10.079  10.540  64.538  1.00  0.00    -0.402 C  
BRANCH   8   9
HETATM    9  C   UNL     1     -10.275  11.963  65.059  1.00  0.00    -0.316 C  
BRANCH   9  10
HETATM   10  C   UNL     1     -11.679  12.138  65.638  1.00  0.00    -0.385 C  
BRANCH  10  11
HETATM   11  C   UNL     1     -11.694  13.163  66.769  1.00  0.00    -0.439 C  
HETATM   12  C   UNL     1     -11.909  12.506  68.114  1.00  0.00    -0.317 C  
HETATM   13  O   UNL     1     -11.924  13.406  69.126  1.00  0.00    -0.317 OA 
HETATM   14  O   UNL     1     -12.057  11.311  68.304  1.00  0.00    -0.619 OA 
ENDBRANCH  10  11
ENDBRANCH   9  10
ENDBRANCH   8   9
ENDBRANCH   7   8
ENDBRANCH   6   7
ENDBRANCH   5   6
ENDBRANCH   4   5
ENDBRANCH   3   4
ENDBRANCH   2   3
TORSDOF 9
ENDMDL
MODEL      277
REMARK 921   NORMALIZED FREE ENERGY PREDICTED BY IDOCK:   -2.47 KCAL/MOL
REMARK 922        TOTAL FREE ENERGY PREDICTED BY IDOCK:   -4.32 KCAL/MOL
REMARK 923 INTER-LIGAND FREE ENERGY PREDICTED BY IDOCK:   -3.79 KCAL/MOL
REMARK 924 INTRA-LIGAND FREE ENERGY PREDICTED BY IDOCK:   -0.53 KCAL/MOL
REMARK 927      BINDING AFFINITY PREDICTED BY RF-SCORE:    0.00 PKD
ROOT
HETATM    1  C   UNL     1      -7.050  19.624  67.584  1.00  0.00    -0.275 C  
HETATM    2  C   UNL     1      -8.086  19.477  66.482  1.00  0.00    -0.325 C  
ENDROOT
BRANCH   2   3
HETATM    3  C   UNL     1      -9.496  19.729  67.012  1.00  0.00    -0.476 C  
BRANCH   3   4
HETATM    4  C   UNL     1      -9.843  18.769  68.148  1.00  0.00    -0.396 C  
BRANCH   4   5
HETATM    5  C   UNL     1     -10.052  17.350  67.621  1.00  0.00    -0.327 C  
BRANCH   5   6
HETATM    6  C   UNL     1      -8.865  16.453  67.970  1.00  0.00    -0.184 C  
BRANCH   6   7
HETATM    7  C   UNL     1      -8.735  15.300  66.975  1.00  0.00    -0.260 C  
BRANCH   7   8
HETATM    8  C   UNL     1      -8.796  13.954  67.695  1.00  0.00    -0.191 C  
BRANCH   8   9
HETATM    9  C   UNL     1     -10.235  13.569  68.037  1.00  0.00    -0.243 C  
BRANCH   9  10
HETATM   10  C   UNL     1     -10.529  12.132  67.605  1.00  0.00    -0.225 C  
BRANCH  10  11
HETATM   11  C   UNL     1     -11.016  11.284  68.776  1.00  0.00    -0.270 C  
HETATM   12  C   UNL     1      -9.898  10.458  69.370  1.00  0.00    -0.213 C  
HETATM   13  O   UNL     1     -10.320   9.701  70.411  1.00  0.00    -0.254 OA 
HETATM   14  O   UNL     1      -8.742  10.448  68.985  1.00  0.00    -0.149 OA 
ENDBRANCH  10  11
ENDBRANCH   9  10
ENDBRANCH   8   9
ENDBRANCH   7   8
ENDBRANCH   6   7
ENDBRANCH   5   6
ENDBRANCH   4   5
ENDBRANCH   3   4
ENDBRANCH   2   3
TORSDOF 9
ENDMDL
MODEL      278
REMARK 921   NORMALIZED FREE ENERGY PREDICTED BY IDOCK:   -2.46 KCAL/MOL
REMARK 922        TOTAL FREE ENERGY PREDICTED BY IDOCK:   -4.30 KCAL/MOL
REMARK 923 INTER-LIGAND FREE ENERGY PREDICTED BY IDOCK:   -3.70 KCAL/MOL
REMARK 924 INTRA-LIGAND FREE ENERGY PREDICTED BY IDOCK:   -0.60 KCAL/MOL
REMARK 927      BINDING AFFINITY PREDICTED BY RF-SCORE:    0.00 PKD
ROOT
HETATM    1  C   UNL     1     -11.735  12.430  64.473  1.00  0.00    -0.427 C  
HETATM    2  C   UNL     1     -10.778  11.258  64.619  1.00  0.00    -0.371 C  
ENDROOT
BRANCH   2   3
HETATM    3  C   UNL     1     -10.612  10.860  66.084  1.00  0.00    -0.270 C  
BRANCH   3   4
HETATM    4  C   UNL     1      -9.981   9.475  66.215  1.00  0.00    -0.344 C  
BRANCH   4   5
HETATM    5  C   UNL     1      -9.066   9.404  67.436  1.00  0.00    -0.141 C  
BRANCH   5   6
HETATM    6  C   UNL     1      -8.098   8.228  67.331  1.00  0.00    -0.121 C  
BRANCH   6   7
HETATM    7  C   UNL     1      -7.863   7.583  68.697  1.00  0.00    -0.121 C  
BRANCH   7   8
HETATM    8  C   UNL     1      -9.085   7.760  69.597  1.00  0.00    -0.146 C  
BRANCH   8   9
HETATM    9  C   UNL     1      -9.927   6.486  69.653  1.00  0.00    -0.186 C  
BRANCH   9  10
HETATM   10  C   UNL     1     -11.402   6.821  69.878  1.00  0.00    -0.374 C  
BRANCH  10  11
HETATM   11  C   UNL     1     -11.724   6.961  71.363  1.00  0.00    -0.358 C  
HETATM   12  C   UNL     1     -12.042   8.392  71.733  1.00  0.00    -0.328 C  
HETATM   13  O   UNL     1     -12.331   8.528  73.049  1.00  0.00    -0.218 OA 
HETATM   14  O   UNL     1     -12.046   9.339  70.964  1.00  0.00    -0.292 OA 
ENDBRANCH  10  11
ENDBRANCH   9  10
ENDBRANCH   8   9
ENDBRANCH   7   8
ENDBRANCH   6   7
ENDBRANCH   5   6
ENDBRANCH   4   5
ENDBRANCH   3   4
ENDBRANCH   2   3
TORSDOF 9
ENDMDL
MODEL      279
REMARK 921   NORMALIZED FREE ENERGY PREDICTED BY IDOCK:   -2.45 KCAL/MOL
REMARK 922        TOTAL FREE ENERGY PREDICTED BY IDOCK:   -4.29 KCAL/MOL
REMARK 923 INTER-LIGAND FREE ENERGY PREDICTED BY IDOCK:   -3.87 KCAL/MOL
REMARK 924 INTRA-LIGAND FREE ENERGY PREDICTED BY IDOCK:   -0.42 KCAL/MOL
REMARK 927      BINDING AFFINITY PREDICTED BY RF-SCORE:    0.00 PKD
ROOT
HETATM    1  C   UNL     1      -8.511   4.780  64.736  1.00  0.00    -0.141 C  
HETATM    2  C   UNL     1      -7.954   6.113  65.209  1.00  0.00    -0.115 C  
ENDROOT
BRANCH   2   3
HETATM    3  C   UNL     1      -8.577   6.533  66.538  1.00  0.00    -0.123 C  
BRANCH   3   4
HETATM    4  C   UNL     1     -10.054   6.153  66.604  1.00  0.00    -0.218 C  
BRANCH   4   5
HETATM    5  C   UNL     1     -10.881   7.278  67.224  1.00  0.00    -0.354 C  
BRANCH   5   6
HETATM    6  C   UNL     1      -9.999   8.465  67.603  1.00  0.00    -0.246 C  
BRANCH   6   7
HETATM    7  C   UNL     1     -10.721   9.790  67.357  1.00  0.00    -0.314 C  
BRANCH   7   8
HETATM    8  C   UNL     1     -10.160  10.889  68.259  1.00  0.00    -0.189 C  
BRANCH   8   9
HETATM    9  C   UNL     1     -11.125  12.068  68.368  1.00  0.00    -0.290 C  
BRANCH   9  10
HETATM   10  C   UNL     1     -12.034  11.913  69.588  1.00  0.00    -0.365 C  
BRANCH  10  11
HETATM   11  C   UNL     1     -12.225  13.241  70.315  1.00  0.00    -0.391 C  
HETATM   12  C   UNL     1     -13.014  13.069  71.593  1.00  0.00    -0.321 C  
HETATM   13  O   UNL     1     -13.189  14.241  72.248  1.00  0.00    -0.353 OA 
HETATM   14  O   UNL     1     -13.457  12.014  72.016  1.00  0.00    -0.447 OA 
ENDBRANCH  10  11
ENDBRANCH   9  10
ENDBRANCH   8   9
ENDBRANCH   7   8
ENDBRANCH   6   7
ENDBRANCH   5   6
ENDBRANCH   4   5
ENDBRANCH   3   4
ENDBRANCH   2   3
TORSDOF 9
ENDMDL
MODEL      280
REMARK 921   NORMALIZED FREE ENERGY PREDICTED BY IDOCK:   -2.45 KCAL/MOL
REMARK 922        TOTAL FREE ENERGY PREDICTED BY IDOCK:   -4.28 KCAL/MOL
REMARK 923 INTER-LIGAND FREE ENERGY PREDICTED BY IDOCK:   -3.61 KCAL/MOL
REMARK 924 INTRA-LIGAND FREE ENERGY PREDICTED BY IDOCK:   -0.67 KCAL/MOL
REMARK 927      BINDING AFFINITY PREDICTED BY RF-SCORE:    0.00 PKD
ROOT
HETATM    1  C   UNL     1      -7.698  14.959  67.236  1.00  0.00    -0.227 C  
HETATM    2  C   UNL     1      -8.836  15.823  66.717  1.00  0.00    -0.299 C  
ENDROOT
BRANCH   2   3
HETATM    3  C   UNL     1      -9.529  16.566  67.857  1.00  0.00    -0.220 C  
BRANCH   3   4
HETATM    4  C   UNL     1     -11.027  16.270  67.884  1.00  0.00    -0.310 C  
BRANCH   4   5
HETATM    5  C   UNL     1     -11.336  15.093  68.807  1.00  0.00    -0.313 C  
BRANCH   5   6
HETATM    6  C   UNL     1     -11.813  13.880  68.011  1.00  0.00    -0.411 C  
BRANCH   6   7
HETATM    7  C   UNL     1     -10.735  12.798  67.954  1.00  0.00    -0.235 C  
BRANCH   7   8
HETATM    8  C   UNL     1     -11.339  11.451  67.562  1.00  0.00    -0.362 C  
BRANCH   8   9
HETATM    9  C   UNL     1     -10.536  10.289  68.145  1.00  0.00    -0.258 C  
BRANCH   9  10
HETATM   10  C   UNL     1     -10.651   9.051  67.254  1.00  0.00    -0.301 C  
BRANCH  10  11
HETATM   11  C   UNL     1      -9.549   9.015  66.200  1.00  0.00    -0.341 C  
HETATM   12  C   UNL     1      -8.557   7.906  66.467  1.00  0.00    -0.142 C  
HETATM   13  O   UNL     1      -7.574   7.864  65.536  1.00  0.00    -0.076 OA 
HETATM   14  O   UNL     1      -8.604   7.122  67.400  1.00  0.00    -0.121 OA 
ENDBRANCH  10  11
ENDBRANCH   9  10
ENDBRANCH   8   9
ENDBRANCH   7   8
ENDBRANCH   6   7
ENDBRANCH   5   6
ENDBRANCH   4   5
ENDBRANCH   3   4
ENDBRANCH   2   3
TORSDOF 9
ENDMDL
MODEL      281
REMARK 921   NORMALIZED FREE ENERGY PREDICTED BY IDOCK:   -2.45 KCAL/MOL
REMARK 922        TOTAL FREE ENERGY PREDICTED BY IDOCK:   -4.28 KCAL/MOL
REMARK 923 INTER-LIGAND FREE ENERGY PREDICTED BY IDOCK:   -3.62 KCAL/MOL
REMARK 924 INTRA-LIGAND FREE ENERGY PREDICTED BY IDOCK:   -0.67 KCAL/MOL
REMARK 927      BINDING AFFINITY PREDICTED BY RF-SCORE:    0.00 PKD
ROOT
HETATM    1  C   UNL     1      -6.861   4.336  65.284  1.00  0.00    -0.053 C  
HETATM    2  C   UNL     1      -8.305   4.784  65.442  1.00  0.00    -0.122 C  
ENDROOT
BRANCH   2   3
HETATM    3  C   UNL     1      -8.494   5.605  66.716  1.00  0.00    -0.111 C  
BRANCH   3   4
HETATM    4  C   UNL     1      -9.448   6.775  66.487  1.00  0.00    -0.193 C  
BRANCH   4   5
HETATM    5  C   UNL     1     -10.275   7.059  67.740  1.00  0.00    -0.227 C  
BRANCH   5   6
HETATM    6  C   UNL     1     -10.475   8.560  67.939  1.00  0.00    -0.262 C  
BRANCH   6   7
HETATM    7  C   UNL     1      -9.288   9.182  68.674  1.00  0.00    -0.135 C  
BRANCH   7   8
HETATM    8  C   UNL     1      -9.169   8.615  70.088  1.00  0.00    -0.165 C  
BRANCH   8   9
HETATM    9  C   UNL     1     -10.045   9.386  71.074  1.00  0.00    -0.353 C  
BRANCH   9  10
HETATM   10  C   UNL     1     -10.542   8.467  72.190  1.00  0.00    -0.400 C  
BRANCH  10  11
HETATM   11  C   UNL     1     -12.063   8.501  72.308  1.00  0.00    -0.455 C  
HETATM   12  C   UNL     1     -12.708   7.377  71.530  1.00  0.00    -0.372 C  
HETATM   13  O   UNL     1     -14.059   7.397  71.629  1.00  0.00    -0.412 OA 
HETATM   14  O   UNL     1     -12.116   6.533  70.879  1.00  0.00    -0.355 OA 
ENDBRANCH  10  11
ENDBRANCH   9  10
ENDBRANCH   8   9
ENDBRANCH   7   8
ENDBRANCH   6   7
ENDBRANCH   5   6
ENDBRANCH   4   5
ENDBRANCH   3   4
ENDBRANCH   2   3
TORSDOF 9
ENDMDL
MODEL      282
REMARK 921   NORMALIZED FREE ENERGY PREDICTED BY IDOCK:   -2.44 KCAL/MOL
REMARK 922        TOTAL FREE ENERGY PREDICTED BY IDOCK:   -4.28 KCAL/MOL
REMARK 923 INTER-LIGAND FREE ENERGY PREDICTED BY IDOCK:   -3.63 KCAL/MOL
REMARK 924 INTRA-LIGAND FREE ENERGY PREDICTED BY IDOCK:   -0.64 KCAL/MOL
REMARK 927      BINDING AFFINITY PREDICTED BY RF-SCORE:    0.00 PKD
ROOT
HETATM    1  C   UNL     1      -8.912   7.159  65.958  1.00  0.00    -0.141 C  
HETATM    2  C   UNL     1      -8.220   6.561  67.172  1.00  0.00    -0.113 C  
ENDROOT
BRANCH   2   3
HETATM    3  C   UNL     1      -7.818   7.646  68.169  1.00  0.00    -0.121 C  
BRANCH   3   4
HETATM    4  C   UNL     1      -8.273   7.297  69.584  1.00  0.00    -0.131 C  
BRANCH   4   5
HETATM    5  C   UNL     1      -9.704   6.760  69.582  1.00  0.00    -0.160 C  
BRANCH   5   6
HETATM    6  C   UNL     1      -9.909   5.738  70.698  1.00  0.00    -0.240 C  
BRANCH   6   7
HETATM    7  C   UNL     1     -11.269   5.922  71.371  1.00  0.00    -0.285 C  
BRANCH   7   8
HETATM    8  C   UNL     1     -11.388   7.319  71.979  1.00  0.00    -0.295 C  
BRANCH   8   9
HETATM    9  C   UNL     1     -12.655   8.028  71.503  1.00  0.00    -0.332 C  
BRANCH   9  10
HETATM   10  C   UNL     1     -12.663   9.487  71.962  1.00  0.00    -0.479 C  
BRANCH  10  11
HETATM   11  C   UNL     1     -12.925  10.439  70.798  1.00  0.00    -0.422 C  
HETATM   12  C   UNL     1     -11.658  10.749  70.035  1.00  0.00    -0.334 C  
HETATM   13  O   UNL     1     -11.878  11.593  68.999  1.00  0.00    -0.297 OA 
HETATM   14  O   UNL     1     -10.549  10.310  70.292  1.00  0.00    -0.282 OA 
ENDBRANCH  10  11
ENDBRANCH   9  10
ENDBRANCH   8   9
ENDBRANCH   7   8
ENDBRANCH   6   7
ENDBRANCH   5   6
ENDBRANCH   4   5
ENDBRANCH   3   4
ENDBRANCH   2   3
TORSDOF 9
ENDMDL
MODEL      283
REMARK 921   NORMALIZED FREE ENERGY PREDICTED BY IDOCK:   -2.44 KCAL/MOL
REMARK 922        TOTAL FREE ENERGY PREDICTED BY IDOCK:   -4.27 KCAL/MOL
REMARK 923 INTER-LIGAND FREE ENERGY PREDICTED BY IDOCK:   -3.76 KCAL/MOL
REMARK 924 INTRA-LIGAND FREE ENERGY PREDICTED BY IDOCK:   -0.51 KCAL/MOL
REMARK 927      BINDING AFFINITY PREDICTED BY RF-SCORE:    0.00 PKD
ROOT
HETATM    1  C   UNL     1     -11.459   6.381  69.972  1.00  0.00    -0.496 C  
HETATM    2  C   UNL     1     -10.383   7.431  70.193  1.00  0.00    -0.219 C  
ENDROOT
BRANCH   2   3
HETATM    3  C   UNL     1     -10.535   8.592  69.213  1.00  0.00    -0.226 C  
BRANCH   3   4
HETATM    4  C   UNL     1      -9.178   9.186  68.839  1.00  0.00    -0.139 C  
BRANCH   4   5
HETATM    5  C   UNL     1      -9.346  10.499  68.076  1.00  0.00    -0.150 C  
BRANCH   5   6
HETATM    6  C   UNL     1     -10.184  11.495  68.875  1.00  0.00    -0.166 C  
BRANCH   6   7
HETATM    7  C   UNL     1     -10.078  12.902  68.286  1.00  0.00    -0.242 C  
BRANCH   7   8
HETATM    8  C   UNL     1     -11.462  13.529  68.127  1.00  0.00    -0.338 C  
BRANCH   8   9
HETATM    9  C   UNL     1     -11.936  14.172  69.430  1.00  0.00    -0.382 C  
BRANCH   9  10
HETATM   10  C   UNL     1     -11.033  15.344  69.815  1.00  0.00    -0.294 C  
BRANCH  10  11
HETATM   11  C   UNL     1     -11.057  16.441  68.753  1.00  0.00    -0.337 C  
HETATM   12  C   UNL     1      -9.662  16.914  68.409  1.00  0.00    -0.263 C  
HETATM   13  O   UNL     1      -9.671  17.886  67.467  1.00  0.00    -0.268 OA 
HETATM   14  O   UNL     1      -8.629  16.492  68.900  1.00  0.00    -0.238 OA 
ENDBRANCH  10  11
ENDBRANCH   9  10
ENDBRANCH   8   9
ENDBRANCH   7   8
ENDBRANCH   6   7
ENDBRANCH   5   6
ENDBRANCH   4   5
ENDBRANCH   3   4
ENDBRANCH   2   3
TORSDOF 9
ENDMDL
MODEL      284
REMARK 921   NORMALIZED FREE ENERGY PREDICTED BY IDOCK:   -2.43 KCAL/MOL
REMARK 922        TOTAL FREE ENERGY PREDICTED BY IDOCK:   -4.26 KCAL/MOL
REMARK 923 INTER-LIGAND FREE ENERGY PREDICTED BY IDOCK:   -3.30 KCAL/MOL
REMARK 924 INTRA-LIGAND FREE ENERGY PREDICTED BY IDOCK:   -0.96 KCAL/MOL
REMARK 927      BINDING AFFINITY PREDICTED BY RF-SCORE:    0.00 PKD
ROOT
HETATM    1  C   UNL     1      -6.911   7.200  71.858  1.00  0.00    -0.060 C  
HETATM    2  C   UNL     1      -7.519   8.389  71.130  1.00  0.00    -0.084 C  
ENDROOT
BRANCH   2   3
HETATM    3  C   UNL     1      -8.061   7.981  69.762  1.00  0.00    -0.115 C  
BRANCH   3   4
HETATM    4  C   UNL     1      -9.539   8.338  69.621  1.00  0.00    -0.167 C  
BRANCH   4   5
HETATM    5  C   UNL     1      -9.798   9.779  70.060  1.00  0.00    -0.295 C  
BRANCH   5   6
HETATM    6  C   UNL     1     -11.295  10.080  70.101  1.00  0.00    -0.357 C  
BRANCH   6   7
HETATM    7  C   UNL     1     -11.843   9.958  71.523  1.00  0.00    -0.445 C  
BRANCH   7   8
HETATM    8  C   UNL     1     -12.630   8.659  71.691  1.00  0.00    -0.381 C  
BRANCH   8   9
HETATM    9  C   UNL     1     -11.929   7.703  72.655  1.00  0.00    -0.208 C  
BRANCH   9  10
HETATM   10  C   UNL     1     -11.757   6.323  72.020  1.00  0.00    -0.374 C  
BRANCH  10  11
HETATM   11  C   UNL     1     -11.163   5.323  73.008  1.00  0.00    -0.387 C  
HETATM   12  C   UNL     1      -9.998   4.570  72.406  1.00  0.00    -0.171 C  
HETATM   13  O   UNL     1      -9.462   3.679  73.275  1.00  0.00    -0.104 OA 
HETATM   14  O   UNL     1      -9.564   4.720  71.277  1.00  0.00    -0.150 OA 
ENDBRANCH  10  11
ENDBRANCH   9  10
ENDBRANCH   8   9
ENDBRANCH   7   8
ENDBRANCH   6   7
ENDBRANCH   5   6
ENDBRANCH   4   5
ENDBRANCH   3   4
ENDBRANCH   2   3
TORSDOF 9
ENDMDL
MODEL      285
REMARK 921   NORMALIZED FREE ENERGY PREDICTED BY IDOCK:   -2.43 KCAL/MOL
REMARK 922        TOTAL FREE ENERGY PREDICTED BY IDOCK:   -4.25 KCAL/MOL
REMARK 923 INTER-LIGAND FREE ENERGY PREDICTED BY IDOCK:   -3.61 KCAL/MOL
REMARK 924 INTRA-LIGAND FREE ENERGY PREDICTED BY IDOCK:   -0.64 KCAL/MOL
REMARK 927      BINDING AFFINITY PREDICTED BY RF-SCORE:    0.00 PKD
ROOT
HETATM    1  C   UNL     1      -6.181  13.555  69.931  1.00  0.00    -0.108 C  
HETATM    2  C   UNL     1      -6.618  13.458  68.478  1.00  0.00    -0.089 C  
ENDROOT
BRANCH   2   3
HETATM    3  C   UNL     1      -7.465  12.210  68.238  1.00  0.00    -0.107 C  
BRANCH   3   4
HETATM    4  C   UNL     1      -8.329  12.357  66.987  1.00  0.00    -0.157 C  
BRANCH   4   5
HETATM    5  C   UNL     1      -8.326  11.068  66.166  1.00  0.00    -0.163 C  
BRANCH   5   6
HETATM    6  C   UNL     1      -9.719  10.762  65.619  1.00  0.00    -0.287 C  
BRANCH   6   7
HETATM    7  C   UNL     1     -10.803  11.429  66.465  1.00  0.00    -0.334 C  
BRANCH   7   8
HETATM    8  C   UNL     1     -11.260  10.501  67.589  1.00  0.00    -0.338 C  
BRANCH   8   9
HETATM    9  C   UNL     1     -11.983  11.273  68.691  1.00  0.00    -0.314 C  
BRANCH   9  10
HETATM   10  C   UNL     1     -11.209  11.190  70.007  1.00  0.00    -0.261 C  
BRANCH  10  11
HETATM   11  C   UNL     1     -11.864  10.216  70.982  1.00  0.00    -0.475 C  
HETATM   12  C   UNL     1     -10.855   9.263  71.581  1.00  0.00    -0.348 C  
HETATM   13  O   UNL     1     -11.425   8.394  72.449  1.00  0.00    -0.367 OA 
HETATM   14  O   UNL     1      -9.660   9.248  71.336  1.00  0.00    -0.266 OA 
ENDBRANCH  10  11
ENDBRANCH   9  10
ENDBRANCH   8   9
ENDBRANCH   7   8
ENDBRANCH   6   7
ENDBRANCH   5   6
ENDBRANCH   4   5
ENDBRANCH   3   4
ENDBRANCH   2   3
TORSDOF 9
ENDMDL
MODEL      286
REMARK 921   NORMALIZED FREE ENERGY PREDICTED BY IDOCK:   -2.42 KCAL/MOL
REMARK 922        TOTAL FREE ENERGY PREDICTED BY IDOCK:   -4.25 KCAL/MOL
REMARK 923 INTER-LIGAND FREE ENERGY PREDICTED BY IDOCK:   -3.64 KCAL/MOL
REMARK 924 INTRA-LIGAND FREE ENERGY PREDICTED BY IDOCK:   -0.61 KCAL/MOL
REMARK 927      BINDING AFFINITY PREDICTED BY RF-SCORE:    0.00 PKD
ROOT
HETATM    1  C   UNL     1      -8.535   7.904  73.857  1.00  0.00    -0.316 C  
HETATM    2  C   UNL     1      -9.573   7.147  73.044  1.00  0.00    -0.199 C  
ENDROOT
BRANCH   2   3
HETATM    3  C   UNL     1     -10.910   7.886  73.030  1.00  0.00    -0.408 C  
BRANCH   3   4
HETATM    4  C   UNL     1     -11.732   7.525  71.795  1.00  0.00    -0.317 C  
BRANCH   4   5
HETATM    5  C   UNL     1     -12.409   8.763  71.208  1.00  0.00    -0.313 C  
BRANCH   5   6
HETATM    6  C   UNL     1     -11.533  10.002  71.378  1.00  0.00    -0.329 C  
BRANCH   6   7
HETATM    7  C   UNL     1     -12.049  11.163  70.529  1.00  0.00    -0.474 C  
BRANCH   7   8
HETATM    8  C   UNL     1     -11.850  10.877  69.041  1.00  0.00    -0.370 C  
BRANCH   8   9
HETATM    9  C   UNL     1     -10.601  11.572  68.501  1.00  0.00    -0.236 C  
BRANCH   9  10
HETATM   10  C   UNL     1      -9.453  10.575  68.342  1.00  0.00    -0.158 C  
BRANCH  10  11
HETATM   11  C   UNL     1      -9.260  10.170  66.884  1.00  0.00    -0.168 C  
HETATM   12  C   UNL     1      -8.454   8.896  66.760  1.00  0.00    -0.115 C  
HETATM   13  O   UNL     1      -8.278   8.527  65.469  1.00  0.00    -0.121 OA 
HETATM   14  O   UNL     1      -8.000   8.251  67.690  1.00  0.00    -0.114 OA 
ENDBRANCH  10  11
ENDBRANCH   9  10
ENDBRANCH   8   9
ENDBRANCH   7   8
ENDBRANCH   6   7
ENDBRANCH   5   6
ENDBRANCH   4   5
ENDBRANCH   3   4
ENDBRANCH   2   3
TORSDOF 9
ENDMDL
MODEL      287
REMARK 921   NORMALIZED FREE ENERGY PREDICTED BY IDOCK:   -2.42 KCAL/MOL
REMARK 922        TOTAL FREE ENERGY PREDICTED BY IDOCK:   -4.24 KCAL/MOL
REMARK 923 INTER-LIGAND FREE ENERGY PREDICTED BY IDOCK:   -3.43 KCAL/MOL
REMARK 924 INTRA-LIGAND FREE ENERGY PREDICTED BY IDOCK:   -0.81 KCAL/MOL
REMARK 927      BINDING AFFINITY PREDICTED BY RF-SCORE:    0.00 PKD
ROOT
HETATM    1  C   UNL     1     -11.735  11.534  69.867  1.00  0.00    -0.420 C  
HETATM    2  C   UNL     1     -12.422  10.768  70.986  1.00  0.00    -0.522 C  
ENDROOT
BRANCH   2   3
HETATM    3  C   UNL     1     -12.255   9.261  70.807  1.00  0.00    -0.192 C  
BRANCH   3   4
HETATM    4  C   UNL     1     -12.794   8.495  72.014  1.00  0.00    -0.414 C  
BRANCH   4   5
HETATM    5  C   UNL     1     -12.416   7.016  71.936  1.00  0.00    -0.346 C  
BRANCH   5   6
HETATM    6  C   UNL     1     -11.184   6.808  71.058  1.00  0.00    -0.335 C  
BRANCH   6   7
HETATM    7  C   UNL     1      -9.937   6.567  71.907  1.00  0.00    -0.192 C  
BRANCH   7   8
HETATM    8  C   UNL     1      -9.266   7.890  72.275  1.00  0.00    -0.223 C  
BRANCH   8   9
HETATM    9  C   UNL     1      -7.744   7.781  72.211  1.00  0.00    -0.115 C  
BRANCH   9  10
HETATM   10  C   UNL     1      -7.168   8.806  71.233  1.00  0.00    -0.105 C  
BRANCH  10  11
HETATM   11  C   UNL     1      -8.227   9.300  70.252  1.00  0.00    -0.187 C  
HETATM   12  C   UNL     1      -7.730  10.475  69.441  1.00  0.00    -0.155 C  
HETATM   13  O   UNL     1      -8.662  10.922  68.565  1.00  0.00    -0.139 OA 
HETATM   14  O   UNL     1      -6.628  10.988  69.536  1.00  0.00    -0.089 OA 
ENDBRANCH  10  11
ENDBRANCH   9  10
ENDBRANCH   8   9
ENDBRANCH   7   8
ENDBRANCH   6   7
ENDBRANCH   5   6
ENDBRANCH   4   5
ENDBRANCH   3   4
ENDBRANCH   2   3
TORSDOF 9
ENDMDL
MODEL      288
REMARK 921   NORMALIZED FREE ENERGY PREDICTED BY IDOCK:   -2.42 KCAL/MOL
REMARK 922        TOTAL FREE ENERGY PREDICTED BY IDOCK:   -4.24 KCAL/MOL
REMARK 923 INTER-LIGAND FREE ENERGY PREDICTED BY IDOCK:   -3.72 KCAL/MOL
REMARK 924 INTRA-LIGAND FREE ENERGY PREDICTED BY IDOCK:   -0.51 KCAL/MOL
REMARK 927      BINDING AFFINITY PREDICTED BY RF-SCORE:    0.00 PKD
ROOT
HETATM    1  C   UNL     1      -8.265   4.322  66.326  1.00  0.00    -0.102 C  
HETATM    2  C   UNL     1      -8.716   4.877  67.667  1.00  0.00    -0.103 C  
ENDROOT
BRANCH   2   3
HETATM    3  C   UNL     1     -10.221   5.136  67.680  1.00  0.00    -0.197 C  
BRANCH   3   4
HETATM    4  C   UNL     1     -10.542   6.519  68.242  1.00  0.00    -0.302 C  
BRANCH   4   5
HETATM    5  C   UNL     1     -10.639   7.556  67.124  1.00  0.00    -0.415 C  
BRANCH   5   6
HETATM    6  C   UNL     1      -9.777   8.779  67.430  1.00  0.00    -0.225 C  
BRANCH   6   7
HETATM    7  C   UNL     1     -10.620  10.053  67.464  1.00  0.00    -0.336 C  
BRANCH   7   8
HETATM    8  C   UNL     1     -10.616  10.669  68.863  1.00  0.00    -0.241 C  
BRANCH   8   9
HETATM    9  C   UNL     1     -11.826  11.576  69.076  1.00  0.00    -0.408 C  
BRANCH   9  10
HETATM   10  C   UNL     1     -11.929  12.614  67.958  1.00  0.00    -0.300 C  
BRANCH  10  11
HETATM   11  C   UNL     1     -11.722  14.030  68.487  1.00  0.00    -0.387 C  
HETATM   12  C   UNL     1     -10.486  14.671  67.897  1.00  0.00    -0.242 C  
HETATM   13  O   UNL     1     -10.292  15.929  68.359  1.00  0.00    -0.230 OA 
HETATM   14  O   UNL     1      -9.728  14.148  67.098  1.00  0.00    -0.236 OA 
ENDBRANCH  10  11
ENDBRANCH   9  10
ENDBRANCH   8   9
ENDBRANCH   7   8
ENDBRANCH   6   7
ENDBRANCH   5   6
ENDBRANCH   4   5
ENDBRANCH   3   4
ENDBRANCH   2   3
TORSDOF 9
ENDMDL
MODEL      289
REMARK 921   NORMALIZED FREE ENERGY PREDICTED BY IDOCK:   -2.42 KCAL/MOL
REMARK 922        TOTAL FREE ENERGY PREDICTED BY IDOCK:   -4.23 KCAL/MOL
REMARK 923 INTER-LIGAND FREE ENERGY PREDICTED BY IDOCK:   -3.67 KCAL/MOL
REMARK 924 INTRA-LIGAND FREE ENERGY PREDICTED BY IDOCK:   -0.56 KCAL/MOL
REMARK 927      BINDING AFFINITY PREDICTED BY RF-SCORE:    0.00 PKD
ROOT
HETATM    1  C   UNL     1      -7.649   8.736  64.235  1.00  0.00    -0.117 C  
HETATM    2  C   UNL     1      -7.905   8.994  65.711  1.00  0.00    -0.098 C  
ENDROOT
BRANCH   2   3
HETATM    3  C   UNL     1      -8.743   7.877  66.330  1.00  0.00    -0.174 C  
BRANCH   3   4
HETATM    4  C   UNL     1      -9.650   8.410  67.436  1.00  0.00    -0.202 C  
BRANCH   4   5
HETATM    5  C   UNL     1     -10.012   9.874  67.190  1.00  0.00    -0.252 C  
BRANCH   5   6
HETATM    6  C   UNL     1     -11.067  10.355  68.183  1.00  0.00    -0.344 C  
BRANCH   6   7
HETATM    7  C   UNL     1     -11.413  11.826  67.951  1.00  0.00    -0.387 C  
BRANCH   7   8
HETATM    8  C   UNL     1     -11.573  12.116  66.459  1.00  0.00    -0.425 C  
BRANCH   8   9
HETATM    9  C   UNL     1     -11.387  13.602  66.157  1.00  0.00    -0.324 C  
BRANCH   9  10
HETATM   10  C   UNL     1     -10.805  14.333  67.367  1.00  0.00    -0.288 C  
BRANCH  10  11
HETATM   11  C   UNL     1     -10.910  15.847  67.212  1.00  0.00    -0.279 C  
HETATM   12  C   UNL     1     -10.036  16.573  68.209  1.00  0.00    -0.250 C  
HETATM   13  O   UNL     1     -10.120  17.918  68.079  1.00  0.00    -0.320 OA 
HETATM   14  O   UNL     1      -9.325  16.043  69.046  1.00  0.00    -0.213 OA 
ENDBRANCH  10  11
ENDBRANCH   9  10
ENDBRANCH   8   9
ENDBRANCH   7   8
ENDBRANCH   6   7
ENDBRANCH   5   6
ENDBRANCH   4   5
ENDBRANCH   3   4
ENDBRANCH   2   3
TORSDOF 9
ENDMDL
MODEL      290
REMARK 921   NORMALIZED FREE ENERGY PREDICTED BY IDOCK:   -2.41 KCAL/MOL
REMARK 922        TOTAL FREE ENERGY PREDICTED BY IDOCK:   -4.23 KCAL/MOL
REMARK 923 INTER-LIGAND FREE ENERGY PREDICTED BY IDOCK:   -3.80 KCAL/MOL
REMARK 924 INTRA-LIGAND FREE ENERGY PREDICTED BY IDOCK:   -0.42 KCAL/MOL
REMARK 927      BINDING AFFINITY PREDICTED BY RF-SCORE:    0.00 PKD
ROOT
HETATM    1  C   UNL     1      -6.850   4.787  64.416  1.00  0.00    -0.049 C  
HETATM    2  C   UNL     1      -8.139   5.166  65.127  1.00  0.00    -0.118 C  
ENDROOT
BRANCH   2   3
HETATM    3  C   UNL     1      -7.947   6.408  65.995  1.00  0.00    -0.115 C  
BRANCH   3   4
HETATM    4  C   UNL     1      -9.152   7.342  65.905  1.00  0.00    -0.064 C  
BRANCH   4   5
HETATM    5  C   UNL     1      -8.758   8.686  65.297  1.00  0.00    -0.200 C  
BRANCH   5   6
HETATM    6  C   UNL     1      -8.326   9.674  66.378  1.00  0.00    -0.120 C  
BRANCH   6   7
HETATM    7  C   UNL     1      -9.345   9.727  67.516  1.00  0.00    -0.152 C  
BRANCH   7   8
HETATM    8  C   UNL     1     -10.671  10.310  67.029  1.00  0.00    -0.281 C  
BRANCH   8   9
HETATM    9  C   UNL     1     -10.617  11.835  66.954  1.00  0.00    -0.270 C  
BRANCH   9  10
HETATM   10  C   UNL     1     -11.873  12.389  66.282  1.00  0.00    -0.431 C  
BRANCH  10  11
HETATM   11  C   UNL     1     -11.678  13.835  65.835  1.00  0.00    -0.370 C  
HETATM   12  C   UNL     1     -12.276  14.083  64.469  1.00  0.00    -0.434 C  
HETATM   13  O   UNL     1     -12.110  15.364  64.062  1.00  0.00    -0.574 OA 
HETATM   14  O   UNL     1     -12.850  13.252  63.784  1.00  0.00    -0.625 OA 
ENDBRANCH  10  11
ENDBRANCH   9  10
ENDBRANCH   8   9
ENDBRANCH   7   8
ENDBRANCH   6   7
ENDBRANCH   5   6
ENDBRANCH   4   5
ENDBRANCH   3   4
ENDBRANCH   2   3
TORSDOF 9
ENDMDL
MODEL      291
REMARK 921   NORMALIZED FREE ENERGY PREDICTED BY IDOCK:   -2.41 KCAL/MOL
REMARK 922        TOTAL FREE ENERGY PREDICTED BY IDOCK:   -4.22 KCAL/MOL
REMARK 923 INTER-LIGAND FREE ENERGY PREDICTED BY IDOCK:   -3.30 KCAL/MOL
REMARK 924 INTRA-LIGAND FREE ENERGY PREDICTED BY IDOCK:   -0.92 KCAL/MOL
REMARK 927      BINDING AFFINITY PREDICTED BY RF-SCORE:    0.00 PKD
ROOT
HETATM    1  C   UNL     1     -12.926  10.565  71.379  1.00  0.00    -0.542 C  
HETATM    2  C   UNL     1     -11.477  10.324  70.990  1.00  0.00    -0.386 C  
ENDROOT
BRANCH   2   3
HETATM    3  C   UNL     1     -11.187   8.834  70.830  1.00  0.00    -0.309 C  
BRANCH   3   4
HETATM    4  C   UNL     1     -11.686   8.038  72.034  1.00  0.00    -0.375 C  
BRANCH   4   5
HETATM    5  C   UNL     1     -10.599   7.102  72.560  1.00  0.00    -0.273 C  
BRANCH   5   6
HETATM    6  C   UNL     1      -9.508   7.882  73.292  1.00  0.00    -0.350 C  
BRANCH   6   7
HETATM    7  C   UNL     1      -8.117   7.440  72.841  1.00  0.00    -0.130 C  
BRANCH   7   8
HETATM    8  C   UNL     1      -7.707   8.164  71.559  1.00  0.00    -0.102 C  
BRANCH   8   9
HETATM    9  C   UNL     1      -7.706   7.218  70.360  1.00  0.00    -0.094 C  
BRANCH   9  10
HETATM   10  C   UNL     1      -8.145   7.950  69.091  1.00  0.00    -0.124 C  
BRANCH  10  11
HETATM   11  C   UNL     1      -8.378   6.979  67.937  1.00  0.00    -0.118 C  
HETATM   12  C   UNL     1      -9.752   7.152  67.330  1.00  0.00    -0.155 C  
HETATM   13  O   UNL     1      -9.968   6.297  66.303  1.00  0.00    -0.098 OA 
HETATM   14  O   UNL     1     -10.592   7.957  67.695  1.00  0.00    -0.240 OA 
ENDBRANCH  10  11
ENDBRANCH   9  10
ENDBRANCH   8   9
ENDBRANCH   7   8
ENDBRANCH   6   7
ENDBRANCH   5   6
ENDBRANCH   4   5
ENDBRANCH   3   4
ENDBRANCH   2   3
TORSDOF 9
ENDMDL
MODEL      292
REMARK 921   NORMALIZED FREE ENERGY PREDICTED BY IDOCK:   -2.41 KCAL/MOL
REMARK 922        TOTAL FREE ENERGY PREDICTED BY IDOCK:   -4.22 KCAL/MOL
REMARK 923 INTER-LIGAND FREE ENERGY PREDICTED BY IDOCK:   -3.61 KCAL/MOL
REMARK 924 INTRA-LIGAND FREE ENERGY PREDICTED BY IDOCK:   -0.61 KCAL/MOL
REMARK 927      BINDING AFFINITY PREDICTED BY RF-SCORE:    0.00 PKD
ROOT
HETATM    1  C   UNL     1      -6.079  13.746  68.181  1.00  0.00    -0.120 C  
HETATM    2  C   UNL     1      -7.328  13.237  67.480  1.00  0.00    -0.159 C  
ENDROOT
BRANCH   2   3
HETATM    3  C   UNL     1      -7.671  11.816  67.923  1.00  0.00    -0.125 C  
BRANCH   3   4
HETATM    4  C   UNL     1      -9.059  11.403  67.440  1.00  0.00    -0.160 C  
BRANCH   4   5
HETATM    5  C   UNL     1     -10.051  12.558  67.571  1.00  0.00    -0.207 C  
BRANCH   5   6
HETATM    6  C   UNL     1     -10.763  12.825  66.247  1.00  0.00    -0.291 C  
BRANCH   6   7
HETATM    7  C   UNL     1      -9.930  13.737  65.347  1.00  0.00    -0.254 C  
BRANCH   7   8
HETATM    8  C   UNL     1     -10.253  15.206  65.616  1.00  0.00    -0.387 C  
BRANCH   8   9
HETATM    9  C   UNL     1      -9.432  15.753  66.782  1.00  0.00    -0.259 C  
BRANCH   9  10
HETATM   10  C   UNL     1      -8.305  16.654  66.276  1.00  0.00    -0.360 C  
BRANCH  10  11
HETATM   11  C   UNL     1      -8.020  17.795  67.248  1.00  0.00    -0.223 C  
HETATM   12  C   UNL     1      -8.711  19.072  66.827  1.00  0.00    -0.309 C  
HETATM   13  O   UNL     1      -8.465  20.092  67.683  1.00  0.00    -0.319 OA 
HETATM   14  O   UNL     1      -9.413  19.206  65.840  1.00  0.00    -0.437 OA 
ENDBRANCH  10  11
ENDBRANCH   9  10
ENDBRANCH   8   9
ENDBRANCH   7   8
ENDBRANCH   6   7
ENDBRANCH   5   6
ENDBRANCH   4   5
ENDBRANCH   3   4
ENDBRANCH   2   3
TORSDOF 9
ENDMDL
MODEL      293
REMARK 921   NORMALIZED FREE ENERGY PREDICTED BY IDOCK:   -2.40 KCAL/MOL
REMARK 922        TOTAL FREE ENERGY PREDICTED BY IDOCK:   -4.21 KCAL/MOL
REMARK 923 INTER-LIGAND FREE ENERGY PREDICTED BY IDOCK:   -3.47 KCAL/MOL
REMARK 924 INTRA-LIGAND FREE ENERGY PREDICTED BY IDOCK:   -0.74 KCAL/MOL
REMARK 927      BINDING AFFINITY PREDICTED BY RF-SCORE:    0.00 PKD
ROOT
HETATM    1  C   UNL     1      -7.110  20.232  67.005  1.00  0.00    -0.309 C  
HETATM    2  C   UNL     1      -7.953  19.920  65.779  1.00  0.00    -0.198 C  
ENDROOT
BRANCH   2   3
HETATM    3  C   UNL     1      -9.388  20.411  65.956  1.00  0.00    -0.134 C  
BRANCH   3   4
HETATM    4  C   UNL     1     -10.333  19.258  66.287  1.00  0.00    -0.566 C  
BRANCH   4   5
HETATM    5  C   UNL     1     -10.706  19.264  67.768  1.00  0.00    -0.478 C  
BRANCH   5   6
HETATM    6  C   UNL     1     -10.027  18.115  68.511  1.00  0.00    -0.408 C  
BRANCH   6   7
HETATM    7  C   UNL     1     -10.397  16.766  67.896  1.00  0.00    -0.319 C  
BRANCH   7   8
HETATM    8  C   UNL     1     -10.669  15.729  68.986  1.00  0.00    -0.235 C  
BRANCH   8   9
HETATM    9  C   UNL     1      -9.919  14.426  68.716  1.00  0.00    -0.223 C  
BRANCH   9  10
HETATM   10  C   UNL     1      -8.479  14.708  68.287  1.00  0.00    -0.158 C  
BRANCH  10  11
HETATM   11  C   UNL     1      -7.580  14.981  69.490  1.00  0.00    -0.181 C  
HETATM   12  C   UNL     1      -6.681  13.803  69.793  1.00  0.00     0.027 C  
HETATM   13  O   UNL     1      -5.878  14.035  70.858  1.00  0.00    -0.186 OA 
HETATM   14  O   UNL     1      -6.655  12.753  69.173  1.00  0.00    -0.099 OA 
ENDBRANCH  10  11
ENDBRANCH   9  10
ENDBRANCH   8   9
ENDBRANCH   7   8
ENDBRANCH   6   7
ENDBRANCH   5   6
ENDBRANCH   4   5
ENDBRANCH   3   4
ENDBRANCH   2   3
TORSDOF 9
ENDMDL
MODEL      294
REMARK 921   NORMALIZED FREE ENERGY PREDICTED BY IDOCK:   -2.39 KCAL/MOL
REMARK 922        TOTAL FREE ENERGY PREDICTED BY IDOCK:   -4.19 KCAL/MOL
REMARK 923 INTER-LIGAND FREE ENERGY PREDICTED BY IDOCK:   -3.73 KCAL/MOL
REMARK 924 INTRA-LIGAND FREE ENERGY PREDICTED BY IDOCK:   -0.46 KCAL/MOL
REMARK 927      BINDING AFFINITY PREDICTED BY RF-SCORE:    0.00 PKD
ROOT
HETATM    1  C   UNL     1      -7.977   7.242  65.693  1.00  0.00    -0.123 C  
HETATM    2  C   UNL     1      -9.294   7.326  66.447  1.00  0.00    -0.199 C  
ENDROOT
BRANCH   2   3
HETATM    3  C   UNL     1      -9.488   8.708  67.067  1.00  0.00    -0.221 C  
BRANCH   3   4
HETATM    4  C   UNL     1     -10.432   9.567  66.227  1.00  0.00    -0.137 C  
BRANCH   4   5
HETATM    5  C   UNL     1     -10.282  11.047  66.577  1.00  0.00    -0.280 C  
BRANCH   5   6
HETATM    6  C   UNL     1     -11.643  11.735  66.652  1.00  0.00    -0.273 C  
BRANCH   6   7
HETATM    7  C   UNL     1     -11.489  13.253  66.742  1.00  0.00    -0.387 C  
BRANCH   7   8
HETATM    8  C   UNL     1     -10.265  13.625  67.577  1.00  0.00    -0.241 C  
BRANCH   8   9
HETATM    9  C   UNL     1      -9.995  15.128  67.532  1.00  0.00    -0.225 C  
BRANCH   9  10
HETATM   10  C   UNL     1     -10.905  15.871  68.511  1.00  0.00    -0.298 C  
BRANCH  10  11
HETATM   11  C   UNL     1     -10.458  15.669  69.956  1.00  0.00    -0.333 C  
HETATM   12  C   UNL     1     -11.609  15.249  70.842  1.00  0.00    -0.343 C  
HETATM   13  O   UNL     1     -11.223  15.066  72.127  1.00  0.00    -0.315 OA 
HETATM   14  O   UNL     1     -12.761  15.085  70.478  1.00  0.00    -0.353 OA 
ENDBRANCH  10  11
ENDBRANCH   9  10
ENDBRANCH   8   9
ENDBRANCH   7   8
ENDBRANCH   6   7
ENDBRANCH   5   6
ENDBRANCH   4   5
ENDBRANCH   3   4
ENDBRANCH   2   3
TORSDOF 9
ENDMDL
MODEL      295
REMARK 921   NORMALIZED FREE ENERGY PREDICTED BY IDOCK:   -2.38 KCAL/MOL
REMARK 922        TOTAL FREE ENERGY PREDICTED BY IDOCK:   -4.18 KCAL/MOL
REMARK 923 INTER-LIGAND FREE ENERGY PREDICTED BY IDOCK:   -3.46 KCAL/MOL
REMARK 924 INTRA-LIGAND FREE ENERGY PREDICTED BY IDOCK:   -0.72 KCAL/MOL
REMARK 927      BINDING AFFINITY PREDICTED BY RF-SCORE:    0.00 PKD
ROOT
HETATM    1  C   UNL     1     -11.367  11.448  69.268  1.00  0.00    -0.355 C  
HETATM    2  C   UNL     1     -10.358  10.636  68.471  1.00  0.00    -0.202 C  
ENDROOT
BRANCH   2   3
HETATM    3  C   UNL     1      -9.204  10.167  69.356  1.00  0.00    -0.229 C  
BRANCH   3   4
HETATM    4  C   UNL     1      -7.853  10.546  68.754  1.00  0.00    -0.116 C  
BRANCH   4   5
HETATM    5  C   UNL     1      -7.992  11.728  67.797  1.00  0.00    -0.141 C  
BRANCH   5   6
HETATM    6  C   UNL     1      -7.095  12.889  68.222  1.00  0.00    -0.102 C  
BRANCH   6   7
HETATM    7  C   UNL     1      -7.614  14.217  67.673  1.00  0.00    -0.191 C  
BRANCH   7   8
HETATM    8  C   UNL     1      -9.082  14.099  67.265  1.00  0.00    -0.218 C  
BRANCH   8   9
HETATM    9  C   UNL     1      -9.509  15.263  66.373  1.00  0.00    -0.326 C  
BRANCH   9  10
HETATM   10  C   UNL     1     -10.899  15.765  66.766  1.00  0.00    -0.254 C  
BRANCH  10  11
HETATM   11  C   UNL     1     -10.896  16.386  68.160  1.00  0.00    -0.346 C  
HETATM   12  C   UNL     1     -11.683  15.550  69.145  1.00  0.00    -0.365 C  
HETATM   13  O   UNL     1     -11.686  16.091  70.386  1.00  0.00    -0.348 OA 
HETATM   14  O   UNL     1     -12.259  14.507  68.887  1.00  0.00    -0.264 OA 
ENDBRANCH  10  11
ENDBRANCH   9  10
ENDBRANCH   8   9
ENDBRANCH   7   8
ENDBRANCH   6   7
ENDBRANCH   5   6
ENDBRANCH   4   5
ENDBRANCH   3   4
ENDBRANCH   2   3
TORSDOF 9
ENDMDL
MODEL      296
REMARK 921   NORMALIZED FREE ENERGY PREDICTED BY IDOCK:   -2.38 KCAL/MOL
REMARK 922        TOTAL FREE ENERGY PREDICTED BY IDOCK:   -4.18 KCAL/MOL
REMARK 923 INTER-LIGAND FREE ENERGY PREDICTED BY IDOCK:   -3.08 KCAL/MOL
REMARK 924 INTRA-LIGAND FREE ENERGY PREDICTED BY IDOCK:   -1.09 KCAL/MOL
REMARK 927      BINDING AFFINITY PREDICTED BY RF-SCORE:    0.00 PKD
ROOT
HETATM    1  C   UNL     1      -7.308  15.117  67.231  1.00  0.00    -0.216 C  
HETATM    2  C   UNL     1      -8.768  15.334  66.868  1.00  0.00    -0.288 C  
ENDROOT
BRANCH   2   3
HETATM    3  C   UNL     1      -9.265  16.691  67.360  1.00  0.00    -0.216 C  
BRANCH   3   4
HETATM    4  C   UNL     1     -10.559  16.553  68.160  1.00  0.00    -0.329 C  
BRANCH   4   5
HETATM    5  C   UNL     1     -10.752  15.116  68.644  1.00  0.00    -0.239 C  
BRANCH   5   6
HETATM    6  C   UNL     1     -12.130  14.586  68.254  1.00  0.00    -0.234 C  
BRANCH   6   7
HETATM    7  C   UNL     1     -12.028  13.202  67.614  1.00  0.00    -0.363 C  
BRANCH   7   8
HETATM    8  C   UNL     1     -11.892  12.118  68.682  1.00  0.00    -0.358 C  
BRANCH   8   9
HETATM    9  C   UNL     1     -10.899  11.038  68.259  1.00  0.00    -0.261 C  
BRANCH   9  10
HETATM   10  C   UNL     1      -9.748  11.645  67.456  1.00  0.00    -0.185 C  
BRANCH  10  11
HETATM   11  C   UNL     1      -8.571  12.015  68.355  1.00  0.00    -0.147 C  
HETATM   12  C   UNL     1      -7.470  10.981  68.287  1.00  0.00    -0.092 C  
HETATM   13  O   UNL     1      -6.420  11.299  69.080  1.00  0.00    -0.065 OA 
HETATM   14  O   UNL     1      -7.490   9.968  67.608  1.00  0.00    -0.089 OA 
ENDBRANCH  10  11
ENDBRANCH   9  10
ENDBRANCH   8   9
ENDBRANCH   7   8
ENDBRANCH   6   7
ENDBRANCH   5   6
ENDBRANCH   4   5
ENDBRANCH   3   4
ENDBRANCH   2   3
TORSDOF 9
ENDMDL
MODEL      297
REMARK 921   NORMALIZED FREE ENERGY PREDICTED BY IDOCK:   -2.38 KCAL/MOL
REMARK 922        TOTAL FREE ENERGY PREDICTED BY IDOCK:   -4.17 KCAL/MOL
REMARK 923 INTER-LIGAND FREE ENERGY PREDICTED BY IDOCK:   -3.28 KCAL/MOL
REMARK 924 INTRA-LIGAND FREE ENERGY PREDICTED BY IDOCK:   -0.89 KCAL/MOL
REMARK 927      BINDING AFFINITY PREDICTED BY RF-SCORE:    0.00 PKD
ROOT
HETATM    1  C   UNL     1     -12.237  11.446  70.520  1.00  0.00    -0.478 C  
HETATM    2  C   UNL     1     -12.634   9.983  70.404  1.00  0.00    -0.142 C  
ENDROOT
BRANCH   2   3
HETATM    3  C   UNL     1     -13.048   9.413  71.759  1.00  0.00    -0.488 C  
BRANCH   3   4
HETATM    4  C   UNL     1     -12.205   8.195  72.131  1.00  0.00    -0.398 C  
BRANCH   4   5
HETATM    5  C   UNL     1     -11.276   7.802  70.983  1.00  0.00    -0.282 C  
BRANCH   5   6
HETATM    6  C   UNL     1      -9.817   7.795  71.434  1.00  0.00    -0.195 C  
BRANCH   6   7
HETATM    7  C   UNL     1      -8.876   8.063  70.260  1.00  0.00    -0.145 C  
BRANCH   7   8
HETATM    8  C   UNL     1      -9.256   9.360  69.545  1.00  0.00    -0.182 C  
BRANCH   8   9
HETATM    9  C   UNL     1      -8.073  10.323  69.470  1.00  0.00    -0.170 C  
BRANCH   9  10
HETATM   10  C   UNL     1      -7.961  10.935  68.073  1.00  0.00    -0.109 C  
BRANCH  10  11
HETATM   11  C   UNL     1      -9.264  10.791  67.292  1.00  0.00    -0.158 C  
HETATM   12  C   UNL     1      -9.070   9.991  66.024  1.00  0.00    -0.155 C  
HETATM   13  O   UNL     1     -10.221   9.856  65.324  1.00  0.00    -0.269 OA 
HETATM   14  O   UNL     1      -8.016   9.508  65.645  1.00  0.00    -0.104 OA 
ENDBRANCH  10  11
ENDBRANCH   9  10
ENDBRANCH   8   9
ENDBRANCH   7   8
ENDBRANCH   6   7
ENDBRANCH   5   6
ENDBRANCH   4   5
ENDBRANCH   3   4
ENDBRANCH   2   3
TORSDOF 9
ENDMDL
MODEL      298
REMARK 921   NORMALIZED FREE ENERGY PREDICTED BY IDOCK:   -2.37 KCAL/MOL
REMARK 922        TOTAL FREE ENERGY PREDICTED BY IDOCK:   -4.17 KCAL/MOL
REMARK 923 INTER-LIGAND FREE ENERGY PREDICTED BY IDOCK:   -3.30 KCAL/MOL
REMARK 924 INTRA-LIGAND FREE ENERGY PREDICTED BY IDOCK:   -0.86 KCAL/MOL
REMARK 927      BINDING AFFINITY PREDICTED BY RF-SCORE:    0.00 PKD
ROOT
HETATM    1  C   UNL     1      -6.527   9.200  65.627  1.00  0.00    -0.068 C  
HETATM    2  C   UNL     1      -6.593   8.806  67.094  1.00  0.00    -0.062 C  
ENDROOT
BRANCH   2   3
HETATM    3  C   UNL     1      -7.147   9.944  67.948  1.00  0.00    -0.086 C  
BRANCH   3   4
HETATM    4  C   UNL     1      -7.886  10.972  67.094  1.00  0.00    -0.135 C  
BRANCH   4   5
HETATM    5  C   UNL     1      -9.392  10.713  67.106  1.00  0.00    -0.172 C  
BRANCH   5   6
HETATM    6  C   UNL     1      -9.846  10.045  65.809  1.00  0.00    -0.345 C  
BRANCH   6   7
HETATM    7  C   UNL     1     -10.343  11.080  64.801  1.00  0.00    -0.389 C  
BRANCH   7   8
HETATM    8  C   UNL     1     -11.370  12.012  65.443  1.00  0.00    -0.375 C  
BRANCH   8   9
HETATM    9  C   UNL     1     -11.000  13.479  65.234  1.00  0.00    -0.303 C  
BRANCH   9  10
HETATM   10  C   UNL     1     -10.649  14.144  66.566  1.00  0.00    -0.282 C  
BRANCH  10  11
HETATM   11  C   UNL     1      -9.159  14.458  66.660  1.00  0.00    -0.265 C  
HETATM   12  C   UNL     1      -8.889  15.937  66.496  1.00  0.00    -0.305 C  
HETATM   13  O   UNL     1      -7.570  16.228  66.579  1.00  0.00    -0.246 OA 
HETATM   14  O   UNL     1      -9.735  16.796  66.310  1.00  0.00    -0.270 OA 
ENDBRANCH  10  11
ENDBRANCH   9  10
ENDBRANCH   8   9
ENDBRANCH   7   8
ENDBRANCH   6   7
ENDBRANCH   5   6
ENDBRANCH   4   5
ENDBRANCH   3   4
ENDBRANCH   2   3
TORSDOF 9
ENDMDL
MODEL      299
REMARK 921   NORMALIZED FREE ENERGY PREDICTED BY IDOCK:   -2.35 KCAL/MOL
REMARK 922        TOTAL FREE ENERGY PREDICTED BY IDOCK:   -4.13 KCAL/MOL
REMARK 923 INTER-LIGAND FREE ENERGY PREDICTED BY IDOCK:   -3.47 KCAL/MOL
REMARK 924 INTRA-LIGAND FREE ENERGY PREDICTED BY IDOCK:   -0.65 KCAL/MOL
REMARK 927      BINDING AFFINITY PREDICTED BY RF-SCORE:    0.00 PKD
ROOT
HETATM    1  C   UNL     1      -6.702   6.155  66.852  1.00  0.00    -0.061 C  
HETATM    2  C   UNL     1      -6.005   7.246  67.649  1.00  0.00    -0.034 C  
ENDROOT
BRANCH   2   3
HETATM    3  C   UNL     1      -7.015   8.214  68.262  1.00  0.00    -0.076 C  
BRANCH   3   4
HETATM    4  C   UNL     1      -8.324   7.507  68.607  1.00  0.00    -0.129 C  
BRANCH   4   5
HETATM    5  C   UNL     1      -9.523   8.415  68.343  1.00  0.00    -0.145 C  
BRANCH   5   6
HETATM    6  C   UNL     1      -9.959   8.341  66.881  1.00  0.00    -0.343 C  
BRANCH   6   7
HETATM    7  C   UNL     1      -9.861   9.709  66.206  1.00  0.00    -0.323 C  
BRANCH   7   8
HETATM    8  C   UNL     1     -10.184  10.826  67.197  1.00  0.00    -0.255 C  
BRANCH   8   9
HETATM    9  C   UNL     1      -9.912  12.203  66.593  1.00  0.00    -0.222 C  
BRANCH   9  10
HETATM   10  C   UNL     1     -11.155  13.089  66.682  1.00  0.00    -0.318 C  
BRANCH  10  11
HETATM   11  C   UNL     1     -11.288  13.991  65.458  1.00  0.00    -0.313 C  
HETATM   12  C   UNL     1     -10.626  15.332  65.680  1.00  0.00    -0.362 C  
HETATM   13  O   UNL     1     -10.737  16.142  64.600  1.00  0.00    -0.637 OA 
HETATM   14  O   UNL     1     -10.050  15.679  66.697  1.00  0.00    -0.257 OA 
ENDBRANCH  10  11
ENDBRANCH   9  10
ENDBRANCH   8   9
ENDBRANCH   7   8
ENDBRANCH   6   7
ENDBRANCH   5   6
ENDBRANCH   4   5
ENDBRANCH   3   4
ENDBRANCH   2   3
TORSDOF 9
ENDMDL
MODEL      300
REMARK 921   NORMALIZED FREE ENERGY PREDICTED BY IDOCK:   -2.34 KCAL/MOL
REMARK 922        TOTAL FREE ENERGY PREDICTED BY IDOCK:   -4.12 KCAL/MOL
REMARK 923 INTER-LIGAND FREE ENERGY PREDICTED BY IDOCK:   -2.91 KCAL/MOL
REMARK 924 INTRA-LIGAND FREE ENERGY PREDICTED BY IDOCK:   -1.21 KCAL/MOL
REMARK 927      BINDING AFFINITY PREDICTED BY RF-SCORE:    0.00 PKD
ROOT
HETATM    1  C   UNL     1     -11.103   6.996  67.559  1.00  0.00    -0.231 C  
HETATM    2  C   UNL     1     -10.441   5.818  66.862  1.00  0.00    -0.348 C  
ENDROOT
BRANCH   2   3
HETATM    3  C   UNL     1      -9.514   5.063  67.812  1.00  0.00    -0.159 C  
BRANCH   3   4
HETATM    4  C   UNL     1      -8.047   5.289  67.452  1.00  0.00    -0.100 C  
BRANCH   4   5
HETATM    5  C   UNL     1      -7.316   6.026  68.574  1.00  0.00    -0.085 C  
BRANCH   5   6
HETATM    6  C   UNL     1      -6.802   7.383  68.097  1.00  0.00    -0.063 C  
BRANCH   6   7
HETATM    7  C   UNL     1      -7.789   8.498  68.440  1.00  0.00    -0.106 C  
BRANCH   7   8
HETATM    8  C   UNL     1      -8.301   8.348  69.872  1.00  0.00    -0.124 C  
BRANCH   8   9
HETATM    9  C   UNL     1      -9.454   9.309  70.156  1.00  0.00    -0.258 C  
BRANCH   9  10
HETATM   10  C   UNL     1      -9.332  10.570  69.300  1.00  0.00    -0.177 C  
BRANCH  10  11
HETATM   11  C   UNL     1     -10.691  11.226  69.072  1.00  0.00    -0.257 C  
HETATM   12  C   UNL     1     -11.067  11.236  67.608  1.00  0.00    -0.277 C  
HETATM   13  O   UNL     1     -12.272  11.815  67.394  1.00  0.00    -0.501 OA 
HETATM   14  O   UNL     1     -10.390  10.786  66.699  1.00  0.00    -0.225 OA 
ENDBRANCH  10  11
ENDBRANCH   9  10
ENDBRANCH   8   9
ENDBRANCH   7   8
ENDBRANCH   6   7
ENDBRANCH   5   6
ENDBRANCH   4   5
ENDBRANCH   3   4
ENDBRANCH   2   3
TORSDOF 9
ENDMDL
MODEL      301
REMARK 921   NORMALIZED FREE ENERGY PREDICTED BY IDOCK:   -2.34 KCAL/MOL
REMARK 922        TOTAL FREE ENERGY PREDICTED BY IDOCK:   -4.12 KCAL/MOL
REMARK 923 INTER-LIGAND FREE ENERGY PREDICTED BY IDOCK:   -3.45 KCAL/MOL
REMARK 924 INTRA-LIGAND FREE ENERGY PREDICTED BY IDOCK:   -0.66 KCAL/MOL
REMARK 927      BINDING AFFINITY PREDICTED BY RF-SCORE:    0.00 PKD
ROOT
HETATM    1  C   UNL     1     -12.238  13.611  70.247  1.00  0.00    -0.423 C  
HETATM    2  C   UNL     1     -12.081  13.384  68.752  1.00  0.00    -0.281 C  
ENDROOT
BRANCH   2   3
HETATM    3  C   UNL     1     -10.839  12.549  68.447  1.00  0.00    -0.266 C  
BRANCH   3   4
HETATM    4  C   UNL     1     -10.608  12.425  66.942  1.00  0.00    -0.251 C  
BRANCH   4   5
HETATM    5  C   UNL     1      -9.116  12.463  66.613  1.00  0.00    -0.204 C  
BRANCH   5   6
HETATM    6  C   UNL     1      -8.286  12.776  67.856  1.00  0.00    -0.172 C  
BRANCH   6   7
HETATM    7  C   UNL     1      -7.345  13.954  67.608  1.00  0.00    -0.186 C  
BRANCH   7   8
HETATM    8  C   UNL     1      -6.611  14.341  68.891  1.00  0.00    -0.096 C  
BRANCH   8   9
HETATM    9  C   UNL     1      -6.543  15.857  69.060  1.00  0.00    -0.142 C  
BRANCH   9  10
HETATM   10  C   UNL     1      -6.500  16.553  67.699  1.00  0.00    -0.170 C  
BRANCH  10  11
HETATM   11  C   UNL     1      -7.434  17.759  67.657  1.00  0.00    -0.207 C  
HETATM   12  C   UNL     1      -8.419  17.663  66.514  1.00  0.00    -0.264 C  
HETATM   13  O   UNL     1      -9.253  18.729  66.468  1.00  0.00    -0.316 OA 
HETATM   14  O   UNL     1      -8.485  16.749  65.710  1.00  0.00    -0.472 OA 
ENDBRANCH  10  11
ENDBRANCH   9  10
ENDBRANCH   8   9
ENDBRANCH   7   8
ENDBRANCH   6   7
ENDBRANCH   5   6
ENDBRANCH   4   5
ENDBRANCH   3   4
ENDBRANCH   2   3
TORSDOF 9
ENDMDL
MODEL      302
REMARK 921   NORMALIZED FREE ENERGY PREDICTED BY IDOCK:   -2.32 KCAL/MOL
REMARK 922        TOTAL FREE ENERGY PREDICTED BY IDOCK:   -4.09 KCAL/MOL
REMARK 923 INTER-LIGAND FREE ENERGY PREDICTED BY IDOCK:   -3.58 KCAL/MOL
REMARK 924 INTRA-LIGAND FREE ENERGY PREDICTED BY IDOCK:   -0.51 KCAL/MOL
REMARK 927      BINDING AFFINITY PREDICTED BY RF-SCORE:    0.00 PKD
ROOT
HETATM    1  C   UNL     1      -7.560  14.419  67.717  1.00  0.00    -0.175 C  
HETATM    2  C   UNL     1      -8.931  14.310  67.071  1.00  0.00    -0.251 C  
ENDROOT
BRANCH   2   3
HETATM    3  C   UNL     1      -9.984  15.066  67.879  1.00  0.00    -0.222 C  
BRANCH   3   4
HETATM    4  C   UNL     1     -11.244  14.225  68.074  1.00  0.00    -0.300 C  
BRANCH   4   5
HETATM    5  C   UNL     1     -10.894  12.820  68.562  1.00  0.00    -0.279 C  
BRANCH   5   6
HETATM    6  C   UNL     1     -11.421  11.756  67.601  1.00  0.00    -0.370 C  
BRANCH   6   7
HETATM    7  C   UNL     1     -10.296  10.840  67.122  1.00  0.00    -0.269 C  
BRANCH   7   8
HETATM    8  C   UNL     1     -10.785   9.396  67.006  1.00  0.00    -0.207 C  
BRANCH   8   9
HETATM    9  C   UNL     1      -9.732   8.409  67.508  1.00  0.00    -0.209 C  
BRANCH   9  10
HETATM   10  C   UNL     1     -10.395   7.195  68.160  1.00  0.00    -0.234 C  
BRANCH  10  11
HETATM   11  C   UNL     1     -11.135   6.342  67.133  1.00  0.00    -0.422 C  
HETATM   12  C   UNL     1     -10.237   5.278  66.542  1.00  0.00    -0.253 C  
HETATM   13  O   UNL     1     -10.884   4.514  65.629  1.00  0.00    -0.270 OA 
HETATM   14  O   UNL     1      -9.066   5.099  66.828  1.00  0.00    -0.116 OA 
ENDBRANCH  10  11
ENDBRANCH   9  10
ENDBRANCH   8   9
ENDBRANCH   7   8
ENDBRANCH   6   7
ENDBRANCH   5   6
ENDBRANCH   4   5
ENDBRANCH   3   4
ENDBRANCH   2   3
TORSDOF 9
ENDMDL
MODEL      303
REMARK 921   NORMALIZED FREE ENERGY PREDICTED BY IDOCK:   -2.31 KCAL/MOL
REMARK 922        TOTAL FREE ENERGY PREDICTED BY IDOCK:   -4.08 KCAL/MOL
REMARK 923 INTER-LIGAND FREE ENERGY PREDICTED BY IDOCK:   -3.30 KCAL/MOL
REMARK 924 INTRA-LIGAND FREE ENERGY PREDICTED BY IDOCK:   -0.77 KCAL/MOL
REMARK 927      BINDING AFFINITY PREDICTED BY RF-SCORE:    0.00 PKD
ROOT
HETATM    1  C   UNL     1      -6.775   7.189  69.115  1.00  0.00    -0.049 C  
HETATM    2  C   UNL     1      -7.718   6.522  68.126  1.00  0.00    -0.105 C  
ENDROOT
BRANCH   2   3
HETATM    3  C   UNL     1      -8.912   5.892  68.840  1.00  0.00    -0.118 C  
BRANCH   3   4
HETATM    4  C   UNL     1     -10.222   6.225  68.131  1.00  0.00    -0.200 C  
BRANCH   4   5
HETATM    5  C   UNL     1     -10.379   7.734  67.950  1.00  0.00    -0.276 C  
BRANCH   5   6
HETATM    6  C   UNL     1     -10.783   8.406  69.261  1.00  0.00    -0.139 C  
BRANCH   6   7
HETATM    7  C   UNL     1     -10.255   9.838  69.332  1.00  0.00    -0.223 C  
BRANCH   7   8
HETATM    8  C   UNL     1     -10.872  10.586  70.513  1.00  0.00    -0.066 C  
BRANCH   8   9
HETATM    9  C   UNL     1     -12.396  10.480  70.506  1.00  0.00    -0.432 C  
BRANCH   9  10
HETATM   10  C   UNL     1     -12.906   9.921  71.835  1.00  0.00    -0.524 C  
BRANCH  10  11
HETATM   11  C   UNL     1     -13.175   8.421  71.745  1.00  0.00    -0.376 C  
HETATM   12  C   UNL     1     -12.092   7.618  72.429  1.00  0.00    -0.214 C  
HETATM   13  O   UNL     1     -12.320   6.285  72.357  1.00  0.00    -0.201 OA 
HETATM   14  O   UNL     1     -11.113   8.081  72.990  1.00  0.00    -0.382 OA 
ENDBRANCH  10  11
ENDBRANCH   9  10
ENDBRANCH   8   9
ENDBRANCH   7   8
ENDBRANCH   6   7
ENDBRANCH   5   6
ENDBRANCH   4   5
ENDBRANCH   3   4
ENDBRANCH   2   3
TORSDOF 9
ENDMDL
MODEL      304
REMARK 921   NORMALIZED FREE ENERGY PREDICTED BY IDOCK:   -2.30 KCAL/MOL
REMARK 922        TOTAL FREE ENERGY PREDICTED BY IDOCK:   -4.06 KCAL/MOL
REMARK 923 INTER-LIGAND FREE ENERGY PREDICTED BY IDOCK:   -3.26 KCAL/MOL
REMARK 924 INTRA-LIGAND FREE ENERGY PREDICTED BY IDOCK:   -0.80 KCAL/MOL
REMARK 927      BINDING AFFINITY PREDICTED BY RF-SCORE:    0.00 PKD
ROOT
HETATM    1  C   UNL     1      -6.558  13.695  69.411  1.00  0.00    -0.090 C  
HETATM    2  C   UNL     1      -6.547  13.197  67.975  1.00  0.00    -0.124 C  
ENDROOT
BRANCH   2   3
HETATM    3  C   UNL     1      -7.964  13.086  67.417  1.00  0.00    -0.173 C  
BRANCH   3   4
HETATM    4  C   UNL     1      -8.347  11.631  67.156  1.00  0.00    -0.164 C  
BRANCH   4   5
HETATM    5  C   UNL     1      -7.530  10.684  68.035  1.00  0.00    -0.090 C  
BRANCH   5   6
HETATM    6  C   UNL     1      -8.422   9.623  68.677  1.00  0.00    -0.119 C  
BRANCH   6   7
HETATM    7  C   UNL     1      -9.901   9.954  68.482  1.00  0.00    -0.168 C  
BRANCH   7   8
HETATM    8  C   UNL     1     -10.536  10.398  69.799  1.00  0.00    -0.284 C  
BRANCH   8   9
HETATM    9  C   UNL     1     -11.902  11.042  69.571  1.00  0.00    -0.404 C  
BRANCH   9  10
HETATM   10  C   UNL     1     -11.919  12.477  70.098  1.00  0.00    -0.377 C  
BRANCH  10  11
HETATM   11  C   UNL     1     -11.476  13.472  69.028  1.00  0.00    -0.349 C  
HETATM   12  C   UNL     1     -11.643  14.901  69.492  1.00  0.00    -0.303 C  
HETATM   13  O   UNL     1     -11.252  15.793  68.551  1.00  0.00    -0.314 OA 
HETATM   14  O   UNL     1     -12.075  15.248  70.578  1.00  0.00    -0.300 OA 
ENDBRANCH  10  11
ENDBRANCH   9  10
ENDBRANCH   8   9
ENDBRANCH   7   8
ENDBRANCH   6   7
ENDBRANCH   5   6
ENDBRANCH   4   5
ENDBRANCH   3   4
ENDBRANCH   2   3
TORSDOF 9
ENDMDL
MODEL      305
REMARK 921   NORMALIZED FREE ENERGY PREDICTED BY IDOCK:   -2.30 KCAL/MOL
REMARK 922        TOTAL FREE ENERGY PREDICTED BY IDOCK:   -4.06 KCAL/MOL
REMARK 923 INTER-LIGAND FREE ENERGY PREDICTED BY IDOCK:   -3.54 KCAL/MOL
REMARK 924 INTRA-LIGAND FREE ENERGY PREDICTED BY IDOCK:   -0.52 KCAL/MOL
REMARK 927      BINDING AFFINITY PREDICTED BY RF-SCORE:    0.00 PKD
ROOT
HETATM    1  C   UNL     1     -12.829  16.048  73.466  1.00  0.00    -0.701 C  
HETATM    2  C   UNL     1     -13.511  15.632  72.173  1.00  0.00    -0.561 C  
ENDROOT
BRANCH   2   3
HETATM    3  C   UNL     1     -12.508  15.532  71.025  1.00  0.00    -0.492 C  
BRANCH   3   4
HETATM    4  C   UNL     1     -12.313  14.084  70.582  1.00  0.00    -0.446 C  
BRANCH   4   5
HETATM    5  C   UNL     1     -11.936  14.011  69.103  1.00  0.00    -0.400 C  
BRANCH   5   6
HETATM    6  C   UNL     1     -11.365  12.640  68.748  1.00  0.00    -0.333 C  
BRANCH   6   7
HETATM    7  C   UNL     1      -9.926  12.497  69.244  1.00  0.00     0.541 C  
BRANCH   7   8
HETATM    8  C   UNL     1      -8.934  12.769  68.114  1.00  0.00    -0.199 C  
BRANCH   8   9
HETATM    9  C   UNL     1      -7.989  13.917  68.465  1.00  0.00    -0.137 C  
BRANCH   9  10
HETATM   10  C   UNL     1      -8.188  15.093  67.509  1.00  0.00    -0.196 C  
BRANCH  10  11
HETATM   11  C   UNL     1      -7.268  16.260  67.856  1.00  0.00    -0.145 C  
HETATM   12  C   UNL     1      -7.890  17.174  68.887  1.00  0.00    -0.217 C  
HETATM   13  O   UNL     1      -7.081  18.213  69.204  1.00  0.00    -0.256 OA 
HETATM   14  O   UNL     1      -8.989  17.026  69.395  1.00  0.00     0.003 OA 
ENDBRANCH  10  11
ENDBRANCH   9  10
ENDBRANCH   8   9
ENDBRANCH   7   8
ENDBRANCH   6   7
ENDBRANCH   5   6
ENDBRANCH   4   5
ENDBRANCH   3   4
ENDBRANCH   2   3
TORSDOF 9
ENDMDL
MODEL      306
REMARK 921   NORMALIZED FREE ENERGY PREDICTED BY IDOCK:   -2.29 KCAL/MOL
REMARK 922        TOTAL FREE ENERGY PREDICTED BY IDOCK:   -4.04 KCAL/MOL
REMARK 923 INTER-LIGAND FREE ENERGY PREDICTED BY IDOCK:   -3.16 KCAL/MOL
REMARK 924 INTRA-LIGAND FREE ENERGY PREDICTED BY IDOCK:   -0.88 KCAL/MOL
REMARK 927      BINDING AFFINITY PREDICTED BY RF-SCORE:    0.00 PKD
ROOT
HETATM    1  C   UNL     1     -11.152   6.802  67.383  1.00  0.00    -0.366 C  
HETATM    2  C   UNL     1     -10.533   5.568  66.747  1.00  0.00    -0.355 C  
ENDROOT
BRANCH   2   3
HETATM    3  C   UNL     1      -9.427   4.988  67.627  1.00  0.00    -0.154 C  
BRANCH   3   4
HETATM    4  C   UNL     1      -8.064   5.091  66.946  1.00  0.00    -0.107 C  
BRANCH   4   5
HETATM    5  C   UNL     1      -7.289   6.305  67.455  1.00  0.00    -0.080 C  
BRANCH   5   6
HETATM    6  C   UNL     1      -6.915   7.241  66.307  1.00  0.00    -0.066 C  
BRANCH   6   7
HETATM    7  C   UNL     1      -7.980   8.318  66.104  1.00  0.00    -0.100 C  
BRANCH   7   8
HETATM    8  C   UNL     1      -7.402   9.516  65.352  1.00  0.00    -0.099 C  
BRANCH   8   9
HETATM    9  C   UNL     1      -8.408  10.664  65.274  1.00  0.00    -0.127 C  
BRANCH   9  10
HETATM   10  C   UNL     1      -9.837  10.143  65.436  1.00  0.00    -0.375 C  
BRANCH  10  11
HETATM   11  C   UNL     1     -10.791  11.253  65.870  1.00  0.00    -0.264 C  
HETATM   12  C   UNL     1     -11.265  11.056  67.292  1.00  0.00    -0.258 C  
HETATM   13  O   UNL     1     -12.112  12.036  67.688  1.00  0.00    -0.547 OA 
HETATM   14  O   UNL     1     -10.944  10.136  68.026  1.00  0.00    -0.265 OA 
ENDBRANCH  10  11
ENDBRANCH   9  10
ENDBRANCH   8   9
ENDBRANCH   7   8
ENDBRANCH   6   7
ENDBRANCH   5   6
ENDBRANCH   4   5
ENDBRANCH   3   4
ENDBRANCH   2   3
TORSDOF 9
ENDMDL
MODEL      307
REMARK 921   NORMALIZED FREE ENERGY PREDICTED BY IDOCK:   -2.29 KCAL/MOL
REMARK 922        TOTAL FREE ENERGY PREDICTED BY IDOCK:   -4.04 KCAL/MOL
REMARK 923 INTER-LIGAND FREE ENERGY PREDICTED BY IDOCK:   -3.50 KCAL/MOL
REMARK 924 INTRA-LIGAND FREE ENERGY PREDICTED BY IDOCK:   -0.54 KCAL/MOL
REMARK 927      BINDING AFFINITY PREDICTED BY RF-SCORE:    0.00 PKD
ROOT
HETATM    1  C   UNL     1      -8.208   6.764  67.090  1.00  0.00    -0.121 C  
HETATM    2  C   UNL     1      -7.800   7.333  65.741  1.00  0.00    -0.108 C  
ENDROOT
BRANCH   2   3
HETATM    3  C   UNL     1      -8.640   8.556  65.381  1.00  0.00    -0.202 C  
BRANCH   3   4
HETATM    4  C   UNL     1      -7.881   9.853  65.653  1.00  0.00    -0.127 C  
BRANCH   4   5
HETATM    5  C   UNL     1      -8.845  11.025  65.830  1.00  0.00    -0.204 C  
BRANCH   5   6
HETATM    6  C   UNL     1     -10.058  10.883  64.913  1.00  0.00    -0.374 C  
BRANCH   6   7
HETATM    7  C   UNL     1     -10.943  12.128  64.972  1.00  0.00    -0.355 C  
BRANCH   7   8
HETATM    8  C   UNL     1     -10.806  12.826  66.325  1.00  0.00    -0.299 C  
BRANCH   8   9
HETATM    9  C   UNL     1     -12.157  13.332  66.830  1.00  0.00    -0.389 C  
BRANCH   9  10
HETATM   10  C   UNL     1     -11.969  14.494  67.806  1.00  0.00    -0.345 C  
BRANCH  10  11
HETATM   11  C   UNL     1     -10.532  15.006  67.797  1.00  0.00    -0.249 C  
HETATM   12  C   UNL     1     -10.351  16.177  68.736  1.00  0.00    -0.248 C  
HETATM   13  O   UNL     1      -9.078  16.640  68.737  1.00  0.00    -0.241 OA 
HETATM   14  O   UNL     1     -11.225  16.675  69.426  1.00  0.00    -0.243 OA 
ENDBRANCH  10  11
ENDBRANCH   9  10
ENDBRANCH   8   9
ENDBRANCH   7   8
ENDBRANCH   6   7
ENDBRANCH   5   6
ENDBRANCH   4   5
ENDBRANCH   3   4
ENDBRANCH   2   3
TORSDOF 9
ENDMDL
MODEL      308
REMARK 921   NORMALIZED FREE ENERGY PREDICTED BY IDOCK:   -2.29 KCAL/MOL
REMARK 922        TOTAL FREE ENERGY PREDICTED BY IDOCK:   -4.04 KCAL/MOL
REMARK 923 INTER-LIGAND FREE ENERGY PREDICTED BY IDOCK:   -3.51 KCAL/MOL
REMARK 924 INTRA-LIGAND FREE ENERGY PREDICTED BY IDOCK:   -0.53 KCAL/MOL
REMARK 927      BINDING AFFINITY PREDICTED BY RF-SCORE:    0.00 PKD
ROOT
HETATM    1  C   UNL     1     -10.942   5.721  67.990  1.00  0.00    -0.145 C  
HETATM    2  C   UNL     1      -9.730   5.264  68.786  1.00  0.00    -0.203 C  
ENDROOT
BRANCH   2   3
HETATM    3  C   UNL     1      -9.641   5.995  70.124  1.00  0.00    -0.192 C  
BRANCH   3   4
HETATM    4  C   UNL     1      -8.344   6.795  70.235  1.00  0.00    -0.134 C  
BRANCH   4   5
HETATM    5  C   UNL     1      -8.628   8.295  70.270  1.00  0.00    -0.127 C  
BRANCH   5   6
HETATM    6  C   UNL     1     -10.082   8.589  69.907  1.00  0.00    -0.195 C  
BRANCH   6   7
HETATM    7  C   UNL     1     -10.505   9.972  70.400  1.00  0.00    -0.304 C  
BRANCH   7   8
HETATM    8  C   UNL     1     -12.023  10.132  70.332  1.00  0.00    -0.353 C  
BRANCH   8   9
HETATM    9  C   UNL     1     -12.420  11.369  69.528  1.00  0.00    -0.100 C  
BRANCH   9  10
HETATM   10  C   UNL     1     -11.222  11.915  68.750  1.00  0.00    -0.314 C  
BRANCH  10  11
HETATM   11  C   UNL     1     -11.225  11.429  67.304  1.00  0.00    -0.370 C  
HETATM   12  C   UNL     1     -11.813  12.461  66.369  1.00  0.00    -0.354 C  
HETATM   13  O   UNL     1     -11.820  12.040  65.081  1.00  0.00    -0.318 OA 
HETATM   14  O   UNL     1     -12.242  13.554  66.698  1.00  0.00    -0.398 OA 
ENDBRANCH  10  11
ENDBRANCH   9  10
ENDBRANCH   8   9
ENDBRANCH   7   8
ENDBRANCH   6   7
ENDBRANCH   5   6
ENDBRANCH   4   5
ENDBRANCH   3   4
ENDBRANCH   2   3
TORSDOF 9
ENDMDL
MODEL      309
REMARK 921   NORMALIZED FREE ENERGY PREDICTED BY IDOCK:   -2.28 KCAL/MOL
REMARK 922        TOTAL FREE ENERGY PREDICTED BY IDOCK:   -4.02 KCAL/MOL
REMARK 923 INTER-LIGAND FREE ENERGY PREDICTED BY IDOCK:   -3.76 KCAL/MOL
REMARK 924 INTRA-LIGAND FREE ENERGY PREDICTED BY IDOCK:   -0.26 KCAL/MOL
REMARK 927      BINDING AFFINITY PREDICTED BY RF-SCORE:    0.00 PKD
ROOT
HETATM    1  C   UNL     1      -8.029   7.291  71.844  1.00  0.00    -0.091 C  
HETATM    2  C   UNL     1      -8.922   8.318  71.165  1.00  0.00    -0.192 C  
ENDROOT
BRANCH   2   3
HETATM    3  C   UNL     1     -10.030   7.641  70.362  1.00  0.00    -0.188 C  
BRANCH   3   4
HETATM    4  C   UNL     1     -11.006   8.665  69.788  1.00  0.00    -0.132 C  
BRANCH   4   5
HETATM    5  C   UNL     1     -10.434   9.323  68.533  1.00  0.00    -0.240 C  
BRANCH   5   6
HETATM    6  C   UNL     1     -11.187  10.606  68.191  1.00  0.00    -0.366 C  
BRANCH   6   7
HETATM    7  C   UNL     1     -10.458  11.403  67.110  1.00  0.00    -0.259 C  
BRANCH   7   8
HETATM    8  C   UNL     1     -11.257  12.646  66.721  1.00  0.00    -0.347 C  
BRANCH   8   9
HETATM    9  C   UNL     1     -10.337  13.803  66.337  1.00  0.00    -0.290 C  
BRANCH   9  10
HETATM   10  C   UNL     1     -10.799  15.104  66.995  1.00  0.00    -0.314 C  
BRANCH  10  11
HETATM   11  C   UNL     1     -10.783  16.268  66.008  1.00  0.00    -0.217 C  
HETATM   12  C   UNL     1     -10.155  17.503  66.613  1.00  0.00    -0.328 C  
HETATM   13  O   UNL     1     -10.134  18.543  65.746  1.00  0.00    -0.537 OA 
HETATM   14  O   UNL     1      -9.710  17.591  67.745  1.00  0.00    -0.262 OA 
ENDBRANCH  10  11
ENDBRANCH   9  10
ENDBRANCH   8   9
ENDBRANCH   7   8
ENDBRANCH   6   7
ENDBRANCH   5   6
ENDBRANCH   4   5
ENDBRANCH   3   4
ENDBRANCH   2   3
TORSDOF 9
ENDMDL
MODEL      310
REMARK 921   NORMALIZED FREE ENERGY PREDICTED BY IDOCK:   -2.26 KCAL/MOL
REMARK 922        TOTAL FREE ENERGY PREDICTED BY IDOCK:   -3.99 KCAL/MOL
REMARK 923 INTER-LIGAND FREE ENERGY PREDICTED BY IDOCK:   -3.22 KCAL/MOL
REMARK 924 INTRA-LIGAND FREE ENERGY PREDICTED BY IDOCK:   -0.78 KCAL/MOL
REMARK 927      BINDING AFFINITY PREDICTED BY RF-SCORE:    0.00 PKD
ROOT
HETATM    1  C   UNL     1      -9.436   5.239  74.509  1.00  0.00    -0.147 C  
HETATM    2  C   UNL     1      -9.427   5.527  73.017  1.00  0.00    -0.154 C  
ENDROOT
BRANCH   2   3
HETATM    3  C   UNL     1     -10.832   5.840  72.506  1.00  0.00    -0.294 C  
BRANCH   3   4
HETATM    4  C   UNL     1     -10.793   6.831  71.344  1.00  0.00    -0.269 C  
BRANCH   4   5
HETATM    5  C   UNL     1     -11.648   6.339  70.177  1.00  0.00    -0.385 C  
BRANCH   5   6
HETATM    6  C   UNL     1     -10.775   5.823  69.035  1.00  0.00    -0.354 C  
BRANCH   6   7
HETATM    7  C   UNL     1      -9.518   6.676  68.872  1.00  0.00    -0.130 C  
BRANCH   7   8
HETATM    8  C   UNL     1      -9.404   7.209  67.445  1.00  0.00    -0.144 C  
BRANCH   8   9
HETATM    9  C   UNL     1      -9.187   8.721  67.428  1.00  0.00    -0.158 C  
BRANCH   9  10
HETATM   10  C   UNL     1      -9.425   9.317  68.816  1.00  0.00    -0.150 C  
BRANCH  10  11
HETATM   11  C   UNL     1     -10.877   9.746  69.000  1.00  0.00    -0.223 C  
HETATM   12  C   UNL     1     -11.075  11.206  68.661  1.00  0.00    -0.239 C  
HETATM   13  O   UNL     1     -12.362  11.599  68.820  1.00  0.00    -0.374 OA 
HETATM   14  O   UNL     1     -10.203  11.972  68.285  1.00  0.00    -0.195 OA 
ENDBRANCH  10  11
ENDBRANCH   9  10
ENDBRANCH   8   9
ENDBRANCH   7   8
ENDBRANCH   6   7
ENDBRANCH   5   6
ENDBRANCH   4   5
ENDBRANCH   3   4
ENDBRANCH   2   3
TORSDOF 9
ENDMDL
MODEL      311
REMARK 921   NORMALIZED FREE ENERGY PREDICTED BY IDOCK:   -2.24 KCAL/MOL
REMARK 922        TOTAL FREE ENERGY PREDICTED BY IDOCK:   -3.96 KCAL/MOL
REMARK 923 INTER-LIGAND FREE ENERGY PREDICTED BY IDOCK:   -3.76 KCAL/MOL
REMARK 924 INTRA-LIGAND FREE ENERGY PREDICTED BY IDOCK:   -0.20 KCAL/MOL
REMARK 927      BINDING AFFINITY PREDICTED BY RF-SCORE:    0.00 PKD
ROOT
HETATM    1  C   UNL     1      -8.524   7.645  74.367  1.00  0.00    -0.259 C  
HETATM    2  C   UNL     1      -9.271   6.415  73.878  1.00  0.00    -0.154 C  
ENDROOT
BRANCH   2   3
HETATM    3  C   UNL     1     -10.769   6.689  73.763  1.00  0.00    -0.206 C  
BRANCH   3   4
HETATM    4  C   UNL     1     -11.313   6.243  72.407  1.00  0.00    -0.333 C  
BRANCH   4   5
HETATM    5  C   UNL     1     -11.583   7.445  71.504  1.00  0.00    -0.304 C  
BRANCH   5   6
HETATM    6  C   UNL     1     -10.577   8.565  71.763  1.00  0.00    -0.371 C  
BRANCH   6   7
HETATM    7  C   UNL     1     -11.021   9.869  71.102  1.00  0.00    -0.298 C  
BRANCH   7   8
HETATM    8  C   UNL     1     -11.168   9.689  69.591  1.00  0.00    -0.176 C  
BRANCH   8   9
HETATM    9  C   UNL     1     -10.545  10.856  68.827  1.00  0.00    -0.231 C  
BRANCH   9  10
HETATM   10  C   UNL     1     -11.444  12.091  68.898  1.00  0.00    -0.356 C  
BRANCH  10  11
HETATM   11  C   UNL     1     -10.689  13.357  68.503  1.00  0.00    -0.278 C  
HETATM   12  C   UNL     1     -11.243  14.578  69.201  1.00  0.00    -0.269 C  
HETATM   13  O   UNL     1     -10.580  15.708  68.859  1.00  0.00    -0.212 OA 
HETATM   14  O   UNL     1     -12.177  14.584  69.986  1.00  0.00    -0.312 OA 
ENDBRANCH  10  11
ENDBRANCH   9  10
ENDBRANCH   8   9
ENDBRANCH   7   8
ENDBRANCH   6   7
ENDBRANCH   5   6
ENDBRANCH   4   5
ENDBRANCH   3   4
ENDBRANCH   2   3
TORSDOF 9
ENDMDL
MODEL      312
REMARK 921   NORMALIZED FREE ENERGY PREDICTED BY IDOCK:   -2.23 KCAL/MOL
REMARK 922        TOTAL FREE ENERGY PREDICTED BY IDOCK:   -3.95 KCAL/MOL
REMARK 923 INTER-LIGAND FREE ENERGY PREDICTED BY IDOCK:   -3.40 KCAL/MOL
REMARK 924 INTRA-LIGAND FREE ENERGY PREDICTED BY IDOCK:   -0.55 KCAL/MOL
REMARK 927      BINDING AFFINITY PREDICTED BY RF-SCORE:    0.00 PKD
ROOT
HETATM    1  C   UNL     1     -10.968  12.098  63.585  1.00  0.00    -0.527 C  
HETATM    2  C   UNL     1     -10.083  11.531  64.683  1.00  0.00    -0.318 C  
ENDROOT
BRANCH   2   3
HETATM    3  C   UNL     1     -10.515  12.036  66.058  1.00  0.00    -0.284 C  
BRANCH   3   4
HETATM    4  C   UNL     1      -9.325  12.143  67.009  1.00  0.00    -0.201 C  
BRANCH   4   5
HETATM    5  C   UNL     1      -9.774  12.010  68.464  1.00  0.00    -0.165 C  
BRANCH   5   6
HETATM    6  C   UNL     1     -10.962  12.924  68.759  1.00  0.00    -0.292 C  
BRANCH   6   7
HETATM    7  C   UNL     1     -12.022  12.201  69.588  1.00  0.00    -0.351 C  
BRANCH   7   8
HETATM    8  C   UNL     1     -11.400  11.051  70.379  1.00  0.00    -0.222 C  
BRANCH   8   9
HETATM    9  C   UNL     1     -12.082   9.721  70.061  1.00  0.00     0.062 C  
BRANCH   9  10
HETATM   10  C   UNL     1     -11.645   8.639  71.048  1.00  0.00    -0.325 C  
BRANCH  10  11
HETATM   11  C   UNL     1     -11.341   7.323  70.338  1.00  0.00    -0.299 C  
HETATM   12  C   UNL     1      -9.883   6.942  70.469  1.00  0.00    -0.179 C  
HETATM   13  O   UNL     1      -9.602   5.774  69.842  1.00  0.00    -0.151 OA 
HETATM   14  O   UNL     1      -9.033   7.585  71.061  1.00  0.00    -0.145 OA 
ENDBRANCH  10  11
ENDBRANCH   9  10
ENDBRANCH   8   9
ENDBRANCH   7   8
ENDBRANCH   6   7
ENDBRANCH   5   6
ENDBRANCH   4   5
ENDBRANCH   3   4
ENDBRANCH   2   3
TORSDOF 9
ENDMDL
MODEL      313
REMARK 921   NORMALIZED FREE ENERGY PREDICTED BY IDOCK:   -2.22 KCAL/MOL
REMARK 922        TOTAL FREE ENERGY PREDICTED BY IDOCK:   -3.94 KCAL/MOL
REMARK 923 INTER-LIGAND FREE ENERGY PREDICTED BY IDOCK:   -2.74 KCAL/MOL
REMARK 924 INTRA-LIGAND FREE ENERGY PREDICTED BY IDOCK:   -1.19 KCAL/MOL
REMARK 927      BINDING AFFINITY PREDICTED BY RF-SCORE:    0.00 PKD
ROOT
HETATM    1  C   UNL     1      -5.879   8.519  71.579  1.00  0.00    -0.043 C  
HETATM    2  C   UNL     1      -6.310   8.703  73.025  1.00  0.00    -0.071 C  
ENDROOT
BRANCH   2   3
HETATM    3  C   UNL     1      -7.392   7.697  73.412  1.00  0.00    -0.122 C  
BRANCH   3   4
HETATM    4  C   UNL     1      -6.784   6.359  73.829  1.00  0.00    -0.074 C  
BRANCH   4   5
HETATM    5  C   UNL     1      -7.668   5.194  73.386  1.00  0.00    -0.099 C  
BRANCH   5   6
HETATM    6  C   UNL     1      -8.872   5.690  72.587  1.00  0.00    -0.123 C  
BRANCH   6   7
HETATM    7  C   UNL     1     -10.164   5.035  73.074  1.00  0.00    -0.214 C  
BRANCH   7   8
HETATM    8  C   UNL     1     -11.367   5.936  72.795  1.00  0.00    -0.305 C  
BRANCH   8   9
HETATM    9  C   UNL     1     -11.117   7.365  73.274  1.00  0.00    -0.303 C  
BRANCH   9  10
HETATM   10  C   UNL     1     -11.618   8.377  72.243  1.00  0.00    -0.453 C  
BRANCH  10  11
HETATM   11  C   UNL     1     -10.471   9.201  71.664  1.00  0.00    -0.403 C  
HETATM   12  C   UNL     1      -9.878   8.546  70.437  1.00  0.00    -0.179 C  
HETATM   13  O   UNL     1      -8.860   9.269  69.914  1.00  0.00    -0.154 OA 
HETATM   14  O   UNL     1     -10.248   7.493  69.946  1.00  0.00    -0.201 OA 
ENDBRANCH  10  11
ENDBRANCH   9  10
ENDBRANCH   8   9
ENDBRANCH   7   8
ENDBRANCH   6   7
ENDBRANCH   5   6
ENDBRANCH   4   5
ENDBRANCH   3   4
ENDBRANCH   2   3
TORSDOF 9
ENDMDL
MODEL      314
REMARK 921   NORMALIZED FREE ENERGY PREDICTED BY IDOCK:   -2.22 KCAL/MOL
REMARK 922        TOTAL FREE ENERGY PREDICTED BY IDOCK:   -3.94 KCAL/MOL
REMARK 923 INTER-LIGAND FREE ENERGY PREDICTED BY IDOCK:   -3.07 KCAL/MOL
REMARK 924 INTRA-LIGAND FREE ENERGY PREDICTED BY IDOCK:   -0.86 KCAL/MOL
REMARK 927      BINDING AFFINITY PREDICTED BY RF-SCORE:    0.00 PKD
ROOT
HETATM    1  C   UNL     1      -5.936  14.055  67.980  1.00  0.00    -0.145 C  
HETATM    2  C   UNL     1      -7.082  13.469  67.171  1.00  0.00     0.218 C  
ENDROOT
BRANCH   2   3
HETATM    3  C   UNL     1      -7.065  11.942  67.214  1.00  0.00    -0.143 C  
BRANCH   3   4
HETATM    4  C   UNL     1      -8.473  11.367  67.079  1.00  0.00    -0.159 C  
BRANCH   4   5
HETATM    5  C   UNL     1      -9.486  12.212  67.851  1.00  0.00    -0.195 C  
BRANCH   5   6
HETATM    6  C   UNL     1     -10.911  11.928  67.381  1.00  0.00    -0.315 C  
BRANCH   6   7
HETATM    7  C   UNL     1     -11.462  13.091  66.557  1.00  0.00    -0.385 C  
BRANCH   7   8
HETATM    8  C   UNL     1     -11.778  14.288  67.452  1.00  0.00    -0.422 C  
BRANCH   8   9
HETATM    9  C   UNL     1     -10.862  15.472  67.145  1.00  0.00    -0.316 C  
BRANCH   9  10
HETATM   10  C   UNL     1     -10.776  16.416  68.345  1.00  0.00    -0.327 C  
BRANCH  10  11
HETATM   11  C   UNL     1      -9.480  17.221  68.332  1.00  0.00    -0.283 C  
HETATM   12  C   UNL     1      -8.400  16.554  69.154  1.00  0.00    -0.157 C  
HETATM   13  O   UNL     1      -7.244  17.260  69.148  1.00  0.00    -0.242 OA 
HETATM   14  O   UNL     1      -8.519  15.504  69.763  1.00  0.00    -0.202 OA 
ENDBRANCH  10  11
ENDBRANCH   9  10
ENDBRANCH   8   9
ENDBRANCH   7   8
ENDBRANCH   6   7
ENDBRANCH   5   6
ENDBRANCH   4   5
ENDBRANCH   3   4
ENDBRANCH   2   3
TORSDOF 9
ENDMDL
MODEL      315
REMARK 921   NORMALIZED FREE ENERGY PREDICTED BY IDOCK:   -2.22 KCAL/MOL
REMARK 922        TOTAL FREE ENERGY PREDICTED BY IDOCK:   -3.94 KCAL/MOL
REMARK 923 INTER-LIGAND FREE ENERGY PREDICTED BY IDOCK:   -3.16 KCAL/MOL
REMARK 924 INTRA-LIGAND FREE ENERGY PREDICTED BY IDOCK:   -0.78 KCAL/MOL
REMARK 927      BINDING AFFINITY PREDICTED BY RF-SCORE:    0.00 PKD
ROOT
HETATM    1  C   UNL     1      -9.903   4.371  66.330  1.00  0.00    -0.245 C  
HETATM    2  C   UNL     1      -9.138   3.391  67.205  1.00  0.00    -0.200 C  
ENDROOT
BRANCH   2   3
HETATM    3  C   UNL     1      -8.656   4.059  68.491  1.00  0.00    -0.115 C  
BRANCH   3   4
HETATM    4  C   UNL     1      -9.803   4.252  69.481  1.00  0.00    -0.224 C  
BRANCH   4   5
HETATM    5  C   UNL     1      -9.812   5.676  70.037  1.00  0.00    -0.247 C  
BRANCH   5   6
HETATM    6  C   UNL     1      -9.769   6.707  68.911  1.00  0.00    -0.136 C  
BRANCH   6   7
HETATM    7  C   UNL     1      -8.803   7.844  69.241  1.00  0.00    -0.142 C  
BRANCH   7   8
HETATM    8  C   UNL     1      -9.103   8.427  70.621  1.00  0.00    -0.174 C  
BRANCH   8   9
HETATM    9  C   UNL     1      -9.757   9.804  70.514  1.00  0.00    -0.195 C  
BRANCH   9  10
HETATM   10  C   UNL     1     -11.234   9.733  70.905  1.00  0.00    -0.429 C  
BRANCH  10  11
HETATM   11  C   UNL     1     -11.576   8.400  71.563  1.00  0.00    -0.338 C  
HETATM   12  C   UNL     1     -13.069   8.162  71.600  1.00  0.00    -0.335 C  
HETATM   13  O   UNL     1     -13.384   6.980  72.182  1.00  0.00    -0.128 OA 
HETATM   14  O   UNL     1     -13.919   8.922  71.167  1.00  0.00    -0.248 OA 
ENDBRANCH  10  11
ENDBRANCH   9  10
ENDBRANCH   8   9
ENDBRANCH   7   8
ENDBRANCH   6   7
ENDBRANCH   5   6
ENDBRANCH   4   5
ENDBRANCH   3   4
ENDBRANCH   2   3
TORSDOF 9
ENDMDL
MODEL      316
REMARK 921   NORMALIZED FREE ENERGY PREDICTED BY IDOCK:   -2.22 KCAL/MOL
REMARK 922        TOTAL FREE ENERGY PREDICTED BY IDOCK:   -3.93 KCAL/MOL
REMARK 923 INTER-LIGAND FREE ENERGY PREDICTED BY IDOCK:   -3.04 KCAL/MOL
REMARK 924 INTRA-LIGAND FREE ENERGY PREDICTED BY IDOCK:   -0.90 KCAL/MOL
REMARK 927      BINDING AFFINITY PREDICTED BY RF-SCORE:    0.00 PKD
ROOT
HETATM    1  C   UNL     1      -6.842  10.143  69.730  1.00  0.00    -0.105 C  
HETATM    2  C   UNL     1      -7.408   9.759  68.372  1.00  0.00    -0.078 C  
ENDROOT
BRANCH   2   3
HETATM    3  C   UNL     1      -6.981  10.753  67.294  1.00  0.00    -0.086 C  
BRANCH   3   4
HETATM    4  C   UNL     1      -7.850  10.625  66.045  1.00  0.00    -0.156 C  
BRANCH   4   5
HETATM    5  C   UNL     1      -9.169   9.923  66.365  1.00  0.00    -0.195 C  
BRANCH   5   6
HETATM    6  C   UNL     1     -10.339  10.903  66.321  1.00  0.00    -0.306 C  
BRANCH   6   7
HETATM    7  C   UNL     1     -11.138  10.867  67.623  1.00  0.00    -0.376 C  
BRANCH   7   8
HETATM    8  C   UNL     1     -10.880   9.566  68.382  1.00  0.00    -0.183 C  
BRANCH   8   9
HETATM    9  C   UNL     1     -10.637   9.825  69.868  1.00  0.00    -0.301 C  
BRANCH   9  10
HETATM   10  C   UNL     1     -11.463   8.867  70.727  1.00  0.00    -0.319 C  
BRANCH  10  11
HETATM   11  C   UNL     1     -10.862   8.703  72.119  1.00  0.00    -0.424 C  
HETATM   12  C   UNL     1      -9.902   7.536  72.179  1.00  0.00    -0.169 C  
HETATM   13  O   UNL     1      -9.361   7.382  73.411  1.00  0.00    -0.169 OA 
HETATM   14  O   UNL     1      -9.623   6.799  71.248  1.00  0.00    -0.169 OA 
ENDBRANCH  10  11
ENDBRANCH   9  10
ENDBRANCH   8   9
ENDBRANCH   7   8
ENDBRANCH   6   7
ENDBRANCH   5   6
ENDBRANCH   4   5
ENDBRANCH   3   4
ENDBRANCH   2   3
TORSDOF 9
ENDMDL
MODEL      317
REMARK 921   NORMALIZED FREE ENERGY PREDICTED BY IDOCK:   -2.20 KCAL/MOL
REMARK 922        TOTAL FREE ENERGY PREDICTED BY IDOCK:   -3.90 KCAL/MOL
REMARK 923 INTER-LIGAND FREE ENERGY PREDICTED BY IDOCK:   -3.49 KCAL/MOL
REMARK 924 INTRA-LIGAND FREE ENERGY PREDICTED BY IDOCK:   -0.41 KCAL/MOL
REMARK 927      BINDING AFFINITY PREDICTED BY RF-SCORE:    0.00 PKD
ROOT
HETATM    1  C   UNL     1     -12.468  14.796  70.838  1.00  0.00    -0.396 C  
HETATM    2  C   UNL     1     -11.915  15.112  69.458  1.00  0.00    -0.351 C  
ENDROOT
BRANCH   2   3
HETATM    3  C   UNL     1     -11.845  13.858  68.590  1.00  0.00    -0.407 C  
BRANCH   3   4
HETATM    4  C   UNL     1     -12.119  14.181  67.123  1.00  0.00    -0.432 C  
BRANCH   4   5
HETATM    5  C   UNL     1     -11.105  13.491  66.211  1.00  0.00    -0.308 C  
BRANCH   5   6
HETATM    6  C   UNL     1     -11.497  12.038  65.952  1.00  0.00    -0.392 C  
BRANCH   6   7
HETATM    7  C   UNL     1     -10.332  11.093  66.241  1.00  0.00    -0.299 C  
BRANCH   7   8
HETATM    8  C   UNL     1     -10.800   9.890  67.059  1.00  0.00    -0.186 C  
BRANCH   8   9
HETATM    9  C   UNL     1     -11.273  10.310  68.449  1.00  0.00    -0.284 C  
BRANCH   9  10
HETATM   10  C   UNL     1     -10.086  10.477  69.398  1.00  0.00    -0.233 C  
BRANCH  10  11
HETATM   11  C   UNL     1      -9.088  11.504  68.871  1.00  0.00     0.015 C  
HETATM   12  C   UNL     1      -7.703  11.275  69.433  1.00  0.00     0.092 C  
HETATM   13  O   UNL     1      -6.808  12.181  68.971  1.00  0.00    -0.097 OA 
HETATM   14  O   UNL     1      -7.391  10.391  70.212  1.00  0.00    -0.215 OA 
ENDBRANCH  10  11
ENDBRANCH   9  10
ENDBRANCH   8   9
ENDBRANCH   7   8
ENDBRANCH   6   7
ENDBRANCH   5   6
ENDBRANCH   4   5
ENDBRANCH   3   4
ENDBRANCH   2   3
TORSDOF 9
ENDMDL
MODEL      318
REMARK 921   NORMALIZED FREE ENERGY PREDICTED BY IDOCK:   -2.20 KCAL/MOL
REMARK 922        TOTAL FREE ENERGY PREDICTED BY IDOCK:   -3.90 KCAL/MOL
REMARK 923 INTER-LIGAND FREE ENERGY PREDICTED BY IDOCK:   -3.37 KCAL/MOL
REMARK 924 INTRA-LIGAND FREE ENERGY PREDICTED BY IDOCK:   -0.53 KCAL/MOL
REMARK 927      BINDING AFFINITY PREDICTED BY RF-SCORE:    0.00 PKD
ROOT
HETATM    1  C   UNL     1     -13.403  12.789  72.122  1.00  0.00    -0.593 C  
HETATM    2  C   UNL     1     -12.655  12.228  70.924  1.00  0.00    -0.334 C  
ENDROOT
BRANCH   2   3
HETATM    3  C   UNL     1     -12.955  10.744  70.730  1.00  0.00    -0.348 C  
BRANCH   3   4
HETATM    4  C   UNL     1     -11.987   9.872  71.527  1.00  0.00    -0.473 C  
BRANCH   4   5
HETATM    5  C   UNL     1     -11.224   8.920  70.607  1.00  0.00    -0.308 C  
BRANCH   5   6
HETATM    6  C   UNL     1      -9.920   9.551  70.122  1.00  0.00    -0.285 C  
BRANCH   6   7
HETATM    7  C   UNL     1      -8.747   8.585  70.282  1.00  0.00    -0.144 C  
BRANCH   7   8
HETATM    8  C   UNL     1      -8.056   8.344  68.941  1.00  0.00    -0.114 C  
BRANCH   8   9
HETATM    9  C   UNL     1      -8.635   7.125  68.225  1.00  0.00    -0.122 C  
BRANCH   9  10
HETATM   10  C   UNL     1      -9.231   7.522  66.875  1.00  0.00    -0.181 C  
BRANCH  10  11
HETATM   11  C   UNL     1      -8.323   7.112  65.719  1.00  0.00    -0.144 C  
HETATM   12  C   UNL     1      -7.869   8.309  64.914  1.00  0.00    -0.126 C  
HETATM   13  O   UNL     1      -7.061   7.957  63.886  1.00  0.00    -0.073 OA 
HETATM   14  O   UNL     1      -8.175   9.469  65.134  1.00  0.00    -0.122 OA 
ENDBRANCH  10  11
ENDBRANCH   9  10
ENDBRANCH   8   9
ENDBRANCH   7   8
ENDBRANCH   6   7
ENDBRANCH   5   6
ENDBRANCH   4   5
ENDBRANCH   3   4
ENDBRANCH   2   3
TORSDOF 9
ENDMDL
MODEL      319
REMARK 921   NORMALIZED FREE ENERGY PREDICTED BY IDOCK:   -2.20 KCAL/MOL
REMARK 922        TOTAL FREE ENERGY PREDICTED BY IDOCK:   -3.90 KCAL/MOL
REMARK 923 INTER-LIGAND FREE ENERGY PREDICTED BY IDOCK:   -2.85 KCAL/MOL
REMARK 924 INTRA-LIGAND FREE ENERGY PREDICTED BY IDOCK:   -1.04 KCAL/MOL
REMARK 927      BINDING AFFINITY PREDICTED BY RF-SCORE:    0.00 PKD
ROOT
HETATM    1  C   UNL     1      -5.940  11.926  70.244  1.00  0.00    -0.150 C  
HETATM    2  C   UNL     1      -6.469  10.516  70.446  1.00  0.00    -0.117 C  
ENDROOT
BRANCH   2   3
HETATM    3  C   UNL     1      -7.799  10.315  69.723  1.00  0.00    -0.151 C  
BRANCH   3   4
HETATM    4  C   UNL     1      -8.615   9.194  70.361  1.00  0.00    -0.236 C  
BRANCH   4   5
HETATM    5  C   UNL     1     -10.062   9.631  70.587  1.00  0.00    -0.324 C  
BRANCH   5   6
HETATM    6  C   UNL     1     -10.431  10.802  69.679  1.00  0.00    -0.183 C  
BRANCH   6   7
HETATM    7  C   UNL     1     -11.604  10.444  68.767  1.00  0.00    -0.188 C  
BRANCH   7   8
HETATM    8  C   UNL     1     -11.240  10.670  67.301  1.00  0.00    -0.237 C  
BRANCH   8   9
HETATM    9  C   UNL     1      -9.959   9.928  66.924  1.00  0.00    -0.268 C  
BRANCH   9  10
HETATM   10  C   UNL     1     -10.253   8.458  66.622  1.00  0.00    -0.335 C  
BRANCH  10  11
HETATM   11  C   UNL     1      -9.312   7.530  67.385  1.00  0.00    -0.164 C  
HETATM   12  C   UNL     1      -9.699   6.079  67.216  1.00  0.00    -0.125 C  
HETATM   13  O   UNL     1      -8.870   5.246  67.888  1.00  0.00    -0.106 OA 
HETATM   14  O   UNL     1     -10.641   5.669  66.559  1.00  0.00    -0.269 OA 
ENDBRANCH  10  11
ENDBRANCH   9  10
ENDBRANCH   8   9
ENDBRANCH   7   8
ENDBRANCH   6   7
ENDBRANCH   5   6
ENDBRANCH   4   5
ENDBRANCH   3   4
ENDBRANCH   2   3
TORSDOF 9
ENDMDL
MODEL      320
REMARK 921   NORMALIZED FREE ENERGY PREDICTED BY IDOCK:   -2.20 KCAL/MOL
REMARK 922        TOTAL FREE ENERGY PREDICTED BY IDOCK:   -3.90 KCAL/MOL
REMARK 923 INTER-LIGAND FREE ENERGY PREDICTED BY IDOCK:   -2.95 KCAL/MOL
REMARK 924 INTRA-LIGAND FREE ENERGY PREDICTED BY IDOCK:   -0.94 KCAL/MOL
REMARK 927      BINDING AFFINITY PREDICTED BY RF-SCORE:    0.00 PKD
ROOT
HETATM    1  C   UNL     1      -6.265  11.469  69.981  1.00  0.00    -0.142 C  
HETATM    2  C   UNL     1      -7.162  10.245  69.893  1.00  0.00    -0.162 C  
ENDROOT
BRANCH   2   3
HETATM    3  C   UNL     1      -8.409  10.532  69.059  1.00  0.00    -0.154 C  
BRANCH   3   4
HETATM    4  C   UNL     1      -9.619   9.765  69.587  1.00  0.00    -0.239 C  
BRANCH   4   5
HETATM    5  C   UNL     1     -10.793  10.707  69.849  1.00  0.00    -0.301 C  
BRANCH   5   6
HETATM    6  C   UNL     1     -10.824  11.844  68.830  1.00  0.00    -0.270 C  
BRANCH   6   7
HETATM    7  C   UNL     1     -11.778  11.525  67.679  1.00  0.00    -0.283 C  
BRANCH   7   8
HETATM    8  C   UNL     1     -11.767  12.646  66.640  1.00  0.00    -0.464 C  
BRANCH   8   9
HETATM    9  C   UNL     1     -10.387  12.804  66.004  1.00  0.00    -0.291 C  
BRANCH   9  10
HETATM   10  C   UNL     1     -10.005  11.548  65.220  1.00  0.00    -0.302 C  
BRANCH  10  11
HETATM   11  C   UNL     1      -8.600  11.071  65.576  1.00  0.00    -0.104 C  
HETATM   12  C   UNL     1      -8.450   9.579  65.380  1.00  0.00    -0.148 C  
HETATM   13  O   UNL     1      -7.206   9.145  65.692  1.00  0.00    -0.081 OA 
HETATM   14  O   UNL     1      -9.324   8.824  64.989  1.00  0.00    -0.013 OA 
ENDBRANCH  10  11
ENDBRANCH   9  10
ENDBRANCH   8   9
ENDBRANCH   7   8
ENDBRANCH   6   7
ENDBRANCH   5   6
ENDBRANCH   4   5
ENDBRANCH   3   4
ENDBRANCH   2   3
TORSDOF 9
ENDMDL
MODEL      321
REMARK 921   NORMALIZED FREE ENERGY PREDICTED BY IDOCK:   -2.18 KCAL/MOL
REMARK 922        TOTAL FREE ENERGY PREDICTED BY IDOCK:   -3.87 KCAL/MOL
REMARK 923 INTER-LIGAND FREE ENERGY PREDICTED BY IDOCK:   -3.06 KCAL/MOL
REMARK 924 INTRA-LIGAND FREE ENERGY PREDICTED BY IDOCK:   -0.81 KCAL/MOL
REMARK 927      BINDING AFFINITY PREDICTED BY RF-SCORE:    0.00 PKD
ROOT
HETATM    1  C   UNL     1      -6.919   3.555  68.227  1.00  0.00    -0.050 C  
HETATM    2  C   UNL     1      -8.056   2.987  69.061  1.00  0.00    -0.069 C  
ENDROOT
BRANCH   2   3
HETATM    3  C   UNL     1      -8.599   4.028  70.038  1.00  0.00    -0.102 C  
BRANCH   3   4
HETATM    4  C   UNL     1      -9.680   3.435  70.939  1.00  0.00    -0.200 C  
BRANCH   4   5
HETATM    5  C   UNL     1     -10.153   4.457  71.972  1.00  0.00    -0.256 C  
BRANCH   5   6
HETATM    6  C   UNL     1      -9.006   5.363  72.414  1.00  0.00    -0.139 C  
BRANCH   6   7
HETATM    7  C   UNL     1      -9.227   5.878  73.836  1.00  0.00    -0.127 C  
BRANCH   7   8
HETATM    8  C   UNL     1     -10.409   6.846  73.884  1.00  0.00    -0.398 C  
BRANCH   8   9
HETATM    9  C   UNL     1     -10.175   8.058  72.984  1.00  0.00    -0.357 C  
BRANCH   9  10
HETATM   10  C   UNL     1     -11.321   8.220  71.985  1.00  0.00    -0.390 C  
BRANCH  10  11
HETATM   11  C   UNL     1     -10.833   8.080  70.546  1.00  0.00    -0.241 C  
HETATM   12  C   UNL     1     -10.754   9.421  69.851  1.00  0.00    -0.234 C  
HETATM   13  O   UNL     1     -10.321   9.309  68.572  1.00  0.00    -0.198 OA 
HETATM   14  O   UNL     1     -11.039  10.496  70.350  1.00  0.00    -0.298 OA 
ENDBRANCH  10  11
ENDBRANCH   9  10
ENDBRANCH   8   9
ENDBRANCH   7   8
ENDBRANCH   6   7
ENDBRANCH   5   6
ENDBRANCH   4   5
ENDBRANCH   3   4
ENDBRANCH   2   3
TORSDOF 9
ENDMDL
MODEL      322
REMARK 921   NORMALIZED FREE ENERGY PREDICTED BY IDOCK:   -2.17 KCAL/MOL
REMARK 922        TOTAL FREE ENERGY PREDICTED BY IDOCK:   -3.85 KCAL/MOL
REMARK 923 INTER-LIGAND FREE ENERGY PREDICTED BY IDOCK:   -3.63 KCAL/MOL
REMARK 924 INTRA-LIGAND FREE ENERGY PREDICTED BY IDOCK:   -0.22 KCAL/MOL
REMARK 927      BINDING AFFINITY PREDICTED BY RF-SCORE:    0.00 PKD
ROOT
HETATM    1  C   UNL     1     -11.155  11.188  69.096  1.00  0.00    -0.306 C  
HETATM    2  C   UNL     1     -10.617   9.884  68.529  1.00  0.00    -0.248 C  
ENDROOT
BRANCH   2   3
HETATM    3  C   UNL     1      -9.310   9.483  69.209  1.00  0.00    -0.171 C  
BRANCH   3   4
HETATM    4  C   UNL     1      -8.101  10.052  68.470  1.00  0.00    -0.103 C  
BRANCH   4   5
HETATM    5  C   UNL     1      -8.426  11.411  67.854  1.00  0.00    -0.139 C  
BRANCH   5   6
HETATM    6  C   UNL     1      -7.290  12.406  68.084  1.00  0.00    -0.111 C  
BRANCH   6   7
HETATM    7  C   UNL     1      -7.602  13.757  67.443  1.00  0.00    -0.153 C  
BRANCH   7   8
HETATM    8  C   UNL     1      -9.110  13.958  67.307  1.00  0.00    -0.230 C  
BRANCH   8   9
HETATM    9  C   UNL     1      -9.437  15.097  66.343  1.00  0.00    -0.325 C  
BRANCH   9  10
HETATM   10  C   UNL     1      -9.930  14.548  65.004  1.00  0.00    -0.206 C  
BRANCH  10  11
HETATM   11  C   UNL     1     -11.448  14.651  64.881  1.00  0.00    -0.401 C  
HETATM   12  C   UNL     1     -12.132  13.382  65.337  1.00  0.00    -0.421 C  
HETATM   13  O   UNL     1     -13.480  13.463  65.233  1.00  0.00    -0.456 OA 
HETATM   14  O   UNL     1     -11.570  12.384  65.755  1.00  0.00    -0.361 OA 
ENDBRANCH  10  11
ENDBRANCH   9  10
ENDBRANCH   8   9
ENDBRANCH   7   8
ENDBRANCH   6   7
ENDBRANCH   5   6
ENDBRANCH   4   5
ENDBRANCH   3   4
ENDBRANCH   2   3
TORSDOF 9
ENDMDL
MODEL      323
REMARK 921   NORMALIZED FREE ENERGY PREDICTED BY IDOCK:   -2.15 KCAL/MOL
REMARK 922        TOTAL FREE ENERGY PREDICTED BY IDOCK:   -3.82 KCAL/MOL
REMARK 923 INTER-LIGAND FREE ENERGY PREDICTED BY IDOCK:   -3.41 KCAL/MOL
REMARK 924 INTRA-LIGAND FREE ENERGY PREDICTED BY IDOCK:   -0.41 KCAL/MOL
REMARK 927      BINDING AFFINITY PREDICTED BY RF-SCORE:    0.00 PKD
ROOT
HETATM    1  C   UNL     1     -13.361  12.562  72.103  1.00  0.00    -0.540 C  
HETATM    2  C   UNL     1     -12.454  11.965  71.039  1.00  0.00    -0.390 C  
ENDROOT
BRANCH   2   3
HETATM    3  C   UNL     1     -12.822  10.511  70.750  1.00  0.00    -0.454 C  
BRANCH   3   4
HETATM    4  C   UNL     1     -11.882   9.546  71.468  1.00  0.00    -0.478 C  
BRANCH   4   5
HETATM    5  C   UNL     1     -10.974   8.825  70.473  1.00  0.00    -0.272 C  
BRANCH   5   6
HETATM    6  C   UNL     1      -9.768   9.686  70.104  1.00  0.00    -0.301 C  
BRANCH   6   7
HETATM    7  C   UNL     1      -8.853   8.961  69.118  1.00  0.00    -0.136 C  
BRANCH   7   8
HETATM    8  C   UNL     1      -8.454   9.885  67.968  1.00  0.00    -0.117 C  
BRANCH   8   9
HETATM    9  C   UNL     1      -9.487  10.991  67.757  1.00  0.00    -0.169 C  
BRANCH   9  10
HETATM   10  C   UNL     1      -9.046  12.282  68.447  1.00  0.00    -0.146 C  
BRANCH  10  11
HETATM   11  C   UNL     1      -7.822  12.890  67.769  1.00  0.00    -0.158 C  
HETATM   12  C   UNL     1      -6.600  12.820  68.656  1.00  0.00    -0.084 C  
HETATM   13  O   UNL     1      -5.507  13.357  68.063  1.00  0.00    -0.095 OA 
HETATM   14  O   UNL     1      -6.565  12.345  69.778  1.00  0.00    -0.075 OA 
ENDBRANCH  10  11
ENDBRANCH   9  10
ENDBRANCH   8   9
ENDBRANCH   7   8
ENDBRANCH   6   7
ENDBRANCH   5   6
ENDBRANCH   4   5
ENDBRANCH   3   4
ENDBRANCH   2   3
TORSDOF 9
ENDMDL
MODEL      324
REMARK 921   NORMALIZED FREE ENERGY PREDICTED BY IDOCK:   -2.14 KCAL/MOL
REMARK 922        TOTAL FREE ENERGY PREDICTED BY IDOCK:   -3.82 KCAL/MOL
REMARK 923 INTER-LIGAND FREE ENERGY PREDICTED BY IDOCK:   -3.28 KCAL/MOL
REMARK 924 INTRA-LIGAND FREE ENERGY PREDICTED BY IDOCK:   -0.54 KCAL/MOL
REMARK 927      BINDING AFFINITY PREDICTED BY RF-SCORE:    0.00 PKD
ROOT
HETATM    1  C   UNL     1     -12.644  14.207  70.798  1.00  0.00    -0.432 C  
HETATM    2  C   UNL     1     -11.677  14.554  69.677  1.00  0.00    -0.356 C  
ENDROOT
BRANCH   2   3
HETATM    3  C   UNL     1     -11.541  13.399  68.688  1.00  0.00    -0.362 C  
BRANCH   3   4
HETATM    4  C   UNL     1     -11.456  13.906  67.249  1.00  0.00    -0.369 C  
BRANCH   4   5
HETATM    5  C   UNL     1     -10.065  13.664  66.666  1.00  0.00    -0.277 C  
BRANCH   5   6
HETATM    6  C   UNL     1      -9.868  12.194  66.304  1.00  0.00    -0.250 C  
BRANCH   6   7
HETATM    7  C   UNL     1      -8.449  11.730  66.632  1.00  0.00    -0.153 C  
BRANCH   7   8
HETATM    8  C   UNL     1      -8.338  10.210  66.533  1.00  0.00    -0.124 C  
BRANCH   8   9
HETATM    9  C   UNL     1      -9.524   9.612  65.778  1.00  0.00    -0.308 C  
BRANCH   9  10
HETATM   10  C   UNL     1      -9.646   8.114  66.059  1.00  0.00    -0.113 C  
BRANCH  10  11
HETATM   11  C   UNL     1      -9.650   7.824  67.557  1.00  0.00    -0.184 C  
HETATM   12  C   UNL     1      -8.924   6.537  67.879  1.00  0.00    -0.115 C  
HETATM   13  O   UNL     1      -8.920   6.270  69.206  1.00  0.00    -0.125 OA 
HETATM   14  O   UNL     1      -8.393   5.800  67.065  1.00  0.00    -0.108 OA 
ENDBRANCH  10  11
ENDBRANCH   9  10
ENDBRANCH   8   9
ENDBRANCH   7   8
ENDBRANCH   6   7
ENDBRANCH   5   6
ENDBRANCH   4   5
ENDBRANCH   3   4
ENDBRANCH   2   3
TORSDOF 9
ENDMDL
MODEL      325
REMARK 921   NORMALIZED FREE ENERGY PREDICTED BY IDOCK:   -2.14 KCAL/MOL
REMARK 922        TOTAL FREE ENERGY PREDICTED BY IDOCK:   -3.81 KCAL/MOL
REMARK 923 INTER-LIGAND FREE ENERGY PREDICTED BY IDOCK:   -3.59 KCAL/MOL
REMARK 924 INTRA-LIGAND FREE ENERGY PREDICTED BY IDOCK:   -0.22 KCAL/MOL
REMARK 927      BINDING AFFINITY PREDICTED BY RF-SCORE:    0.00 PKD
ROOT
HETATM    1  C   UNL     1      -6.413   5.534  65.703  1.00  0.00    -0.040 C  
HETATM    2  C   UNL     1      -6.463   7.027  65.422  1.00  0.00    -0.047 C  
ENDROOT
BRANCH   2   3
HETATM    3  C   UNL     1      -7.680   7.673  66.081  1.00  0.00    -0.089 C  
BRANCH   3   4
HETATM    4  C   UNL     1      -8.080   8.962  65.367  1.00  0.00    -0.119 C  
BRANCH   4   5
HETATM    5  C   UNL     1      -9.564   9.262  65.569  1.00  0.00    -0.291 C  
BRANCH   5   6
HETATM    6  C   UNL     1      -9.952   9.156  67.043  1.00  0.00    -0.294 C  
BRANCH   6   7
HETATM    7  C   UNL     1      -9.007   9.976  67.921  1.00  0.00    -0.131 C  
BRANCH   7   8
HETATM    8  C   UNL     1      -9.694  10.380  69.225  1.00  0.00    -0.231 C  
BRANCH   8   9
HETATM    9  C   UNL     1     -10.671   9.305  69.698  1.00  0.00    -0.244 C  
BRANCH   9  10
HETATM   10  C   UNL     1     -10.905   9.411  71.205  1.00  0.00    -0.427 C  
BRANCH  10  11
HETATM   11  C   UNL     1     -12.070   8.534  71.654  1.00  0.00    -0.373 C  
HETATM   12  C   UNL     1     -13.288   9.359  72.004  1.00  0.00    -0.450 C  
HETATM   13  O   UNL     1     -14.329   8.591  72.403  1.00  0.00    -0.432 OA 
HETATM   14  O   UNL     1     -13.360  10.575  71.946  1.00  0.00    -0.418 OA 
ENDBRANCH  10  11
ENDBRANCH   9  10
ENDBRANCH   8   9
ENDBRANCH   7   8
ENDBRANCH   6   7
ENDBRANCH   5   6
ENDBRANCH   4   5
ENDBRANCH   3   4
ENDBRANCH   2   3
TORSDOF 9
ENDMDL
MODEL      326
REMARK 921   NORMALIZED FREE ENERGY PREDICTED BY IDOCK:   -2.13 KCAL/MOL
REMARK 922        TOTAL FREE ENERGY PREDICTED BY IDOCK:   -3.80 KCAL/MOL
REMARK 923 INTER-LIGAND FREE ENERGY PREDICTED BY IDOCK:   -2.83 KCAL/MOL
REMARK 924 INTRA-LIGAND FREE ENERGY PREDICTED BY IDOCK:   -0.96 KCAL/MOL
REMARK 927      BINDING AFFINITY PREDICTED BY RF-SCORE:    0.00 PKD
ROOT
HETATM    1  C   UNL     1     -10.945   5.580  73.241  1.00  0.00    -0.339 C  
HETATM    2  C   UNL     1     -10.862   4.111  72.858  1.00  0.00    -0.207 C  
ENDROOT
BRANCH   2   3
HETATM    3  C   UNL     1      -9.485   3.763  72.298  1.00  0.00    -0.187 C  
BRANCH   3   4
HETATM    4  C   UNL     1      -8.369   4.315  73.182  1.00  0.00    -0.091 C  
BRANCH   4   5
HETATM    5  C   UNL     1      -7.226   4.873  72.335  1.00  0.00    -0.082 C  
BRANCH   5   6
HETATM    6  C   UNL     1      -7.468   4.620  70.849  1.00  0.00    -0.056 C  
BRANCH   6   7
HETATM    7  C   UNL     1      -6.970   5.791  70.002  1.00  0.00    -0.065 C  
BRANCH   7   8
HETATM    8  C   UNL     1      -7.228   7.120  70.709  1.00  0.00    -0.071 C  
BRANCH   8   9
HETATM    9  C   UNL     1      -8.069   8.058  69.845  1.00  0.00    -0.117 C  
BRANCH   9  10
HETATM   10  C   UNL     1      -8.570   9.247  70.666  1.00  0.00    -0.270 C  
BRANCH  10  11
HETATM   11  C   UNL     1      -9.596   8.813  71.710  1.00  0.00    -0.371 C  
HETATM   12  C   UNL     1     -10.992   9.257  71.339  1.00  0.00    -0.359 C  
HETATM   13  O   UNL     1     -11.911   8.877  72.258  1.00  0.00    -0.355 OA 
HETATM   14  O   UNL     1     -11.294   9.885  70.338  1.00  0.00    -0.265 OA 
ENDBRANCH  10  11
ENDBRANCH   9  10
ENDBRANCH   8   9
ENDBRANCH   7   8
ENDBRANCH   6   7
ENDBRANCH   5   6
ENDBRANCH   4   5
ENDBRANCH   3   4
ENDBRANCH   2   3
TORSDOF 9
ENDMDL
MODEL      327
REMARK 921   NORMALIZED FREE ENERGY PREDICTED BY IDOCK:   -2.13 KCAL/MOL
REMARK 922        TOTAL FREE ENERGY PREDICTED BY IDOCK:   -3.79 KCAL/MOL
REMARK 923 INTER-LIGAND FREE ENERGY PREDICTED BY IDOCK:   -2.76 KCAL/MOL
REMARK 924 INTRA-LIGAND FREE ENERGY PREDICTED BY IDOCK:   -1.03 KCAL/MOL
REMARK 927      BINDING AFFINITY PREDICTED BY RF-SCORE:    0.00 PKD
ROOT
HETATM    1  C   UNL     1     -11.744  11.907  68.065  1.00  0.00    -0.382 C  
HETATM    2  C   UNL     1     -12.001  13.069  67.119  1.00  0.00    -0.389 C  
ENDROOT
BRANCH   2   3
HETATM    3  C   UNL     1     -11.345  14.351  67.627  1.00  0.00    -0.348 C  
BRANCH   3   4
HETATM    4  C   UNL     1     -10.399  14.067  68.793  1.00  0.00    -0.225 C  
BRANCH   4   5
HETATM    5  C   UNL     1      -9.303  15.128  68.878  1.00  0.00    -0.207 C  
BRANCH   5   6
HETATM    6  C   UNL     1      -7.916  14.489  68.849  1.00  0.00    -0.126 C  
BRANCH   6   7
HETATM    7  C   UNL     1      -7.621  13.874  67.481  1.00  0.00    -0.190 C  
BRANCH   7   8
HETATM    8  C   UNL     1      -6.378  12.987  67.542  1.00  0.00    -0.153 C  
BRANCH   8   9
HETATM    9  C   UNL     1      -6.731  11.515  67.338  1.00  0.00    -0.101 C  
BRANCH   9  10
HETATM   10  C   UNL     1      -8.210  11.358  66.980  1.00  0.00    -0.160 C  
BRANCH  10  11
HETATM   11  C   UNL     1      -8.388  10.729  65.601  1.00  0.00    -0.144 C  
HETATM   12  C   UNL     1      -8.969   9.336  65.695  1.00  0.00    -0.199 C  
HETATM   13  O   UNL     1      -9.133   8.768  64.476  1.00  0.00     0.012 OA 
HETATM   14  O   UNL     1      -9.267   8.759  66.727  1.00  0.00    -0.152 OA 
ENDBRANCH  10  11
ENDBRANCH   9  10
ENDBRANCH   8   9
ENDBRANCH   7   8
ENDBRANCH   6   7
ENDBRANCH   5   6
ENDBRANCH   4   5
ENDBRANCH   3   4
ENDBRANCH   2   3
TORSDOF 9
ENDMDL
MODEL      328
REMARK 921   NORMALIZED FREE ENERGY PREDICTED BY IDOCK:   -2.11 KCAL/MOL
REMARK 922        TOTAL FREE ENERGY PREDICTED BY IDOCK:   -3.77 KCAL/MOL
REMARK 923 INTER-LIGAND FREE ENERGY PREDICTED BY IDOCK:   -2.85 KCAL/MOL
REMARK 924 INTRA-LIGAND FREE ENERGY PREDICTED BY IDOCK:   -0.92 KCAL/MOL
REMARK 927      BINDING AFFINITY PREDICTED BY RF-SCORE:    0.00 PKD
ROOT
HETATM    1  C   UNL     1      -9.381   2.875  67.580  1.00  0.00    -0.234 C  
HETATM    2  C   UNL     1      -9.541   4.327  68.002  1.00  0.00    -0.204 C  
ENDROOT
BRANCH   2   3
HETATM    3  C   UNL     1     -10.258   5.139  66.926  1.00  0.00    -0.279 C  
BRANCH   3   4
HETATM    4  C   UNL     1      -9.266   5.782  65.959  1.00  0.00    -0.155 C  
BRANCH   4   5
HETATM    5  C   UNL     1      -9.104   7.272  66.251  1.00  0.00    -0.186 C  
BRANCH   5   6
HETATM    6  C   UNL     1     -10.377   7.855  66.863  1.00  0.00    -0.400 C  
BRANCH   6   7
HETATM    7  C   UNL     1     -10.103   9.204  67.525  1.00  0.00    -0.284 C  
BRANCH   7   8
HETATM    8  C   UNL     1     -10.854   9.320  68.850  1.00  0.00    -0.128 C  
BRANCH   8   9
HETATM    9  C   UNL     1     -10.375   8.276  69.857  1.00  0.00    -0.218 C  
BRANCH   9  10
HETATM   10  C   UNL     1      -8.893   8.474  70.178  1.00  0.00    -0.138 C  
BRANCH  10  11
HETATM   11  C   UNL     1      -8.299   7.247  70.864  1.00  0.00    -0.116 C  
HETATM   12  C   UNL     1      -7.691   7.596  72.203  1.00  0.00    -0.089 C  
HETATM   13  O   UNL     1      -7.162   6.514  72.822  1.00  0.00    -0.080 OA 
HETATM   14  O   UNL     1      -7.662   8.709  72.700  1.00  0.00    -0.335 OA 
ENDBRANCH  10  11
ENDBRANCH   9  10
ENDBRANCH   8   9
ENDBRANCH   7   8
ENDBRANCH   6   7
ENDBRANCH   5   6
ENDBRANCH   4   5
ENDBRANCH   3   4
ENDBRANCH   2   3
TORSDOF 9
ENDMDL
MODEL      329
REMARK 921   NORMALIZED FREE ENERGY PREDICTED BY IDOCK:   -2.11 KCAL/MOL
REMARK 922        TOTAL FREE ENERGY PREDICTED BY IDOCK:   -3.76 KCAL/MOL
REMARK 923 INTER-LIGAND FREE ENERGY PREDICTED BY IDOCK:   -3.34 KCAL/MOL
REMARK 924 INTRA-LIGAND FREE ENERGY PREDICTED BY IDOCK:   -0.43 KCAL/MOL
REMARK 927      BINDING AFFINITY PREDICTED BY RF-SCORE:    0.00 PKD
ROOT
HETATM    1  C   UNL     1      -8.323   4.391  64.840  1.00  0.00    -0.118 C  
HETATM    2  C   UNL     1      -7.854   5.831  64.701  1.00  0.00    -0.116 C  
ENDROOT
BRANCH   2   3
HETATM    3  C   UNL     1      -8.059   6.606  66.000  1.00  0.00    -0.122 C  
BRANCH   3   4
HETATM    4  C   UNL     1      -9.415   6.291  66.629  1.00  0.00    -0.178 C  
BRANCH   4   5
HETATM    5  C   UNL     1     -10.089   7.562  67.143  1.00  0.00    -0.317 C  
BRANCH   5   6
HETATM    6  C   UNL     1      -9.231   8.793  66.858  1.00  0.00    -0.195 C  
BRANCH   6   7
HETATM    7  C   UNL     1     -10.022   9.851  66.090  1.00  0.00    -0.331 C  
BRANCH   7   8
HETATM    8  C   UNL     1      -9.284  11.189  66.094  1.00  0.00    -0.216 C  
BRANCH   8   9
HETATM    9  C   UNL     1     -10.185  12.325  65.610  1.00  0.00    -0.287 C  
BRANCH   9  10
HETATM   10  C   UNL     1     -10.719  13.134  66.792  1.00  0.00    -0.274 C  
BRANCH  10  11
HETATM   11  C   UNL     1     -10.619  14.635  66.534  1.00  0.00    -0.300 C  
HETATM   12  C   UNL     1     -11.116  15.439  67.714  1.00  0.00    -0.320 C  
HETATM   13  O   UNL     1     -11.031  16.772  67.496  1.00  0.00    -0.261 OA 
HETATM   14  O   UNL     1     -11.550  14.975  68.755  1.00  0.00    -0.303 OA 
ENDBRANCH  10  11
ENDBRANCH   9  10
ENDBRANCH   8   9
ENDBRANCH   7   8
ENDBRANCH   6   7
ENDBRANCH   5   6
ENDBRANCH   4   5
ENDBRANCH   3   4
ENDBRANCH   2   3
TORSDOF 9
ENDMDL
MODEL      330
REMARK 921   NORMALIZED FREE ENERGY PREDICTED BY IDOCK:   -2.10 KCAL/MOL
REMARK 922        TOTAL FREE ENERGY PREDICTED BY IDOCK:   -3.76 KCAL/MOL
REMARK 923 INTER-LIGAND FREE ENERGY PREDICTED BY IDOCK:   -3.05 KCAL/MOL
REMARK 924 INTRA-LIGAND FREE ENERGY PREDICTED BY IDOCK:   -0.71 KCAL/MOL
REMARK 927      BINDING AFFINITY PREDICTED BY RF-SCORE:    0.00 PKD
ROOT
HETATM    1  C   UNL     1      -6.122   9.755  64.272  1.00  0.00    -0.113 C  
HETATM    2  C   UNL     1      -5.999   8.315  64.745  1.00  0.00    -0.048 C  
ENDROOT
BRANCH   2   3
HETATM    3  C   UNL     1      -6.055   8.227  66.269  1.00  0.00    -0.045 C  
BRANCH   3   4
HETATM    4  C   UNL     1      -7.091   9.190  66.844  1.00  0.00    -0.082 C  
BRANCH   4   5
HETATM    5  C   UNL     1      -8.196   8.431  67.576  1.00  0.00    -0.125 C  
BRANCH   5   6
HETATM    6  C   UNL     1      -9.405   8.209  66.668  1.00  0.00    -0.250 C  
BRANCH   6   7
HETATM    7  C   UNL     1     -10.141   9.520  66.400  1.00  0.00    -0.328 C  
BRANCH   7   8
HETATM    8  C   UNL     1     -10.405  10.271  67.704  1.00  0.00    -0.264 C  
BRANCH   8   9
HETATM    9  C   UNL     1     -11.464  11.357  67.519  1.00  0.00    -0.336 C  
BRANCH   9  10
HETATM   10  C   UNL     1     -11.187  12.174  66.256  1.00  0.00    -0.382 C  
BRANCH  10  11
HETATM   11  C   UNL     1     -10.119  13.236  66.499  1.00  0.00    -0.275 C  
HETATM   12  C   UNL     1     -10.705  14.630  66.483  1.00  0.00    -0.312 C  
HETATM   13  O   UNL     1      -9.766  15.582  66.699  1.00  0.00    -0.228 OA 
HETATM   14  O   UNL     1     -11.879  14.904  66.300  1.00  0.00    -0.264 OA 
ENDBRANCH  10  11
ENDBRANCH   9  10
ENDBRANCH   8   9
ENDBRANCH   7   8
ENDBRANCH   6   7
ENDBRANCH   5   6
ENDBRANCH   4   5
ENDBRANCH   3   4
ENDBRANCH   2   3
TORSDOF 9
ENDMDL
MODEL      331
REMARK 921   NORMALIZED FREE ENERGY PREDICTED BY IDOCK:   -2.08 KCAL/MOL
REMARK 922        TOTAL FREE ENERGY PREDICTED BY IDOCK:   -3.73 KCAL/MOL
REMARK 923 INTER-LIGAND FREE ENERGY PREDICTED BY IDOCK:   -3.25 KCAL/MOL
REMARK 924 INTRA-LIGAND FREE ENERGY PREDICTED BY IDOCK:   -0.48 KCAL/MOL
REMARK 927      BINDING AFFINITY PREDICTED BY RF-SCORE:    0.00 PKD
ROOT
HETATM    1  C   UNL     1     -11.243  11.276  69.132  1.00  0.00    -0.337 C  
HETATM    2  C   UNL     1     -10.484  10.087  68.563  1.00  0.00    -0.229 C  
ENDROOT
BRANCH   2   3
HETATM    3  C   UNL     1      -9.182   9.847  69.324  1.00  0.00    -0.207 C  
BRANCH   3   4
HETATM    4  C   UNL     1      -7.992  10.473  68.600  1.00  0.00    -0.124 C  
BRANCH   4   5
HETATM    5  C   UNL     1      -8.411  11.734  67.847  1.00  0.00    -0.149 C  
BRANCH   5   6
HETATM    6  C   UNL     1      -7.426  12.875  68.094  1.00  0.00    -0.126 C  
BRANCH   6   7
HETATM    7  C   UNL     1      -7.870  14.151  67.379  1.00  0.00    -0.195 C  
BRANCH   7   8
HETATM    8  C   UNL     1      -9.378  14.139  67.134  1.00  0.00    -0.241 C  
BRANCH   8   9
HETATM    9  C   UNL     1      -9.791  15.224  66.142  1.00  0.00    -0.333 C  
BRANCH   9  10
HETATM   10  C   UNL     1     -10.452  16.397  66.866  1.00  0.00    -0.289 C  
BRANCH  10  11
HETATM   11  C   UNL     1      -9.495  17.577  67.011  1.00  0.00    -0.268 C  
HETATM   12  C   UNL     1      -8.915  17.657  68.404  1.00  0.00    -0.280 C  
HETATM   13  O   UNL     1      -8.063  18.700  68.544  1.00  0.00    -0.324 OA 
HETATM   14  O   UNL     1      -9.161  16.890  69.320  1.00  0.00    -0.144 OA 
ENDBRANCH  10  11
ENDBRANCH   9  10
ENDBRANCH   8   9
ENDBRANCH   7   8
ENDBRANCH   6   7
ENDBRANCH   5   6
ENDBRANCH   4   5
ENDBRANCH   3   4
ENDBRANCH   2   3
TORSDOF 9
ENDMDL
MODEL      332
REMARK 921   NORMALIZED FREE ENERGY PREDICTED BY IDOCK:   -2.08 KCAL/MOL
REMARK 922        TOTAL FREE ENERGY PREDICTED BY IDOCK:   -3.71 KCAL/MOL
REMARK 923 INTER-LIGAND FREE ENERGY PREDICTED BY IDOCK:   -3.06 KCAL/MOL
REMARK 924 INTRA-LIGAND FREE ENERGY PREDICTED BY IDOCK:   -0.65 KCAL/MOL
REMARK 927      BINDING AFFINITY PREDICTED BY RF-SCORE:    0.00 PKD
ROOT
HETATM    1  C   UNL     1      -9.372   2.881  67.573  1.00  0.00    -0.218 C  
HETATM    2  C   UNL     1      -9.492   4.353  67.935  1.00  0.00    -0.209 C  
ENDROOT
BRANCH   2   3
HETATM    3  C   UNL     1     -10.205   5.136  66.834  1.00  0.00    -0.279 C  
BRANCH   3   4
HETATM    4  C   UNL     1      -9.213   5.685  65.811  1.00  0.00    -0.111 C  
BRANCH   4   5
HETATM    5  C   UNL     1      -9.010   7.188  65.997  1.00  0.00    -0.141 C  
BRANCH   5   6
HETATM    6  C   UNL     1     -10.252   7.840  66.603  1.00  0.00    -0.288 C  
BRANCH   6   7
HETATM    7  C   UNL     1      -9.948   9.255  67.092  1.00  0.00    -0.276 C  
BRANCH   7   8
HETATM    8  C   UNL     1     -10.628   9.522  68.435  1.00  0.00    -0.261 C  
BRANCH   8   9
HETATM    9  C   UNL     1     -10.035   8.653  69.543  1.00  0.00    -0.196 C  
BRANCH   9  10
HETATM   10  C   UNL     1     -11.093   8.322  70.596  1.00  0.00    -0.269 C  
BRANCH  10  11
HETATM   11  C   UNL     1     -10.462   7.768  71.870  1.00  0.00    -0.268 C  
HETATM   12  C   UNL     1     -11.013   6.404  72.219  1.00  0.00    -0.254 C  
HETATM   13  O   UNL     1     -10.459   5.903  73.348  1.00  0.00    -0.215 OA 
HETATM   14  O   UNL     1     -11.858   5.797  71.583  1.00  0.00    -0.075 OA 
ENDBRANCH  10  11
ENDBRANCH   9  10
ENDBRANCH   8   9
ENDBRANCH   7   8
ENDBRANCH   6   7
ENDBRANCH   5   6
ENDBRANCH   4   5
ENDBRANCH   3   4
ENDBRANCH   2   3
TORSDOF 9
ENDMDL
MODEL      333
REMARK 921   NORMALIZED FREE ENERGY PREDICTED BY IDOCK:   -2.07 KCAL/MOL
REMARK 922        TOTAL FREE ENERGY PREDICTED BY IDOCK:   -3.70 KCAL/MOL
REMARK 923 INTER-LIGAND FREE ENERGY PREDICTED BY IDOCK:   -2.62 KCAL/MOL
REMARK 924 INTRA-LIGAND FREE ENERGY PREDICTED BY IDOCK:   -1.08 KCAL/MOL
REMARK 927      BINDING AFFINITY PREDICTED BY RF-SCORE:    0.00 PKD
ROOT
HETATM    1  C   UNL     1      -7.265   7.266  70.968  1.00  0.00    -0.073 C  
HETATM    2  C   UNL     1      -7.019   6.028  70.121  1.00  0.00    -0.069 C  
ENDROOT
BRANCH   2   3
HETATM    3  C   UNL     1      -7.498   4.766  70.835  1.00  0.00    -0.064 C  
BRANCH   3   4
HETATM    4  C   UNL     1      -8.641   5.073  71.801  1.00  0.00    -0.132 C  
BRANCH   4   5
HETATM    5  C   UNL     1      -9.997   4.852  71.132  1.00  0.00    -0.278 C  
BRANCH   5   6
HETATM    6  C   UNL     1     -11.034   5.847  71.649  1.00  0.00    -0.327 C  
BRANCH   6   7
HETATM    7  C   UNL     1     -11.516   6.772  70.531  1.00  0.00    -0.413 C  
BRANCH   7   8
HETATM    8  C   UNL     1     -10.914   6.359  69.189  1.00  0.00    -0.416 C  
BRANCH   8   9
HETATM    9  C   UNL     1     -10.743   7.560  68.260  1.00  0.00    -0.128 C  
BRANCH   9  10
HETATM   10  C   UNL     1      -9.350   7.564  67.631  1.00  0.00    -0.151 C  
BRANCH  10  11
HETATM   11  C   UNL     1      -9.371   8.161  66.227  1.00  0.00    -0.259 C  
HETATM   12  C   UNL     1      -8.093   8.906  65.917  1.00  0.00    -0.109 C  
HETATM   13  O   UNL     1      -8.100   9.439  64.672  1.00  0.00    -0.119 OA 
HETATM   14  O   UNL     1      -7.145   9.034  66.674  1.00  0.00    -0.080 OA 
ENDBRANCH  10  11
ENDBRANCH   9  10
ENDBRANCH   8   9
ENDBRANCH   7   8
ENDBRANCH   6   7
ENDBRANCH   5   6
ENDBRANCH   4   5
ENDBRANCH   3   4
ENDBRANCH   2   3
TORSDOF 9
ENDMDL
MODEL      334
REMARK 921   NORMALIZED FREE ENERGY PREDICTED BY IDOCK:   -2.05 KCAL/MOL
REMARK 922        TOTAL FREE ENERGY PREDICTED BY IDOCK:   -3.68 KCAL/MOL
REMARK 923 INTER-LIGAND FREE ENERGY PREDICTED BY IDOCK:   -2.82 KCAL/MOL
REMARK 924 INTRA-LIGAND FREE ENERGY PREDICTED BY IDOCK:   -0.85 KCAL/MOL
REMARK 927      BINDING AFFINITY PREDICTED BY RF-SCORE:    0.00 PKD
ROOT
HETATM    1  C   UNL     1     -11.947  10.417  70.057  1.00  0.00    -0.324 C  
HETATM    2  C   UNL     1     -11.512   9.005  70.414  1.00  0.00    -0.202 C  
ENDROOT
BRANCH   2   3
HETATM    3  C   UNL     1     -11.076   8.914  71.875  1.00  0.00    -0.442 C  
BRANCH   3   4
HETATM    4  C   UNL     1      -9.782   8.116  72.021  1.00  0.00    -0.292 C  
BRANCH   4   5
HETATM    5  C   UNL     1      -9.620   7.121  70.872  1.00  0.00    -0.167 C  
BRANCH   5   6
HETATM    6  C   UNL     1      -8.513   7.560  69.916  1.00  0.00    -0.138 C  
BRANCH   6   7
HETATM    7  C   UNL     1      -8.666   6.891  68.551  1.00  0.00    -0.125 C  
BRANCH   7   8
HETATM    8  C   UNL     1      -9.485   7.768  67.606  1.00  0.00    -0.168 C  
BRANCH   8   9
HETATM    9  C   UNL     1      -9.185   9.251  67.819  1.00  0.00    -0.141 C  
BRANCH   9  10
HETATM   10  C   UNL     1      -9.454  10.047  66.542  1.00  0.00    -0.222 C  
BRANCH  10  11
HETATM   11  C   UNL     1      -9.074   9.252  65.296  1.00  0.00    -0.271 C  
HETATM   12  C   UNL     1      -7.745   9.700  64.731  1.00  0.00    -0.122 C  
HETATM   13  O   UNL     1      -7.397   9.001  63.625  1.00  0.00    -0.098 OA 
HETATM   14  O   UNL     1      -7.041  10.584  65.191  1.00  0.00    -0.112 OA 
ENDBRANCH  10  11
ENDBRANCH   9  10
ENDBRANCH   8   9
ENDBRANCH   7   8
ENDBRANCH   6   7
ENDBRANCH   5   6
ENDBRANCH   4   5
ENDBRANCH   3   4
ENDBRANCH   2   3
TORSDOF 9
ENDMDL
MODEL      335
REMARK 921   NORMALIZED FREE ENERGY PREDICTED BY IDOCK:   -2.05 KCAL/MOL
REMARK 922        TOTAL FREE ENERGY PREDICTED BY IDOCK:   -3.67 KCAL/MOL
REMARK 923 INTER-LIGAND FREE ENERGY PREDICTED BY IDOCK:   -3.09 KCAL/MOL
REMARK 924 INTRA-LIGAND FREE ENERGY PREDICTED BY IDOCK:   -0.58 KCAL/MOL
REMARK 927      BINDING AFFINITY PREDICTED BY RF-SCORE:    0.00 PKD
ROOT
HETATM    1  C   UNL     1      -7.603   5.742  66.381  1.00  0.00    -0.091 C  
HETATM    2  C   UNL     1      -7.763   6.990  65.527  1.00  0.00    -0.105 C  
ENDROOT
BRANCH   2   3
HETATM    3  C   UNL     1      -8.925   7.850  66.018  1.00  0.00    -0.195 C  
BRANCH   3   4
HETATM    4  C   UNL     1      -8.817   9.281  65.496  1.00  0.00    -0.224 C  
BRANCH   4   5
HETATM    5  C   UNL     1     -10.158  10.006  65.603  1.00  0.00    -0.321 C  
BRANCH   5   6
HETATM    6  C   UNL     1     -10.638  10.063  67.052  1.00  0.00    -0.279 C  
BRANCH   6   7
HETATM    7  C   UNL     1     -10.119  11.316  67.755  1.00  0.00    -0.199 C  
BRANCH   7   8
HETATM    8  C   UNL     1     -10.313  11.208  69.267  1.00  0.00    -0.148 C  
BRANCH   8   9
HETATM    9  C   UNL     1     -10.971   9.884  69.653  1.00  0.00    -0.285 C  
BRANCH   9  10
HETATM   10  C   UNL     1      -9.933   8.901  70.194  1.00  0.00    -0.207 C  
BRANCH  10  11
HETATM   11  C   UNL     1     -10.562   7.553  70.535  1.00  0.00    -0.232 C  
HETATM   12  C   UNL     1     -10.800   7.408  72.021  1.00  0.00    -0.227 C  
HETATM   13  O   UNL     1     -11.359   6.215  72.335  1.00  0.00    -0.269 OA 
HETATM   14  O   UNL     1     -10.532   8.244  72.867  1.00  0.00    -0.314 OA 
ENDBRANCH  10  11
ENDBRANCH   9  10
ENDBRANCH   8   9
ENDBRANCH   7   8
ENDBRANCH   6   7
ENDBRANCH   5   6
ENDBRANCH   4   5
ENDBRANCH   3   4
ENDBRANCH   2   3
TORSDOF 9
ENDMDL
MODEL      336
REMARK 921   NORMALIZED FREE ENERGY PREDICTED BY IDOCK:   -2.05 KCAL/MOL
REMARK 922        TOTAL FREE ENERGY PREDICTED BY IDOCK:   -3.67 KCAL/MOL
REMARK 923 INTER-LIGAND FREE ENERGY PREDICTED BY IDOCK:   -3.09 KCAL/MOL
REMARK 924 INTRA-LIGAND FREE ENERGY PREDICTED BY IDOCK:   -0.58 KCAL/MOL
REMARK 927      BINDING AFFINITY PREDICTED BY RF-SCORE:    0.00 PKD
ROOT
HETATM    1  C   UNL     1     -12.949  12.086  71.739  1.00  0.00    -0.445 C  
HETATM    2  C   UNL     1     -12.120  11.880  70.482  1.00  0.00    -0.422 C  
ENDROOT
BRANCH   2   3
HETATM    3  C   UNL     1     -12.325  10.480  69.907  1.00  0.00    -0.247 C  
BRANCH   3   4
HETATM    4  C   UNL     1     -12.473   9.440  71.016  1.00  0.00    -0.311 C  
BRANCH   4   5
HETATM    5  C   UNL     1     -11.325   8.433  70.978  1.00  0.00    -0.303 C  
BRANCH   5   6
HETATM    6  C   UNL     1      -9.979   9.137  70.823  1.00  0.00    -0.334 C  
BRANCH   6   7
HETATM    7  C   UNL     1      -8.976   8.254  70.083  1.00  0.00    -0.142 C  
BRANCH   7   8
HETATM    8  C   UNL     1      -9.194   8.335  68.573  1.00  0.00    -0.136 C  
BRANCH   8   9
HETATM    9  C   UNL     1      -9.571   6.974  67.989  1.00  0.00    -0.133 C  
BRANCH   9  10
HETATM   10  C   UNL     1      -8.435   6.420  67.129  1.00  0.00    -0.112 C  
BRANCH  10  11
HETATM   11  C   UNL     1      -8.788   5.053  66.548  1.00  0.00    -0.112 C  
HETATM   12  C   UNL     1      -8.571   5.010  65.052  1.00  0.00    -0.149 C  
HETATM   13  O   UNL     1      -8.880   3.801  64.526  1.00  0.00    -0.114 OA 
HETATM   14  O   UNL     1      -8.168   5.934  64.367  1.00  0.00    -0.132 OA 
ENDBRANCH  10  11
ENDBRANCH   9  10
ENDBRANCH   8   9
ENDBRANCH   7   8
ENDBRANCH   6   7
ENDBRANCH   5   6
ENDBRANCH   4   5
ENDBRANCH   3   4
ENDBRANCH   2   3
TORSDOF 9
ENDMDL
MODEL      337
REMARK 921   NORMALIZED FREE ENERGY PREDICTED BY IDOCK:   -2.03 KCAL/MOL
REMARK 922        TOTAL FREE ENERGY PREDICTED BY IDOCK:   -3.65 KCAL/MOL
REMARK 923 INTER-LIGAND FREE ENERGY PREDICTED BY IDOCK:   -3.02 KCAL/MOL
REMARK 924 INTRA-LIGAND FREE ENERGY PREDICTED BY IDOCK:   -0.63 KCAL/MOL
REMARK 927      BINDING AFFINITY PREDICTED BY RF-SCORE:    0.00 PKD
ROOT
HETATM    1  C   UNL     1      -6.825  10.152  69.731  1.00  0.00    -0.105 C  
HETATM    2  C   UNL     1      -7.413   9.716  68.399  1.00  0.00    -0.080 C  
ENDROOT
BRANCH   2   3
HETATM    3  C   UNL     1      -6.978  10.650  67.271  1.00  0.00    -0.084 C  
BRANCH   3   4
HETATM    4  C   UNL     1      -7.868  10.488  66.041  1.00  0.00    -0.147 C  
BRANCH   4   5
HETATM    5  C   UNL     1      -9.345  10.471  66.432  1.00  0.00    -0.197 C  
BRANCH   5   6
HETATM    6  C   UNL     1     -10.051  11.743  65.969  1.00  0.00    -0.263 C  
BRANCH   6   7
HETATM    7  C   UNL     1     -10.614  12.524  67.156  1.00  0.00    -0.247 C  
BRANCH   7   8
HETATM    8  C   UNL     1      -9.649  13.627  67.587  1.00  0.00    -0.221 C  
BRANCH   8   9
HETATM    9  C   UNL     1     -10.370  14.962  67.768  1.00  0.00    -0.244 C  
BRANCH   9  10
HETATM   10  C   UNL     1      -9.961  15.624  69.084  1.00  0.00    -0.244 C  
BRANCH  10  11
HETATM   11  C   UNL     1     -10.225  17.127  69.059  1.00  0.00    -0.315 C  
HETATM   12  C   UNL     1      -9.023  17.897  68.560  1.00  0.00    -0.286 C  
HETATM   13  O   UNL     1      -9.246  19.232  68.533  1.00  0.00    -0.353 OA 
HETATM   14  O   UNL     1      -7.961  17.407  68.213  1.00  0.00    -0.233 OA 
ENDBRANCH  10  11
ENDBRANCH   9  10
ENDBRANCH   8   9
ENDBRANCH   7   8
ENDBRANCH   6   7
ENDBRANCH   5   6
ENDBRANCH   4   5
ENDBRANCH   3   4
ENDBRANCH   2   3
TORSDOF 9
ENDMDL
MODEL      338
REMARK 921   NORMALIZED FREE ENERGY PREDICTED BY IDOCK:   -2.03 KCAL/MOL
REMARK 922        TOTAL FREE ENERGY PREDICTED BY IDOCK:   -3.64 KCAL/MOL
REMARK 923 INTER-LIGAND FREE ENERGY PREDICTED BY IDOCK:   -2.57 KCAL/MOL
REMARK 924 INTRA-LIGAND FREE ENERGY PREDICTED BY IDOCK:   -1.07 KCAL/MOL
REMARK 927      BINDING AFFINITY PREDICTED BY RF-SCORE:    0.00 PKD
ROOT
HETATM    1  C   UNL     1      -6.641   5.986  69.054  1.00  0.00    -0.051 C  
HETATM    2  C   UNL     1      -6.628   6.342  70.532  1.00  0.00    -0.045 C  
ENDROOT
BRANCH   2   3
HETATM    3  C   UNL     1      -6.828   7.842  70.740  1.00  0.00    -0.042 C  
BRANCH   3   4
HETATM    4  C   UNL     1      -7.041   8.565  69.412  1.00  0.00    -0.054 C  
BRANCH   4   5
HETATM    5  C   UNL     1      -8.388   9.286  69.391  1.00  0.00    -0.127 C  
BRANCH   5   6
HETATM    6  C   UNL     1      -9.053   9.171  68.021  1.00  0.00    -0.136 C  
BRANCH   6   7
HETATM    7  C   UNL     1     -10.501   8.700  68.149  1.00  0.00    -0.241 C  
BRANCH   7   8
HETATM    8  C   UNL     1     -10.719   7.970  69.473  1.00  0.00    -0.185 C  
BRANCH   8   9
HETATM    9  C   UNL     1     -11.072   6.501  69.249  1.00  0.00    -0.393 C  
BRANCH   9  10
HETATM   10  C   UNL     1     -11.123   5.747  70.578  1.00  0.00    -0.280 C  
BRANCH  10  11
HETATM   11  C   UNL     1     -11.017   6.699  71.766  1.00  0.00    -0.276 C  
HETATM   12  C   UNL     1     -10.421   6.017  72.977  1.00  0.00    -0.224 C  
HETATM   13  O   UNL     1     -10.321   6.853  74.037  1.00  0.00    -0.363 OA 
HETATM   14  O   UNL     1     -10.060   4.853  73.029  1.00  0.00    -0.154 OA 
ENDBRANCH  10  11
ENDBRANCH   9  10
ENDBRANCH   8   9
ENDBRANCH   7   8
ENDBRANCH   6   7
ENDBRANCH   5   6
ENDBRANCH   4   5
ENDBRANCH   3   4
ENDBRANCH   2   3
TORSDOF 9
ENDMDL
MODEL      339
REMARK 921   NORMALIZED FREE ENERGY PREDICTED BY IDOCK:   -2.01 KCAL/MOL
REMARK 922        TOTAL FREE ENERGY PREDICTED BY IDOCK:   -3.61 KCAL/MOL
REMARK 923 INTER-LIGAND FREE ENERGY PREDICTED BY IDOCK:   -3.03 KCAL/MOL
REMARK 924 INTRA-LIGAND FREE ENERGY PREDICTED BY IDOCK:   -0.58 KCAL/MOL
REMARK 927      BINDING AFFINITY PREDICTED BY RF-SCORE:    0.00 PKD
ROOT
HETATM    1  C   UNL     1      -9.621   4.670  65.654  1.00  0.00    -0.189 C  
HETATM    2  C   UNL     1      -9.717   4.478  67.159  1.00  0.00    -0.227 C  
ENDROOT
BRANCH   2   3
HETATM    3  C   UNL     1      -8.560   5.167  67.879  1.00  0.00    -0.103 C  
BRANCH   3   4
HETATM    4  C   UNL     1      -8.981   6.524  68.437  1.00  0.00    -0.125 C  
BRANCH   4   5
HETATM    5  C   UNL     1     -10.305   6.980  67.826  1.00  0.00    -0.255 C  
BRANCH   5   6
HETATM    6  C   UNL     1     -11.145   7.748  68.845  1.00  0.00     0.211 C  
BRANCH   6   7
HETATM    7  C   UNL     1     -10.614   7.546  70.263  1.00  0.00    -0.235 C  
BRANCH   7   8
HETATM    8  C   UNL     1     -10.730   8.836  71.074  1.00  0.00    -0.290 C  
BRANCH   8   9
HETATM    9  C   UNL     1     -12.011   9.596  70.734  1.00  0.00    -0.356 C  
BRANCH   9  10
HETATM   10  C   UNL     1     -11.721  11.083  70.530  1.00  0.00    -0.416 C  
BRANCH  10  11
HETATM   11  C   UNL     1     -12.292  11.590  69.209  1.00  0.00    -0.121 C  
HETATM   12  C   UNL     1     -11.217  11.735  68.156  1.00  0.00    -0.260 C  
HETATM   13  O   UNL     1     -11.713  12.184  66.978  1.00  0.00    -0.477 OA 
HETATM   14  O   UNL     1     -10.033  11.488  68.312  1.00  0.00    -0.188 OA 
ENDBRANCH  10  11
ENDBRANCH   9  10
ENDBRANCH   8   9
ENDBRANCH   7   8
ENDBRANCH   6   7
ENDBRANCH   5   6
ENDBRANCH   4   5
ENDBRANCH   3   4
ENDBRANCH   2   3
TORSDOF 9
ENDMDL
MODEL      340
REMARK 921   NORMALIZED FREE ENERGY PREDICTED BY IDOCK:   -2.00 KCAL/MOL
REMARK 922        TOTAL FREE ENERGY PREDICTED BY IDOCK:   -3.60 KCAL/MOL
REMARK 923 INTER-LIGAND FREE ENERGY PREDICTED BY IDOCK:   -3.07 KCAL/MOL
REMARK 924 INTRA-LIGAND FREE ENERGY PREDICTED BY IDOCK:   -0.53 KCAL/MOL
REMARK 927      BINDING AFFINITY PREDICTED BY RF-SCORE:    0.00 PKD
ROOT
HETATM    1  C   UNL     1     -10.228   9.867  65.587  1.00  0.00    -0.229 C  
HETATM    2  C   UNL     1      -9.599   9.141  66.766  1.00  0.00    -0.253 C  
ENDROOT
BRANCH   2   3
HETATM    3  C   UNL     1      -9.128   7.744  66.367  1.00  0.00    -0.216 C  
BRANCH   3   4
HETATM    4  C   UNL     1      -8.694   6.935  67.587  1.00  0.00    -0.120 C  
BRANCH   4   5
HETATM    5  C   UNL     1      -7.912   7.803  68.571  1.00  0.00    -0.122 C  
BRANCH   5   6
HETATM    6  C   UNL     1      -7.586   7.032  69.848  1.00  0.00    -0.102 C  
BRANCH   6   7
HETATM    7  C   UNL     1      -8.348   7.598  71.044  1.00  0.00    -0.112 C  
BRANCH   7   8
HETATM    8  C   UNL     1      -9.849   7.639  70.761  1.00  0.00    -0.177 C  
BRANCH   8   9
HETATM    9  C   UNL     1     -10.512   6.297  71.071  1.00  0.00    -0.274 C  
BRANCH   9  10
HETATM   10  C   UNL     1     -11.840   6.505  71.801  1.00  0.00    -0.384 C  
BRANCH  10  11
HETATM   11  C   UNL     1     -12.760   7.448  71.031  1.00  0.00    -0.247 C  
HETATM   12  C   UNL     1     -12.913   8.777  71.736  1.00  0.00    -0.361 C  
HETATM   13  O   UNL     1     -13.727   9.623  71.061  1.00  0.00    -0.274 OA 
HETATM   14  O   UNL     1     -12.381   9.087  72.788  1.00  0.00    -0.196 OA 
ENDBRANCH  10  11
ENDBRANCH   9  10
ENDBRANCH   8   9
ENDBRANCH   7   8
ENDBRANCH   6   7
ENDBRANCH   5   6
ENDBRANCH   4   5
ENDBRANCH   3   4
ENDBRANCH   2   3
TORSDOF 9
ENDMDL
MODEL      341
REMARK 921   NORMALIZED FREE ENERGY PREDICTED BY IDOCK:   -1.99 KCAL/MOL
REMARK 922        TOTAL FREE ENERGY PREDICTED BY IDOCK:   -3.59 KCAL/MOL
REMARK 923 INTER-LIGAND FREE ENERGY PREDICTED BY IDOCK:   -2.81 KCAL/MOL
REMARK 924 INTRA-LIGAND FREE ENERGY PREDICTED BY IDOCK:   -0.77 KCAL/MOL
REMARK 927      BINDING AFFINITY PREDICTED BY RF-SCORE:    0.00 PKD
ROOT
HETATM    1  C   UNL     1      -9.707   4.732  65.643  1.00  0.00    -0.188 C  
HETATM    2  C   UNL     1      -9.781   4.954  67.145  1.00  0.00    -0.194 C  
ENDROOT
BRANCH   2   3
HETATM    3  C   UNL     1      -8.542   5.685  67.657  1.00  0.00    -0.108 C  
BRANCH   3   4
HETATM    4  C   UNL     1      -8.815   7.174  67.854  1.00  0.00    -0.124 C  
BRANCH   4   5
HETATM    5  C   UNL     1      -8.569   7.951  66.562  1.00  0.00    -0.149 C  
BRANCH   5   6
HETATM    6  C   UNL     1      -9.460   9.188  66.484  1.00  0.00    -0.266 C  
BRANCH   6   7
HETATM    7  C   UNL     1     -10.586   9.122  67.516  1.00  0.00    -0.317 C  
BRANCH   7   8
HETATM    8  C   UNL     1     -10.803  10.486  68.170  1.00  0.00    -0.300 C  
BRANCH   8   9
HETATM    9  C   UNL     1     -10.508  11.625  67.196  1.00  0.00    -0.252 C  
BRANCH   9  10
HETATM   10  C   UNL     1      -9.701  12.728  67.881  1.00  0.00    -0.217 C  
BRANCH  10  11
HETATM   11  C   UNL     1      -8.416  13.039  67.119  1.00  0.00    -0.176 C  
HETATM   12  C   UNL     1      -7.199  12.485  67.826  1.00  0.00    -0.125 C  
HETATM   13  O   UNL     1      -6.053  12.754  67.158  1.00  0.00    -0.289 OA 
HETATM   14  O   UNL     1      -7.211  11.866  68.877  1.00  0.00    -0.109 OA 
ENDBRANCH  10  11
ENDBRANCH   9  10
ENDBRANCH   8   9
ENDBRANCH   7   8
ENDBRANCH   6   7
ENDBRANCH   5   6
ENDBRANCH   4   5
ENDBRANCH   3   4
ENDBRANCH   2   3
TORSDOF 9
ENDMDL
MODEL      342
REMARK 921   NORMALIZED FREE ENERGY PREDICTED BY IDOCK:   -1.98 KCAL/MOL
REMARK 922        TOTAL FREE ENERGY PREDICTED BY IDOCK:   -3.56 KCAL/MOL
REMARK 923 INTER-LIGAND FREE ENERGY PREDICTED BY IDOCK:   -3.00 KCAL/MOL
REMARK 924 INTRA-LIGAND FREE ENERGY PREDICTED BY IDOCK:   -0.56 KCAL/MOL
REMARK 927      BINDING AFFINITY PREDICTED BY RF-SCORE:    0.00 PKD
ROOT
HETATM    1  C   UNL     1     -12.496  13.103  71.191  1.00  0.00    -0.378 C  
HETATM    2  C   UNL     1     -12.526  12.733  69.716  1.00  0.00     0.049 C  
ENDROOT
BRANCH   2   3
HETATM    3  C   UNL     1     -11.208  12.097  69.279  1.00  0.00    -0.288 C  
BRANCH   3   4
HETATM    4  C   UNL     1     -11.090  12.052  67.758  1.00  0.00    -0.303 C  
BRANCH   4   5
HETATM    5  C   UNL     1     -11.071  10.611  67.252  1.00  0.00    -0.313 C  
BRANCH   5   6
HETATM    6  C   UNL     1     -11.127   9.620  68.413  1.00  0.00    -0.090 C  
BRANCH   6   7
HETATM    7  C   UNL     1     -10.142   8.470  68.205  1.00  0.00    -0.240 C  
BRANCH   7   8
HETATM    8  C   UNL     1     -10.297   7.870  66.808  1.00  0.00    -0.357 C  
BRANCH   8   9
HETATM    9  C   UNL     1     -10.193   6.346  66.840  1.00  0.00    -0.277 C  
BRANCH   9  10
HETATM   10  C   UNL     1      -9.223   5.893  67.932  1.00  0.00    -0.108 C  
BRANCH  10  11
HETATM   11  C   UNL     1      -9.693   4.603  68.599  1.00  0.00    -0.217 C  
HETATM   12  C   UNL     1      -9.451   4.627  70.091  1.00  0.00    -0.176 C  
HETATM   13  O   UNL     1      -9.866   3.487  70.694  1.00  0.00    -0.165 OA 
HETATM   14  O   UNL     1      -8.944   5.545  70.713  1.00  0.00    -0.138 OA 
ENDBRANCH  10  11
ENDBRANCH   9  10
ENDBRANCH   8   9
ENDBRANCH   7   8
ENDBRANCH   6   7
ENDBRANCH   5   6
ENDBRANCH   4   5
ENDBRANCH   3   4
ENDBRANCH   2   3
TORSDOF 9
ENDMDL
MODEL      343
REMARK 921   NORMALIZED FREE ENERGY PREDICTED BY IDOCK:   -1.97 KCAL/MOL
REMARK 922        TOTAL FREE ENERGY PREDICTED BY IDOCK:   -3.55 KCAL/MOL
REMARK 923 INTER-LIGAND FREE ENERGY PREDICTED BY IDOCK:   -2.37 KCAL/MOL
REMARK 924 INTRA-LIGAND FREE ENERGY PREDICTED BY IDOCK:   -1.17 KCAL/MOL
REMARK 927      BINDING AFFINITY PREDICTED BY RF-SCORE:    0.00 PKD
ROOT
HETATM    1  C   UNL     1      -5.756  13.455  70.743  1.00  0.00    -0.184 C  
HETATM    2  C   UNL     1      -5.972  13.218  69.257  1.00  0.00    -0.094 C  
ENDROOT
BRANCH   2   3
HETATM    3  C   UNL     1      -6.928  12.052  69.016  1.00  0.00    -0.094 C  
BRANCH   3   4
HETATM    4  C   UNL     1      -6.252  10.711  69.296  1.00  0.00    -0.050 C  
BRANCH   4   5
HETATM    5  C   UNL     1      -7.163   9.801  70.119  1.00  0.00    -0.146 C  
BRANCH   5   6
HETATM    6  C   UNL     1      -7.249   8.406  69.502  1.00  0.00    -0.061 C  
BRANCH   6   7
HETATM    7  C   UNL     1      -7.100   8.465  67.983  1.00  0.00    -0.086 C  
BRANCH   7   8
HETATM    8  C   UNL     1      -8.452   8.265  67.298  1.00  0.00    -0.124 C  
BRANCH   8   9
HETATM    9  C   UNL     1      -9.130   9.601  67.001  1.00  0.00    -0.154 C  
BRANCH   9  10
HETATM   10  C   UNL     1     -10.607   9.557  67.393  1.00  0.00    -0.337 C  
BRANCH  10  11
HETATM   11  C   UNL     1     -10.877  10.378  68.651  1.00  0.00    -0.270 C  
HETATM   12  C   UNL     1     -11.121   9.493  69.853  1.00  0.00    -0.216 C  
HETATM   13  O   UNL     1     -11.360  10.211  70.976  1.00  0.00    -0.347 OA 
HETATM   14  O   UNL     1     -11.111   8.274  69.850  1.00  0.00    -0.210 OA 
ENDBRANCH  10  11
ENDBRANCH   9  10
ENDBRANCH   8   9
ENDBRANCH   7   8
ENDBRANCH   6   7
ENDBRANCH   5   6
ENDBRANCH   4   5
ENDBRANCH   3   4
ENDBRANCH   2   3
TORSDOF 9
ENDMDL
MODEL      344
REMARK 921   NORMALIZED FREE ENERGY PREDICTED BY IDOCK:   -1.96 KCAL/MOL
REMARK 922        TOTAL FREE ENERGY PREDICTED BY IDOCK:   -3.54 KCAL/MOL
REMARK 923 INTER-LIGAND FREE ENERGY PREDICTED BY IDOCK:   -2.71 KCAL/MOL
REMARK 924 INTRA-LIGAND FREE ENERGY PREDICTED BY IDOCK:   -0.83 KCAL/MOL
REMARK 927      BINDING AFFINITY PREDICTED BY RF-SCORE:    0.00 PKD
ROOT
HETATM    1  C   UNL     1      -9.680   4.729  65.668  1.00  0.00    -0.188 C  
HETATM    2  C   UNL     1      -9.619   4.775  67.186  1.00  0.00    -0.185 C  
ENDROOT
BRANCH   2   3
HETATM    3  C   UNL     1      -8.251   5.252  67.669  1.00  0.00    -0.099 C  
BRANCH   3   4
HETATM    4  C   UNL     1      -8.304   6.702  68.146  1.00  0.00    -0.117 C  
BRANCH   4   5
HETATM    5  C   UNL     1      -8.095   7.669  66.982  1.00  0.00    -0.117 C  
BRANCH   5   6
HETATM    6  C   UNL     1      -8.718   9.031  67.280  1.00  0.00    -0.122 C  
BRANCH   6   7
HETATM    7  C   UNL     1      -9.783   9.389  66.243  1.00  0.00    -0.330 C  
BRANCH   7   8
HETATM    8  C   UNL     1     -11.007  10.008  66.915  1.00  0.00    -0.070 C  
BRANCH   8   9
HETATM    9  C   UNL     1     -10.614  10.843  68.133  1.00  0.00    -0.233 C  
BRANCH   9  10
HETATM   10  C   UNL     1     -11.490  10.492  69.336  1.00  0.00    -0.329 C  
BRANCH  10  11
HETATM   11  C   UNL     1     -10.647  10.159  70.564  1.00  0.00    -0.243 C  
HETATM   12  C   UNL     1     -10.602   8.670  70.823  1.00  0.00    -0.210 C  
HETATM   13  O   UNL     1      -9.855   8.362  71.910  1.00  0.00    -0.205 OA 
HETATM   14  O   UNL     1     -11.159   7.816  70.153  1.00  0.00    -0.257 OA 
ENDBRANCH  10  11
ENDBRANCH   9  10
ENDBRANCH   8   9
ENDBRANCH   7   8
ENDBRANCH   6   7
ENDBRANCH   5   6
ENDBRANCH   4   5
ENDBRANCH   3   4
ENDBRANCH   2   3
TORSDOF 9
ENDMDL
MODEL      345
REMARK 921   NORMALIZED FREE ENERGY PREDICTED BY IDOCK:   -1.95 KCAL/MOL
REMARK 922        TOTAL FREE ENERGY PREDICTED BY IDOCK:   -3.52 KCAL/MOL
REMARK 923 INTER-LIGAND FREE ENERGY PREDICTED BY IDOCK:   -2.64 KCAL/MOL
REMARK 924 INTRA-LIGAND FREE ENERGY PREDICTED BY IDOCK:   -0.88 KCAL/MOL
REMARK 927      BINDING AFFINITY PREDICTED BY RF-SCORE:    0.00 PKD
ROOT
HETATM    1  C   UNL     1      -8.022   7.878  62.972  1.00  0.00    -0.139 C  
HETATM    2  C   UNL     1      -8.231   7.115  64.270  1.00  0.00     0.036 C  
ENDROOT
BRANCH   2   3
HETATM    3  C   UNL     1      -6.920   6.961  65.038  1.00  0.00    -0.051 C  
BRANCH   3   4
HETATM    4  C   UNL     1      -6.554   8.246  65.778  1.00  0.00    -0.052 C  
BRANCH   4   5
HETATM    5  C   UNL     1      -7.581   8.563  66.864  1.00  0.00    -0.091 C  
BRANCH   5   6
HETATM    6  C   UNL     1      -7.914  10.053  66.889  1.00  0.00    -0.113 C  
BRANCH   6   7
HETATM    7  C   UNL     1      -7.855  10.655  65.485  1.00  0.00    -0.099 C  
BRANCH   7   8
HETATM    8  C   UNL     1      -9.209  11.245  65.091  1.00  0.00    -0.168 C  
BRANCH   8   9
HETATM    9  C   UNL     1      -9.702  12.252  66.128  1.00  0.00    -0.256 C  
BRANCH   9  10
HETATM   10  C   UNL     1     -11.198  12.072  66.388  1.00  0.00    -0.389 C  
BRANCH  10  11
HETATM   11  C   UNL     1     -11.744  13.169  67.298  1.00  0.00    -0.425 C  
HETATM   12  C   UNL     1     -11.706  12.758  68.752  1.00  0.00    -0.323 C  
HETATM   13  O   UNL     1     -12.187  13.725  69.569  1.00  0.00    -0.333 OA 
HETATM   14  O   UNL     1     -11.297  11.691  69.177  1.00  0.00    -0.239 OA 
ENDBRANCH  10  11
ENDBRANCH   9  10
ENDBRANCH   8   9
ENDBRANCH   7   8
ENDBRANCH   6   7
ENDBRANCH   5   6
ENDBRANCH   4   5
ENDBRANCH   3   4
ENDBRANCH   2   3
TORSDOF 9
ENDMDL
MODEL      346
REMARK 921   NORMALIZED FREE ENERGY PREDICTED BY IDOCK:   -1.94 KCAL/MOL
REMARK 922        TOTAL FREE ENERGY PREDICTED BY IDOCK:   -3.51 KCAL/MOL
REMARK 923 INTER-LIGAND FREE ENERGY PREDICTED BY IDOCK:   -2.84 KCAL/MOL
REMARK 924 INTRA-LIGAND FREE ENERGY PREDICTED BY IDOCK:   -0.67 KCAL/MOL
REMARK 927      BINDING AFFINITY PREDICTED BY RF-SCORE:    0.00 PKD
ROOT
HETATM    1  C   UNL     1     -11.816  10.725  70.301  1.00  0.00    -0.438 C  
HETATM    2  C   UNL     1     -12.008   9.246  70.598  1.00  0.00    -0.206 C  
ENDROOT
BRANCH   2   3
HETATM    3  C   UNL     1     -12.452   9.026  72.042  1.00  0.00    -0.460 C  
BRANCH   3   4
HETATM    4  C   UNL     1     -11.596   7.966  72.732  1.00  0.00    -0.387 C  
BRANCH   4   5
HETATM    5  C   UNL     1     -10.884   7.085  71.706  1.00  0.00    -0.250 C  
BRANCH   5   6
HETATM    6  C   UNL     1      -9.374   7.304  71.746  1.00  0.00    -0.161 C  
BRANCH   6   7
HETATM    7  C   UNL     1      -8.734   6.987  70.395  1.00  0.00    -0.147 C  
BRANCH   7   8
HETATM    8  C   UNL     1      -8.980   8.120  69.400  1.00  0.00    -0.147 C  
BRANCH   8   9
HETATM    9  C   UNL     1      -7.670   8.635  68.805  1.00  0.00    -0.097 C  
BRANCH   9  10
HETATM   10  C   UNL     1      -7.781   8.769  67.286  1.00  0.00    -0.096 C  
BRANCH  10  11
HETATM   11  C   UNL     1      -8.689   7.695  66.693  1.00  0.00    -0.150 C  
HETATM   12  C   UNL     1      -7.898   6.502  66.208  1.00  0.00    -0.105 C  
HETATM   13  O   UNL     1      -8.693   5.541  65.681  1.00  0.00    -0.146 OA 
HETATM   14  O   UNL     1      -6.686   6.382  66.268  1.00  0.00    -0.053 OA 
ENDBRANCH  10  11
ENDBRANCH   9  10
ENDBRANCH   8   9
ENDBRANCH   7   8
ENDBRANCH   6   7
ENDBRANCH   5   6
ENDBRANCH   4   5
ENDBRANCH   3   4
ENDBRANCH   2   3
TORSDOF 9
ENDMDL
MODEL      347
REMARK 921   NORMALIZED FREE ENERGY PREDICTED BY IDOCK:   -1.94 KCAL/MOL
REMARK 922        TOTAL FREE ENERGY PREDICTED BY IDOCK:   -3.51 KCAL/MOL
REMARK 923 INTER-LIGAND FREE ENERGY PREDICTED BY IDOCK:   -2.66 KCAL/MOL
REMARK 924 INTRA-LIGAND FREE ENERGY PREDICTED BY IDOCK:   -0.85 KCAL/MOL
REMARK 927      BINDING AFFINITY PREDICTED BY RF-SCORE:    0.00 PKD
ROOT
HETATM    1  C   UNL     1      -7.522   7.764  74.289  1.00  0.00    -0.185 C  
HETATM    2  C   UNL     1      -6.258   7.708  73.446  1.00  0.00    -0.062 C  
ENDROOT
BRANCH   2   3
HETATM    3  C   UNL     1      -6.519   7.028  72.104  1.00  0.00    -0.052 C  
BRANCH   3   4
HETATM    4  C   UNL     1      -6.005   7.875  70.941  1.00  0.00    -0.034 C  
BRANCH   4   5
HETATM    5  C   UNL     1      -6.875   7.685  69.700  1.00  0.00    -0.044 C  
BRANCH   5   6
HETATM    6  C   UNL     1      -8.262   7.167  70.073  1.00  0.00    -0.136 C  
BRANCH   6   7
HETATM    7  C   UNL     1      -9.345   8.185  69.716  1.00  0.00    -0.159 C  
BRANCH   7   8
HETATM    8  C   UNL     1     -10.618   7.480  69.248  1.00  0.00    -0.215 C  
BRANCH   8   9
HETATM    9  C   UNL     1     -10.991   6.327  70.178  1.00  0.00    -0.411 C  
BRANCH   9  10
HETATM   10  C   UNL     1     -11.714   6.847  71.421  1.00  0.00    -0.358 C  
BRANCH  10  11
HETATM   11  C   UNL     1     -10.828   6.758  72.661  1.00  0.00    -0.282 C  
HETATM   12  C   UNL     1     -11.077   5.482  73.434  1.00  0.00    -0.228 C  
HETATM   13  O   UNL     1     -10.295   5.392  74.536  1.00  0.00    -0.266 OA 
HETATM   14  O   UNL     1     -11.878   4.614  73.131  1.00  0.00    -0.227 OA 
ENDBRANCH  10  11
ENDBRANCH   9  10
ENDBRANCH   8   9
ENDBRANCH   7   8
ENDBRANCH   6   7
ENDBRANCH   5   6
ENDBRANCH   4   5
ENDBRANCH   3   4
ENDBRANCH   2   3
TORSDOF 9
ENDMDL
MODEL      348
REMARK 921   NORMALIZED FREE ENERGY PREDICTED BY IDOCK:   -1.93 KCAL/MOL
REMARK 922        TOTAL FREE ENERGY PREDICTED BY IDOCK:   -3.50 KCAL/MOL
REMARK 923 INTER-LIGAND FREE ENERGY PREDICTED BY IDOCK:   -2.77 KCAL/MOL
REMARK 924 INTRA-LIGAND FREE ENERGY PREDICTED BY IDOCK:   -0.73 KCAL/MOL
REMARK 927      BINDING AFFINITY PREDICTED BY RF-SCORE:    0.00 PKD
ROOT
HETATM    1  C   UNL     1      -8.246   7.928  74.342  1.00  0.00    -0.288 C  
HETATM    2  C   UNL     1      -7.080   7.182  73.713  1.00  0.00    -0.084 C  
ENDROOT
BRANCH   2   3
HETATM    3  C   UNL     1      -7.540   5.874  73.074  1.00  0.00    -0.095 C  
BRANCH   3   4
HETATM    4  C   UNL     1      -6.866   5.648  71.723  1.00  0.00    -0.067 C  
BRANCH   4   5
HETATM    5  C   UNL     1      -7.743   4.791  70.811  1.00  0.00    -0.069 C  
BRANCH   5   6
HETATM    6  C   UNL     1      -9.212   4.878  71.219  1.00  0.00    -0.190 C  
BRANCH   6   7
HETATM    7  C   UNL     1     -10.129   4.780  70.000  1.00  0.00    -0.308 C  
BRANCH   7   8
HETATM    8  C   UNL     1      -9.326   4.902  68.706  1.00  0.00    -0.184 C  
BRANCH   8   9
HETATM    9  C   UNL     1     -10.243   4.991  67.487  1.00  0.00    -0.184 C  
BRANCH   9  10
HETATM   10  C   UNL     1     -11.125   6.238  67.563  1.00  0.00    -0.379 C  
BRANCH  10  11
HETATM   11  C   UNL     1     -10.426   7.456  66.965  1.00  0.00    -0.404 C  
HETATM   12  C   UNL     1     -10.370   8.605  67.946  1.00  0.00    -0.229 C  
HETATM   13  O   UNL     1      -9.751   9.691  67.426  1.00  0.00    -0.147 OA 
HETATM   14  O   UNL     1     -10.819   8.592  69.080  1.00  0.00    -0.140 OA 
ENDBRANCH  10  11
ENDBRANCH   9  10
ENDBRANCH   8   9
ENDBRANCH   7   8
ENDBRANCH   6   7
ENDBRANCH   5   6
ENDBRANCH   4   5
ENDBRANCH   3   4
ENDBRANCH   2   3
TORSDOF 9
ENDMDL
MODEL      349
REMARK 921   NORMALIZED FREE ENERGY PREDICTED BY IDOCK:   -1.92 KCAL/MOL
REMARK 922        TOTAL FREE ENERGY PREDICTED BY IDOCK:   -3.48 KCAL/MOL
REMARK 923 INTER-LIGAND FREE ENERGY PREDICTED BY IDOCK:   -2.98 KCAL/MOL
REMARK 924 INTRA-LIGAND FREE ENERGY PREDICTED BY IDOCK:   -0.50 KCAL/MOL
REMARK 927      BINDING AFFINITY PREDICTED BY RF-SCORE:    0.00 PKD
ROOT
HETATM    1  C   UNL     1      -6.411   6.555  72.187  1.00  0.00    -0.050 C  
HETATM    2  C   UNL     1      -7.025   7.854  71.692  1.00  0.00    -0.066 C  
ENDROOT
BRANCH   2   3
HETATM    3  C   UNL     1      -7.573   7.702  70.275  1.00  0.00    -0.089 C  
BRANCH   3   4
HETATM    4  C   UNL     1      -9.091   7.866  70.244  1.00  0.00    -0.152 C  
BRANCH   4   5
HETATM    5  C   UNL     1      -9.515   9.161  70.935  1.00  0.00    -0.343 C  
BRANCH   5   6
HETATM    6  C   UNL     1      -9.551  10.325  69.947  1.00  0.00    -0.082 C  
BRANCH   6   7
HETATM    7  C   UNL     1     -10.804  10.267  69.072  1.00  0.00    -0.265 C  
BRANCH   7   8
HETATM    8  C   UNL     1     -12.030  10.745  69.849  1.00  0.00    -0.418 C  
BRANCH   8   9
HETATM    9  C   UNL     1     -12.277  12.238  69.638  1.00  0.00    -0.175 C  
BRANCH   9  10
HETATM   10  C   UNL     1     -12.548  12.936  70.971  1.00  0.00    -0.376 C  
BRANCH  10  11
HETATM   11  C   UNL     1     -12.844  14.420  70.775  1.00  0.00    -0.417 C  
HETATM   12  C   UNL     1     -12.171  15.267  71.831  1.00  0.00    -0.361 C  
HETATM   13  O   UNL     1     -12.427  16.587  71.667  1.00  0.00     0.032 OA 
HETATM   14  O   UNL     1     -11.473  14.847  72.739  1.00  0.00    -0.217 OA 
ENDBRANCH  10  11
ENDBRANCH   9  10
ENDBRANCH   8   9
ENDBRANCH   7   8
ENDBRANCH   6   7
ENDBRANCH   5   6
ENDBRANCH   4   5
ENDBRANCH   3   4
ENDBRANCH   2   3
TORSDOF 9
ENDMDL
MODEL      350
REMARK 921   NORMALIZED FREE ENERGY PREDICTED BY IDOCK:   -1.91 KCAL/MOL
REMARK 922        TOTAL FREE ENERGY PREDICTED BY IDOCK:   -3.46 KCAL/MOL
REMARK 923 INTER-LIGAND FREE ENERGY PREDICTED BY IDOCK:   -2.29 KCAL/MOL
REMARK 924 INTRA-LIGAND FREE ENERGY PREDICTED BY IDOCK:   -1.16 KCAL/MOL
REMARK 927      BINDING AFFINITY PREDICTED BY RF-SCORE:    0.00 PKD
ROOT
HETATM    1  C   UNL     1      -6.087   6.070  71.255  1.00  0.00    -0.035 C  
HETATM    2  C   UNL     1      -7.438   6.745  71.077  1.00  0.00    -0.083 C  
ENDROOT
BRANCH   2   3
HETATM    3  C   UNL     1      -7.973   6.544  69.661  1.00  0.00    -0.120 C  
BRANCH   3   4
HETATM    4  C   UNL     1      -9.393   5.982  69.678  1.00  0.00    -0.161 C  
BRANCH   4   5
HETATM    5  C   UNL     1     -10.424   7.103  69.806  1.00  0.00    -0.238 C  
BRANCH   5   6
HETATM    6  C   UNL     1     -11.745   6.575  70.360  1.00  0.00    -0.439 C  
BRANCH   6   7
HETATM    7  C   UNL     1     -11.850   6.821  71.865  1.00  0.00    -0.366 C  
BRANCH   7   8
HETATM    8  C   UNL     1     -11.596   5.531  72.644  1.00  0.00    -0.293 C  
BRANCH   8   9
HETATM    9  C   UNL     1     -10.192   5.510  73.246  1.00  0.00    -0.216 C  
BRANCH   9  10
HETATM   10  C   UNL     1      -9.668   4.077  73.349  1.00  0.00    -0.146 C  
BRANCH  10  11
HETATM   11  C   UNL     1      -8.163   4.047  73.600  1.00  0.00    -0.089 C  
HETATM   12  C   UNL     1      -7.494   2.920  72.846  1.00  0.00    -0.049 C  
HETATM   13  O   UNL     1      -6.157   2.885  73.060  1.00  0.00    -0.008 OA 
HETATM   14  O   UNL     1      -8.059   2.118  72.121  1.00  0.00    -0.051 OA 
ENDBRANCH  10  11
ENDBRANCH   9  10
ENDBRANCH   8   9
ENDBRANCH   7   8
ENDBRANCH   6   7
ENDBRANCH   5   6
ENDBRANCH   4   5
ENDBRANCH   3   4
ENDBRANCH   2   3
TORSDOF 9
ENDMDL
MODEL      351
REMARK 921   NORMALIZED FREE ENERGY PREDICTED BY IDOCK:   -1.90 KCAL/MOL
REMARK 922        TOTAL FREE ENERGY PREDICTED BY IDOCK:   -3.45 KCAL/MOL
REMARK 923 INTER-LIGAND FREE ENERGY PREDICTED BY IDOCK:   -2.83 KCAL/MOL
REMARK 924 INTRA-LIGAND FREE ENERGY PREDICTED BY IDOCK:   -0.62 KCAL/MOL
REMARK 927      BINDING AFFINITY PREDICTED BY RF-SCORE:    0.00 PKD
ROOT
HETATM    1  C   UNL     1     -12.618  14.198  70.802  1.00  0.00    -0.432 C  
HETATM    2  C   UNL     1     -11.651  14.757  69.771  1.00  0.00    -0.338 C  
ENDROOT
BRANCH   2   3
HETATM    3  C   UNL     1     -11.038  13.643  68.926  1.00  0.00    -0.292 C  
BRANCH   3   4
HETATM    4  C   UNL     1     -11.089  13.982  67.437  1.00  0.00    -0.317 C  
BRANCH   4   5
HETATM    5  C   UNL     1      -9.785  14.635  66.981  1.00  0.00    -0.247 C  
BRANCH   5   6
HETATM    6  C   UNL     1      -8.615  13.659  67.086  1.00  0.00    -0.203 C  
BRANCH   6   7
HETATM    7  C   UNL     1      -7.315  14.390  67.422  1.00  0.00    -0.167 C  
BRANCH   7   8
HETATM    8  C   UNL     1      -6.216  13.397  67.796  1.00  0.00    -0.160 C  
BRANCH   8   9
HETATM    9  C   UNL     1      -6.617  11.964  67.452  1.00  0.00    -0.124 C  
BRANCH   9  10
HETATM   10  C   UNL     1      -5.669  10.962  68.112  1.00  0.00    -0.046 C  
BRANCH  10  11
HETATM   11  C   UNL     1      -5.471  11.270  69.593  1.00  0.00    -0.057 C  
HETATM   12  C   UNL     1      -6.026  10.171  70.470  1.00  0.00    -0.099 C  
HETATM   13  O   UNL     1      -5.855  10.433  71.788  1.00  0.00    -0.306 OA 
HETATM   14  O   UNL     1      -6.569   9.154  70.074  1.00  0.00    -0.040 OA 
ENDBRANCH  10  11
ENDBRANCH   9  10
ENDBRANCH   8   9
ENDBRANCH   7   8
ENDBRANCH   6   7
ENDBRANCH   5   6
ENDBRANCH   4   5
ENDBRANCH   3   4
ENDBRANCH   2   3
TORSDOF 9
ENDMDL
MODEL      352
REMARK 921   NORMALIZED FREE ENERGY PREDICTED BY IDOCK:   -1.89 KCAL/MOL
REMARK 922        TOTAL FREE ENERGY PREDICTED BY IDOCK:   -3.43 KCAL/MOL
REMARK 923 INTER-LIGAND FREE ENERGY PREDICTED BY IDOCK:   -3.00 KCAL/MOL
REMARK 924 INTRA-LIGAND FREE ENERGY PREDICTED BY IDOCK:   -0.43 KCAL/MOL
REMARK 927      BINDING AFFINITY PREDICTED BY RF-SCORE:    0.00 PKD
ROOT
HETATM    1  C   UNL     1      -7.063   8.394  62.708  1.00  0.00    -0.091 C  
HETATM    2  C   UNL     1      -6.945   7.972  64.163  1.00  0.00    -0.070 C  
ENDROOT
BRANCH   2   3
HETATM    3  C   UNL     1      -5.774   8.671  64.849  1.00  0.00    -0.048 C  
BRANCH   3   4
HETATM    4  C   UNL     1      -6.259   9.743  65.822  1.00  0.00    -0.073 C  
BRANCH   4   5
HETATM    5  C   UNL     1      -7.696   9.472  66.264  1.00  0.00    -0.101 C  
BRANCH   5   6
HETATM    6  C   UNL     1      -8.578  10.700  66.052  1.00  0.00    -0.177 C  
BRANCH   6   7
HETATM    7  C   UNL     1      -9.504  10.926  67.246  1.00  0.00    -0.176 C  
BRANCH   7   8
HETATM    8  C   UNL     1     -10.222  12.271  67.129  1.00  0.00    -0.224 C  
BRANCH   8   9
HETATM    9  C   UNL     1     -11.000  12.601  68.401  1.00  0.00    -0.284 C  
BRANCH   9  10
HETATM   10  C   UNL     1     -12.061  13.667  68.126  1.00  0.00    -0.310 C  
BRANCH  10  11
HETATM   11  C   UNL     1     -11.433  14.967  67.631  1.00  0.00    -0.366 C  
HETATM   12  C   UNL     1     -11.366  16.007  68.726  1.00  0.00    -0.380 C  
HETATM   13  O   UNL     1     -10.810  17.165  68.299  1.00  0.00    -0.369 OA 
HETATM   14  O   UNL     1     -11.758  15.857  69.872  1.00  0.00    -0.333 OA 
ENDBRANCH  10  11
ENDBRANCH   9  10
ENDBRANCH   8   9
ENDBRANCH   7   8
ENDBRANCH   6   7
ENDBRANCH   5   6
ENDBRANCH   4   5
ENDBRANCH   3   4
ENDBRANCH   2   3
TORSDOF 9
ENDMDL
MODEL      353
REMARK 921   NORMALIZED FREE ENERGY PREDICTED BY IDOCK:   -1.89 KCAL/MOL
REMARK 922        TOTAL FREE ENERGY PREDICTED BY IDOCK:   -3.43 KCAL/MOL
REMARK 923 INTER-LIGAND FREE ENERGY PREDICTED BY IDOCK:   -2.80 KCAL/MOL
REMARK 924 INTRA-LIGAND FREE ENERGY PREDICTED BY IDOCK:   -0.62 KCAL/MOL
REMARK 927      BINDING AFFINITY PREDICTED BY RF-SCORE:    0.00 PKD
ROOT
HETATM    1  C   UNL     1      -8.437  11.809  66.707  1.00  0.00    -0.177 C  
HETATM    2  C   UNL     1      -9.577  10.819  66.880  1.00  0.00    -0.198 C  
ENDROOT
BRANCH   2   3
HETATM    3  C   UNL     1      -9.128   9.396  66.554  1.00  0.00    -0.188 C  
BRANCH   3   4
HETATM    4  C   UNL     1     -10.290   8.409  66.654  1.00  0.00    -0.298 C  
BRANCH   4   5
HETATM    5  C   UNL     1      -9.969   7.284  67.636  1.00  0.00    -0.207 C  
BRANCH   5   6
HETATM    6  C   UNL     1      -9.314   6.102  66.923  1.00  0.00    -0.143 C  
BRANCH   6   7
HETATM    7  C   UNL     1     -10.152   4.833  67.075  1.00  0.00    -0.228 C  
BRANCH   7   8
HETATM    8  C   UNL     1      -9.465   3.838  68.009  1.00  0.00    -0.221 C  
BRANCH   8   9
HETATM    9  C   UNL     1      -8.296   4.485  68.751  1.00  0.00    -0.086 C  
BRANCH   9  10
HETATM   10  C   UNL     1      -8.526   4.447  70.262  1.00  0.00    -0.094 C  
BRANCH  10  11
HETATM   11  C   UNL     1     -10.001   4.631  70.608  1.00  0.00    -0.293 C  
HETATM   12  C   UNL     1     -10.295   6.041  71.068  1.00  0.00    -0.216 C  
HETATM   13  O   UNL     1     -11.602   6.216  71.378  1.00  0.00    -0.289 OA 
HETATM   14  O   UNL     1      -9.477   6.941  71.162  1.00  0.00    -0.166 OA 
ENDBRANCH  10  11
ENDBRANCH   9  10
ENDBRANCH   8   9
ENDBRANCH   7   8
ENDBRANCH   6   7
ENDBRANCH   5   6
ENDBRANCH   4   5
ENDBRANCH   3   4
ENDBRANCH   2   3
TORSDOF 9
ENDMDL
MODEL      354
REMARK 921   NORMALIZED FREE ENERGY PREDICTED BY IDOCK:   -1.88 KCAL/MOL
REMARK 922        TOTAL FREE ENERGY PREDICTED BY IDOCK:   -3.41 KCAL/MOL
REMARK 923 INTER-LIGAND FREE ENERGY PREDICTED BY IDOCK:   -2.44 KCAL/MOL
REMARK 924 INTRA-LIGAND FREE ENERGY PREDICTED BY IDOCK:   -0.97 KCAL/MOL
REMARK 927      BINDING AFFINITY PREDICTED BY RF-SCORE:    0.00 PKD
ROOT
HETATM    1  C   UNL     1      -9.485  10.165  69.382  1.00  0.00    -0.240 C  
HETATM    2  C   UNL     1     -10.620   9.251  68.951  1.00  0.00    -0.222 C  
ENDROOT
BRANCH   2   3
HETATM    3  C   UNL     1     -10.631   9.058  67.437  1.00  0.00    -0.309 C  
BRANCH   3   4
HETATM    4  C   UNL     1     -10.617   7.577  67.064  1.00  0.00    -0.409 C  
BRANCH   4   5
HETATM    5  C   UNL     1      -9.197   7.015  67.110  1.00  0.00    -0.153 C  
BRANCH   5   6
HETATM    6  C   UNL     1      -8.222   7.919  66.359  1.00  0.00    -0.121 C  
BRANCH   6   7
HETATM    7  C   UNL     1      -8.238   7.622  64.860  1.00  0.00    -0.098 C  
BRANCH   7   8
HETATM    8  C   UNL     1      -7.573   6.278  64.566  1.00  0.00    -0.099 C  
BRANCH   8   9
HETATM    9  C   UNL     1      -8.258   5.559  63.405  1.00  0.00    -0.110 C  
BRANCH   9  10
HETATM   10  C   UNL     1      -8.587   4.114  63.782  1.00  0.00    -0.105 C  
BRANCH  10  11
HETATM   11  C   UNL     1      -9.451   4.046  65.037  1.00  0.00    -0.172 C  
HETATM   12  C   UNL     1      -8.751   3.310  66.158  1.00  0.00    -0.128 C  
HETATM   13  O   UNL     1      -9.509   3.245  67.278  1.00  0.00    -0.203 OA 
HETATM   14  O   UNL     1      -7.636   2.821  66.096  1.00  0.00    -0.074 OA 
ENDBRANCH  10  11
ENDBRANCH   9  10
ENDBRANCH   8   9
ENDBRANCH   7   8
ENDBRANCH   6   7
ENDBRANCH   5   6
ENDBRANCH   4   5
ENDBRANCH   3   4
ENDBRANCH   2   3
TORSDOF 9
ENDMDL
MODEL      355
REMARK 921   NORMALIZED FREE ENERGY PREDICTED BY IDOCK:   -1.88 KCAL/MOL
REMARK 922        TOTAL FREE ENERGY PREDICTED BY IDOCK:   -3.41 KCAL/MOL
REMARK 923 INTER-LIGAND FREE ENERGY PREDICTED BY IDOCK:   -2.71 KCAL/MOL
REMARK 924 INTRA-LIGAND FREE ENERGY PREDICTED BY IDOCK:   -0.70 KCAL/MOL
REMARK 927      BINDING AFFINITY PREDICTED BY RF-SCORE:    0.00 PKD
ROOT
HETATM    1  C   UNL     1      -7.313   5.987  72.295  1.00  0.00    -0.094 C  
HETATM    2  C   UNL     1      -8.512   6.523  71.530  1.00  0.00    -0.125 C  
ENDROOT
BRANCH   2   3
HETATM    3  C   UNL     1      -9.195   7.654  72.295  1.00  0.00    -0.189 C  
BRANCH   3   4
HETATM    4  C   UNL     1      -9.164   8.960  71.503  1.00  0.00    -0.322 C  
BRANCH   4   5
HETATM    5  C   UNL     1      -9.084   8.687  70.002  1.00  0.00    -0.157 C  
BRANCH   5   6
HETATM    6  C   UNL     1     -10.475   8.658  69.372  1.00  0.00    -0.224 C  
BRANCH   6   7
HETATM    7  C   UNL     1     -11.162  10.018  69.489  1.00  0.00    -0.254 C  
BRANCH   7   8
HETATM    8  C   UNL     1     -10.326  11.107  68.818  1.00  0.00    -0.222 C  
BRANCH   8   9
HETATM    9  C   UNL     1     -10.898  11.488  67.453  1.00  0.00    -0.294 C  
BRANCH   9  10
HETATM   10  C   UNL     1      -9.780  11.645  66.422  1.00  0.00    -0.236 C  
BRANCH  10  11
HETATM   11  C   UNL     1      -8.406  11.671  67.085  1.00  0.00    -0.164 C  
HETATM   12  C   UNL     1      -7.882  13.082  67.229  1.00  0.00    -0.127 C  
HETATM   13  O   UNL     1      -6.663  13.117  67.817  1.00  0.00    -0.116 OA 
HETATM   14  O   UNL     1      -8.461  14.093  66.869  1.00  0.00    -0.185 OA 
ENDBRANCH  10  11
ENDBRANCH   9  10
ENDBRANCH   8   9
ENDBRANCH   7   8
ENDBRANCH   6   7
ENDBRANCH   5   6
ENDBRANCH   4   5
ENDBRANCH   3   4
ENDBRANCH   2   3
TORSDOF 9
ENDMDL
MODEL      356
REMARK 921   NORMALIZED FREE ENERGY PREDICTED BY IDOCK:   -1.79 KCAL/MOL
REMARK 922        TOTAL FREE ENERGY PREDICTED BY IDOCK:   -3.28 KCAL/MOL
REMARK 923 INTER-LIGAND FREE ENERGY PREDICTED BY IDOCK:   -2.96 KCAL/MOL
REMARK 924 INTRA-LIGAND FREE ENERGY PREDICTED BY IDOCK:   -0.33 KCAL/MOL
REMARK 927      BINDING AFFINITY PREDICTED BY RF-SCORE:    0.00 PKD
ROOT
HETATM    1  C   UNL     1     -11.862  15.544  70.150  1.00  0.00    -0.378 C  
HETATM    2  C   UNL     1     -10.838  15.140  69.102  1.00  0.00    -0.251 C  
ENDROOT
BRANCH   2   3
HETATM    3  C   UNL     1     -11.486  14.989  67.727  1.00  0.00    -0.347 C  
BRANCH   3   4
HETATM    4  C   UNL     1     -11.018  16.083  66.769  1.00  0.00    -0.112 C  
BRANCH   4   5
HETATM    5  C   UNL     1      -9.716  16.716  67.256  1.00  0.00    -0.245 C  
BRANCH   5   6
HETATM    6  C   UNL     1      -8.503  16.024  66.637  1.00  0.00    -0.323 C  
BRANCH   6   7
HETATM    7  C   UNL     1      -8.547  14.515  66.875  1.00  0.00    -0.207 C  
BRANCH   7   8
HETATM    8  C   UNL     1      -7.343  14.060  67.698  1.00  0.00    -0.188 C  
BRANCH   8   9
HETATM    9  C   UNL     1      -7.613  12.724  68.389  1.00  0.00    -0.133 C  
BRANCH   9  10
HETATM   10  C   UNL     1      -9.021  12.223  68.069  1.00  0.00    -0.190 C  
BRANCH  10  11
HETATM   11  C   UNL     1      -9.328  10.915  68.792  1.00  0.00    -0.190 C  
HETATM   12  C   UNL     1      -9.073   9.715  67.909  1.00  0.00    -0.125 C  
HETATM   13  O   UNL     1      -9.341   8.548  68.541  1.00  0.00    -0.139 OA 
HETATM   14  O   UNL     1      -8.672   9.755  66.757  1.00  0.00    -0.130 OA 
ENDBRANCH  10  11
ENDBRANCH   9  10
ENDBRANCH   8   9
ENDBRANCH   7   8
ENDBRANCH   6   7
ENDBRANCH   5   6
ENDBRANCH   4   5
ENDBRANCH   3   4
ENDBRANCH   2   3
TORSDOF 9
ENDMDL
MODEL      357
REMARK 921   NORMALIZED FREE ENERGY PREDICTED BY IDOCK:   -1.79 KCAL/MOL
REMARK 922        TOTAL FREE ENERGY PREDICTED BY IDOCK:   -3.28 KCAL/MOL
REMARK 923 INTER-LIGAND FREE ENERGY PREDICTED BY IDOCK:   -2.69 KCAL/MOL
REMARK 924 INTRA-LIGAND FREE ENERGY PREDICTED BY IDOCK:   -0.59 KCAL/MOL
REMARK 927      BINDING AFFINITY PREDICTED BY RF-SCORE:    0.00 PKD
ROOT
HETATM    1  C   UNL     1      -9.116  11.143  66.360  1.00  0.00    -0.198 C  
HETATM    2  C   UNL     1     -10.027   9.933  66.228  1.00  0.00    -0.322 C  
ENDROOT
BRANCH   2   3
HETATM    3  C   UNL     1      -9.271   8.729  65.671  1.00  0.00    -0.244 C  
BRANCH   3   4
HETATM    4  C   UNL     1      -9.617   7.453  66.436  1.00  0.00    -0.181 C  
BRANCH   4   5
HETATM    5  C   UNL     1      -9.252   7.584  67.914  1.00  0.00    -0.137 C  
BRANCH   5   6
HETATM    6  C   UNL     1      -9.534   6.286  68.667  1.00  0.00    -0.121 C  
BRANCH   6   7
HETATM    7  C   UNL     1     -10.895   6.335  69.360  1.00  0.00    -0.404 C  
BRANCH   7   8
HETATM    8  C   UNL     1     -10.974   5.292  70.474  1.00  0.00     0.023 C  
BRANCH   8   9
HETATM    9  C   UNL     1      -9.629   4.599  70.687  1.00  0.00    -0.261 C  
BRANCH   9  10
HETATM   10  C   UNL     1      -9.277   4.545  72.174  1.00  0.00    -0.165 C  
BRANCH  10  11
HETATM   11  C   UNL     1     -10.268   5.346  73.013  1.00  0.00    -0.212 C  
HETATM   12  C   UNL     1      -9.646   6.614  73.553  1.00  0.00    -0.173 C  
HETATM   13  O   UNL     1     -10.517   7.333  74.300  1.00  0.00    -0.177 OA 
HETATM   14  O   UNL     1      -8.498   6.978  73.361  1.00  0.00    -0.123 OA 
ENDBRANCH  10  11
ENDBRANCH   9  10
ENDBRANCH   8   9
ENDBRANCH   7   8
ENDBRANCH   6   7
ENDBRANCH   5   6
ENDBRANCH   4   5
ENDBRANCH   3   4
ENDBRANCH   2   3
TORSDOF 9
ENDMDL
MODEL      358
REMARK 921   NORMALIZED FREE ENERGY PREDICTED BY IDOCK:   -1.79 KCAL/MOL
REMARK 922        TOTAL FREE ENERGY PREDICTED BY IDOCK:   -3.28 KCAL/MOL
REMARK 923 INTER-LIGAND FREE ENERGY PREDICTED BY IDOCK:   -2.60 KCAL/MOL
REMARK 924 INTRA-LIGAND FREE ENERGY PREDICTED BY IDOCK:   -0.68 KCAL/MOL
REMARK 927      BINDING AFFINITY PREDICTED BY RF-SCORE:    0.00 PKD
ROOT
HETATM    1  C   UNL     1      -6.332   7.296  64.045  1.00  0.00    -0.044 C  
HETATM    2  C   UNL     1      -7.231   8.512  64.200  1.00  0.00    -0.092 C  
ENDROOT
BRANCH   2   3
HETATM    3  C   UNL     1      -8.050   8.434  65.487  1.00  0.00    -0.129 C  
BRANCH   3   4
HETATM    4  C   UNL     1      -7.963   7.046  66.117  1.00  0.00    -0.110 C  
BRANCH   4   5
HETATM    5  C   UNL     1      -7.104   7.071  67.380  1.00  0.00    -0.088 C  
BRANCH   5   6
HETATM    6  C   UNL     1      -6.732   8.502  67.765  1.00  0.00    -0.066 C  
BRANCH   6   7
HETATM    7  C   UNL     1      -7.354   8.892  69.105  1.00  0.00    -0.072 C  
BRANCH   7   8
HETATM    8  C   UNL     1      -8.709   9.567  68.898  1.00  0.00    -0.133 C  
BRANCH   8   9
HETATM    9  C   UNL     1      -9.861   8.625  69.244  1.00  0.00    -0.188 C  
BRANCH   9  10
HETATM   10  C   UNL     1     -10.752   9.233  70.327  1.00  0.00    -0.284 C  
BRANCH  10  11
HETATM   11  C   UNL     1     -10.308   8.806  71.723  1.00  0.00    -0.413 C  
HETATM   12  C   UNL     1     -11.297   7.853  72.356  1.00  0.00    -0.369 C  
HETATM   13  O   UNL     1     -10.912   7.466  73.595  1.00  0.00    -0.306 OA 
HETATM   14  O   UNL     1     -12.329   7.457  71.841  1.00  0.00    -0.305 OA 
ENDBRANCH  10  11
ENDBRANCH   9  10
ENDBRANCH   8   9
ENDBRANCH   7   8
ENDBRANCH   6   7
ENDBRANCH   5   6
ENDBRANCH   4   5
ENDBRANCH   3   4
ENDBRANCH   2   3
TORSDOF 9
ENDMDL
MODEL      359
REMARK 921   NORMALIZED FREE ENERGY PREDICTED BY IDOCK:   -1.78 KCAL/MOL
REMARK 922        TOTAL FREE ENERGY PREDICTED BY IDOCK:   -3.26 KCAL/MOL
REMARK 923 INTER-LIGAND FREE ENERGY PREDICTED BY IDOCK:   -2.92 KCAL/MOL
REMARK 924 INTRA-LIGAND FREE ENERGY PREDICTED BY IDOCK:   -0.34 KCAL/MOL
REMARK 927      BINDING AFFINITY PREDICTED BY RF-SCORE:    0.00 PKD
ROOT
HETATM    1  C   UNL     1      -6.552   9.758  64.716  1.00  0.00    -0.110 C  
HETATM    2  C   UNL     1      -6.184   8.675  65.718  1.00  0.00    -0.055 C  
ENDROOT
BRANCH   2   3
HETATM    3  C   UNL     1      -6.481   9.122  67.148  1.00  0.00    -0.060 C  
BRANCH   3   4
HETATM    4  C   UNL     1      -7.979   9.322  67.369  1.00  0.00    -0.106 C  
BRANCH   4   5
HETATM    5  C   UNL     1      -8.414   8.754  68.719  1.00  0.00    -0.129 C  
BRANCH   5   6
HETATM    6  C   UNL     1      -9.772   8.064  68.614  1.00  0.00    -0.163 C  
BRANCH   6   7
HETATM    7  C   UNL     1     -10.907   9.023  68.971  1.00  0.00    -0.092 C  
BRANCH   7   8
HETATM    8  C   UNL     1     -10.409  10.131  69.898  1.00  0.00    -0.308 C  
BRANCH   8   9
HETATM    9  C   UNL     1     -11.562  10.998  70.402  1.00  0.00    -0.389 C  
BRANCH   9  10
HETATM   10  C   UNL     1     -12.052  11.940  69.302  1.00  0.00    -0.270 C  
BRANCH  10  11
HETATM   11  C   UNL     1     -11.502  13.352  69.488  1.00  0.00    -0.308 C  
HETATM   12  C   UNL     1     -12.263  14.111  70.552  1.00  0.00    -0.361 C  
HETATM   13  O   UNL     1     -11.783  15.365  70.726  1.00  0.00    -0.286 OA 
HETATM   14  O   UNL     1     -13.202  13.678  71.197  1.00  0.00    -0.278 OA 
ENDBRANCH  10  11
ENDBRANCH   9  10
ENDBRANCH   8   9
ENDBRANCH   7   8
ENDBRANCH   6   7
ENDBRANCH   5   6
ENDBRANCH   4   5
ENDBRANCH   3   4
ENDBRANCH   2   3
TORSDOF 9
ENDMDL
MODEL      360
REMARK 921   NORMALIZED FREE ENERGY PREDICTED BY IDOCK:   -1.77 KCAL/MOL
REMARK 922        TOTAL FREE ENERGY PREDICTED BY IDOCK:   -3.25 KCAL/MOL
REMARK 923 INTER-LIGAND FREE ENERGY PREDICTED BY IDOCK:   -2.49 KCAL/MOL
REMARK 924 INTRA-LIGAND FREE ENERGY PREDICTED BY IDOCK:   -0.76 KCAL/MOL
REMARK 927      BINDING AFFINITY PREDICTED BY RF-SCORE:    0.00 PKD
ROOT
HETATM    1  C   UNL     1      -5.818  11.375  70.302  1.00  0.00    -0.154 C  
HETATM    2  C   UNL     1      -6.683  10.125  70.346  1.00  0.00    -0.134 C  
ENDROOT
BRANCH   2   3
HETATM    3  C   UNL     1      -6.954   9.592  68.941  1.00  0.00    -0.063 C  
BRANCH   3   4
HETATM    4  C   UNL     1      -6.621  10.634  67.876  1.00  0.00    -0.060 C  
BRANCH   4   5
HETATM    5  C   UNL     1      -7.251  10.266  66.534  1.00  0.00    -0.109 C  
BRANCH   5   6
HETATM    6  C   UNL     1      -8.323   9.192  66.706  1.00  0.00    -0.123 C  
BRANCH   6   7
HETATM    7  C   UNL     1      -9.713   9.815  66.830  1.00  0.00    -0.243 C  
BRANCH   7   8
HETATM    8  C   UNL     1     -10.773   8.737  67.054  1.00  0.00    -0.186 C  
BRANCH   8   9
HETATM    9  C   UNL     1     -10.145   7.346  67.137  1.00  0.00    -0.314 C  
BRANCH   9  10
HETATM   10  C   UNL     1     -10.377   6.729  68.517  1.00  0.00    -0.210 C  
BRANCH  10  11
HETATM   11  C   UNL     1     -10.663   7.798  69.567  1.00  0.00    -0.200 C  
HETATM   12  C   UNL     1     -11.463   7.243  70.724  1.00  0.00    -0.299 C  
HETATM   13  O   UNL     1     -11.722   8.184  71.664  1.00  0.00    -0.265 OA 
HETATM   14  O   UNL     1     -11.848   6.091  70.833  1.00  0.00    -0.128 OA 
ENDBRANCH  10  11
ENDBRANCH   9  10
ENDBRANCH   8   9
ENDBRANCH   7   8
ENDBRANCH   6   7
ENDBRANCH   5   6
ENDBRANCH   4   5
ENDBRANCH   3   4
ENDBRANCH   2   3
TORSDOF 9
ENDMDL
MODEL      361
REMARK 921   NORMALIZED FREE ENERGY PREDICTED BY IDOCK:   -1.75 KCAL/MOL
REMARK 922        TOTAL FREE ENERGY PREDICTED BY IDOCK:   -3.22 KCAL/MOL
REMARK 923 INTER-LIGAND FREE ENERGY PREDICTED BY IDOCK:   -2.68 KCAL/MOL
REMARK 924 INTRA-LIGAND FREE ENERGY PREDICTED BY IDOCK:   -0.53 KCAL/MOL
REMARK 927      BINDING AFFINITY PREDICTED BY RF-SCORE:    0.00 PKD
ROOT
HETATM    1  C   UNL     1      -9.098   4.477  66.187  1.00  0.00    -0.128 C  
HETATM    2  C   UNL     1      -9.670   4.524  67.594  1.00  0.00    -0.206 C  
ENDROOT
BRANCH   2   3
HETATM    3  C   UNL     1      -8.638   5.043  68.593  1.00  0.00    -0.097 C  
BRANCH   3   4
HETATM    4  C   UNL     1      -9.152   6.277  69.333  1.00  0.00    -0.139 C  
BRANCH   4   5
HETATM    5  C   UNL     1      -8.365   7.523  68.929  1.00  0.00    -0.129 C  
BRANCH   5   6
HETATM    6  C   UNL     1      -9.139   8.795  69.267  1.00  0.00    -0.145 C  
BRANCH   6   7
HETATM    7  C   UNL     1      -9.058   9.810  68.127  1.00  0.00    -0.125 C  
BRANCH   7   8
HETATM    8  C   UNL     1     -10.456  10.205  67.653  1.00  0.00    -0.293 C  
BRANCH   8   9
HETATM    9  C   UNL     1     -10.630  11.722  67.629  1.00  0.00    -0.237 C  
BRANCH   9  10
HETATM   10  C   UNL     1      -9.939  12.327  66.407  1.00  0.00    -0.243 C  
BRANCH  10  11
HETATM   11  C   UNL     1     -10.685  11.992  65.119  1.00  0.00    -0.332 C  
HETATM   12  C   UNL     1      -9.823  11.194  64.166  1.00  0.00    -0.291 C  
HETATM   13  O   UNL     1     -10.476  10.889  63.019  1.00  0.00    -0.190 OA 
HETATM   14  O   UNL     1      -8.672  10.847  64.372  1.00  0.00    -0.128 OA 
ENDBRANCH  10  11
ENDBRANCH   9  10
ENDBRANCH   8   9
ENDBRANCH   7   8
ENDBRANCH   6   7
ENDBRANCH   5   6
ENDBRANCH   4   5
ENDBRANCH   3   4
ENDBRANCH   2   3
TORSDOF 9
ENDMDL
MODEL      362
REMARK 921   NORMALIZED FREE ENERGY PREDICTED BY IDOCK:   -1.75 KCAL/MOL
REMARK 922        TOTAL FREE ENERGY PREDICTED BY IDOCK:   -3.22 KCAL/MOL
REMARK 923 INTER-LIGAND FREE ENERGY PREDICTED BY IDOCK:   -2.49 KCAL/MOL
REMARK 924 INTRA-LIGAND FREE ENERGY PREDICTED BY IDOCK:   -0.73 KCAL/MOL
REMARK 927      BINDING AFFINITY PREDICTED BY RF-SCORE:    0.00 PKD
ROOT
HETATM    1  C   UNL     1      -5.178  11.664  70.413  1.00  0.00    -0.104 C  
HETATM    2  C   UNL     1      -5.928  10.373  70.126  1.00  0.00    -0.083 C  
ENDROOT
BRANCH   2   3
HETATM    3  C   UNL     1      -6.452  10.345  68.692  1.00  0.00    -0.051 C  
BRANCH   3   4
HETATM    4  C   UNL     1      -6.047  11.603  67.928  1.00  0.00    -0.050 C  
BRANCH   4   5
HETATM    5  C   UNL     1      -7.109  11.983  66.897  1.00  0.00    -0.033 C  
BRANCH   5   6
HETATM    6  C   UNL     1      -8.482  11.450  67.300  1.00  0.00    -0.148 C  
BRANCH   6   7
HETATM    7  C   UNL     1      -9.240  12.467  68.153  1.00  0.00    -0.205 C  
BRANCH   7   8
HETATM    8  C   UNL     1     -10.748  12.242  68.053  1.00  0.00    -0.245 C  
BRANCH   8   9
HETATM    9  C   UNL     1     -11.112  10.780  68.306  1.00  0.00    -0.327 C  
BRANCH   9  10
HETATM   10  C   UNL     1     -10.690  10.352  69.711  1.00  0.00    -0.325 C  
BRANCH  10  11
HETATM   11  C   UNL     1     -10.593   8.833  69.829  1.00  0.00    -0.227 C  
HETATM   12  C   UNL     1      -9.723   8.419  70.995  1.00  0.00    -0.174 C  
HETATM   13  O   UNL     1      -9.630   7.073  71.110  1.00  0.00    -0.166 OA 
HETATM   14  O   UNL     1      -9.156   9.178  71.762  1.00  0.00    -0.346 OA 
ENDBRANCH  10  11
ENDBRANCH   9  10
ENDBRANCH   8   9
ENDBRANCH   7   8
ENDBRANCH   6   7
ENDBRANCH   5   6
ENDBRANCH   4   5
ENDBRANCH   3   4
ENDBRANCH   2   3
TORSDOF 9
ENDMDL
MODEL      363
REMARK 921   NORMALIZED FREE ENERGY PREDICTED BY IDOCK:   -1.75 KCAL/MOL
REMARK 922        TOTAL FREE ENERGY PREDICTED BY IDOCK:   -3.21 KCAL/MOL
REMARK 923 INTER-LIGAND FREE ENERGY PREDICTED BY IDOCK:   -2.21 KCAL/MOL
REMARK 924 INTRA-LIGAND FREE ENERGY PREDICTED BY IDOCK:   -1.01 KCAL/MOL
REMARK 927      BINDING AFFINITY PREDICTED BY RF-SCORE:    0.00 PKD
ROOT
HETATM    1  C   UNL     1      -8.309   3.991  73.382  1.00  0.00    -0.089 C  
HETATM    2  C   UNL     1      -8.208   4.631  72.007  1.00  0.00    -0.105 C  
ENDROOT
BRANCH   2   3
HETATM    3  C   UNL     1      -8.723   3.690  70.920  1.00  0.00    -0.121 C  
BRANCH   3   4
HETATM    4  C   UNL     1      -8.736   4.373  69.554  1.00  0.00    -0.117 C  
BRANCH   4   5
HETATM    5  C   UNL     1      -7.319   4.510  68.997  1.00  0.00    -0.056 C  
BRANCH   5   6
HETATM    6  C   UNL     1      -7.268   5.542  67.872  1.00  0.00    -0.072 C  
BRANCH   6   7
HETATM    7  C   UNL     1      -7.049   6.950  68.425  1.00  0.00    -0.086 C  
BRANCH   7   8
HETATM    8  C   UNL     1      -7.965   7.954  67.728  1.00  0.00    -0.124 C  
BRANCH   8   9
HETATM    9  C   UNL     1      -9.400   7.435  67.641  1.00  0.00    -0.145 C  
BRANCH   9  10
HETATM   10  C   UNL     1     -10.346   8.321  68.451  1.00  0.00    -0.237 C  
BRANCH  10  11
HETATM   11  C   UNL     1     -10.013   8.283  69.939  1.00  0.00    -0.190 C  
HETATM   12  C   UNL     1     -10.859   7.269  70.675  1.00  0.00    -0.242 C  
HETATM   13  O   UNL     1     -10.571   7.226  71.998  1.00  0.00    -0.204 OA 
HETATM   14  O   UNL     1     -11.710   6.556  70.171  1.00  0.00    -0.418 OA 
ENDBRANCH  10  11
ENDBRANCH   9  10
ENDBRANCH   8   9
ENDBRANCH   7   8
ENDBRANCH   6   7
ENDBRANCH   5   6
ENDBRANCH   4   5
ENDBRANCH   3   4
ENDBRANCH   2   3
TORSDOF 9
ENDMDL
MODEL      364
REMARK 921   NORMALIZED FREE ENERGY PREDICTED BY IDOCK:   -1.72 KCAL/MOL
REMARK 922        TOTAL FREE ENERGY PREDICTED BY IDOCK:   -3.17 KCAL/MOL
REMARK 923 INTER-LIGAND FREE ENERGY PREDICTED BY IDOCK:   -2.29 KCAL/MOL
REMARK 924 INTRA-LIGAND FREE ENERGY PREDICTED BY IDOCK:   -0.87 KCAL/MOL
REMARK 927      BINDING AFFINITY PREDICTED BY RF-SCORE:    0.00 PKD
ROOT
HETATM    1  C   UNL     1      -5.139  11.685  70.461  1.00  0.00    -0.101 C  
HETATM    2  C   UNL     1      -6.067  10.491  70.315  1.00  0.00    -0.115 C  
ENDROOT
BRANCH   2   3
HETATM    3  C   UNL     1      -6.893  10.586  69.034  1.00  0.00    -0.068 C  
BRANCH   3   4
HETATM    4  C   UNL     1      -6.451  11.768  68.174  1.00  0.00    -0.051 C  
BRANCH   4   5
HETATM    5  C   UNL     1      -6.022  11.302  66.783  1.00  0.00    -0.132 C  
BRANCH   5   6
HETATM    6  C   UNL     1      -6.854  10.107  66.322  1.00  0.00    -0.104 C  
BRANCH   6   7
HETATM    7  C   UNL     1      -8.109  10.563  65.578  1.00  0.00    -0.155 C  
BRANCH   7   8
HETATM    8  C   UNL     1      -9.001   9.370  65.238  1.00  0.00    -0.250 C  
BRANCH   8   9
HETATM    9  C   UNL     1      -9.309   8.532  66.478  1.00  0.00    -0.260 C  
BRANCH   9  10
HETATM   10  C   UNL     1     -10.035   9.369  67.531  1.00  0.00    -0.250 C  
BRANCH  10  11
HETATM   11  C   UNL     1      -9.929   8.740  68.917  1.00  0.00    -0.200 C  
HETATM   12  C   UNL     1     -10.162   9.758  70.011  1.00  0.00    -0.263 C  
HETATM   13  O   UNL     1     -10.071   9.211  71.246  1.00  0.00    -0.283 OA 
HETATM   14  O   UNL     1     -10.405  10.941  69.839  1.00  0.00    -0.062 OA 
ENDBRANCH  10  11
ENDBRANCH   9  10
ENDBRANCH   8   9
ENDBRANCH   7   8
ENDBRANCH   6   7
ENDBRANCH   5   6
ENDBRANCH   4   5
ENDBRANCH   3   4
ENDBRANCH   2   3
TORSDOF 9
ENDMDL
MODEL      365
REMARK 921   NORMALIZED FREE ENERGY PREDICTED BY IDOCK:   -1.72 KCAL/MOL
REMARK 922        TOTAL FREE ENERGY PREDICTED BY IDOCK:   -3.17 KCAL/MOL
REMARK 923 INTER-LIGAND FREE ENERGY PREDICTED BY IDOCK:   -2.55 KCAL/MOL
REMARK 924 INTRA-LIGAND FREE ENERGY PREDICTED BY IDOCK:   -0.62 KCAL/MOL
REMARK 927      BINDING AFFINITY PREDICTED BY RF-SCORE:    0.00 PKD
ROOT
HETATM    1  C   UNL     1      -5.698   6.822  64.615  1.00  0.00    -0.031 C  
HETATM    2  C   UNL     1      -6.184   8.125  64.001  1.00  0.00    -0.066 C  
ENDROOT
BRANCH   2   3
HETATM    3  C   UNL     1      -7.244   8.787  64.879  1.00  0.00    -0.084 C  
BRANCH   3   4
HETATM    4  C   UNL     1      -7.620   7.899  66.063  1.00  0.00    -0.086 C  
BRANCH   4   5
HETATM    5  C   UNL     1      -7.609   8.694  67.368  1.00  0.00    -0.093 C  
BRANCH   5   6
HETATM    6  C   UNL     1      -7.451  10.189  67.100  1.00  0.00    -0.091 C  
BRANCH   6   7
HETATM    7  C   UNL     1      -8.278  11.016  68.084  1.00  0.00    -0.124 C  
BRANCH   7   8
HETATM    8  C   UNL     1      -9.512  11.600  67.398  1.00  0.00    -0.171 C  
BRANCH   8   9
HETATM    9  C   UNL     1     -10.801  11.109  68.054  1.00  0.00    -0.274 C  
BRANCH   9  10
HETATM   10  C   UNL     1     -10.818  11.458  69.543  1.00  0.00    -0.165 C  
BRANCH  10  11
HETATM   11  C   UNL     1     -10.663  10.213  70.412  1.00  0.00    -0.329 C  
HETATM   12  C   UNL     1     -11.975   9.807  71.045  1.00  0.00    -0.352 C  
HETATM   13  O   UNL     1     -11.849   8.702  71.818  1.00  0.00    -0.293 OA 
HETATM   14  O   UNL     1     -13.040  10.383  70.900  1.00  0.00    -0.384 OA 
ENDBRANCH  10  11
ENDBRANCH   9  10
ENDBRANCH   8   9
ENDBRANCH   7   8
ENDBRANCH   6   7
ENDBRANCH   5   6
ENDBRANCH   4   5
ENDBRANCH   3   4
ENDBRANCH   2   3
TORSDOF 9
ENDMDL
MODEL      366
REMARK 921   NORMALIZED FREE ENERGY PREDICTED BY IDOCK:   -1.70 KCAL/MOL
REMARK 922        TOTAL FREE ENERGY PREDICTED BY IDOCK:   -3.14 KCAL/MOL
REMARK 923 INTER-LIGAND FREE ENERGY PREDICTED BY IDOCK:   -2.43 KCAL/MOL
REMARK 924 INTRA-LIGAND FREE ENERGY PREDICTED BY IDOCK:   -0.71 KCAL/MOL
REMARK 927      BINDING AFFINITY PREDICTED BY RF-SCORE:    0.00 PKD
ROOT
HETATM    1  C   UNL     1     -11.889  15.883  69.823  1.00  0.00    -0.303 C  
HETATM    2  C   UNL     1     -10.634  15.025  69.829  1.00  0.00    -0.232 C  
ENDROOT
BRANCH   2   3
HETATM    3  C   UNL     1     -10.384  14.401  68.458  1.00  0.00    -0.248 C  
BRANCH   3   4
HETATM    4  C   UNL     1      -8.970  14.697  67.962  1.00  0.00    -0.174 C  
BRANCH   4   5
HETATM    5  C   UNL     1      -7.965  14.650  69.112  1.00  0.00    -0.097 C  
BRANCH   5   6
HETATM    6  C   UNL     1      -6.889  13.597  68.859  1.00  0.00    -0.110 C  
BRANCH   6   7
HETATM    7  C   UNL     1      -7.504  12.284  68.375  1.00  0.00    -0.122 C  
BRANCH   7   8
HETATM    8  C   UNL     1      -7.227  11.157  69.369  1.00  0.00    -0.091 C  
BRANCH   8   9
HETATM    9  C   UNL     1      -8.177   9.980  69.156  1.00  0.00    -0.137 C  
BRANCH   9  10
HETATM   10  C   UNL     1      -9.118  10.248  67.981  1.00  0.00    -0.132 C  
BRANCH  10  11
HETATM   11  C   UNL     1     -10.103   9.101  67.779  1.00  0.00    -0.253 C  
HETATM   12  C   UNL     1      -9.636   8.146  66.703  1.00  0.00    -0.229 C  
HETATM   13  O   UNL     1     -10.503   7.123  66.516  1.00  0.00    -0.167 OA 
HETATM   14  O   UNL     1      -8.606   8.253  66.059  1.00  0.00    -0.132 OA 
ENDBRANCH  10  11
ENDBRANCH   9  10
ENDBRANCH   8   9
ENDBRANCH   7   8
ENDBRANCH   6   7
ENDBRANCH   5   6
ENDBRANCH   4   5
ENDBRANCH   3   4
ENDBRANCH   2   3
TORSDOF 9
ENDMDL
MODEL      367
REMARK 921   NORMALIZED FREE ENERGY PREDICTED BY IDOCK:   -1.63 KCAL/MOL
REMARK 922        TOTAL FREE ENERGY PREDICTED BY IDOCK:   -3.03 KCAL/MOL
REMARK 923 INTER-LIGAND FREE ENERGY PREDICTED BY IDOCK:   -2.00 KCAL/MOL
REMARK 924 INTRA-LIGAND FREE ENERGY PREDICTED BY IDOCK:   -1.03 KCAL/MOL
REMARK 927      BINDING AFFINITY PREDICTED BY RF-SCORE:    0.00 PKD
ROOT
HETATM    1  C   UNL     1      -7.898   8.218  63.806  1.00  0.00    -0.152 C  
HETATM    2  C   UNL     1      -7.565   7.253  64.933  1.00  0.00    -0.102 C  
ENDROOT
BRANCH   2   3
HETATM    3  C   UNL     1      -6.058   7.045  65.055  1.00  0.00    -0.037 C  
BRANCH   3   4
HETATM    4  C   UNL     1      -5.394   8.205  65.794  1.00  0.00    -0.028 C  
BRANCH   4   5
HETATM    5  C   UNL     1      -5.962   8.350  67.205  1.00  0.00    -0.051 C  
BRANCH   5   6
HETATM    6  C   UNL     1      -6.280   9.810  67.522  1.00  0.00    -0.059 C  
BRANCH   6   7
HETATM    7  C   UNL     1      -6.472  10.623  66.243  1.00  0.00    -0.126 C  
BRANCH   7   8
HETATM    8  C   UNL     1      -7.899  11.164  66.154  1.00  0.00    -0.072 C  
BRANCH   8   9
HETATM    9  C   UNL     1      -8.547  11.259  67.534  1.00  0.00    -0.134 C  
BRANCH   9  10
HETATM   10  C   UNL     1     -10.054  11.014  67.443  1.00  0.00    -0.216 C  
BRANCH  10  11
HETATM   11  C   UNL     1     -10.738  11.225  68.790  1.00  0.00    -0.240 C  
HETATM   12  C   UNL     1     -10.875   9.929  69.556  1.00  0.00    -0.246 C  
HETATM   13  O   UNL     1     -11.481  10.105  70.754  1.00  0.00    -0.310 OA 
HETATM   14  O   UNL     1     -10.497   8.835  69.172  1.00  0.00    -0.222 OA 
ENDBRANCH  10  11
ENDBRANCH   9  10
ENDBRANCH   8   9
ENDBRANCH   7   8
ENDBRANCH   6   7
ENDBRANCH   5   6
ENDBRANCH   4   5
ENDBRANCH   3   4
ENDBRANCH   2   3
TORSDOF 9
ENDMDL
MODEL      368
REMARK 921   NORMALIZED FREE ENERGY PREDICTED BY IDOCK:   -1.46 KCAL/MOL
REMARK 922        TOTAL FREE ENERGY PREDICTED BY IDOCK:   -2.77 KCAL/MOL
REMARK 923 INTER-LIGAND FREE ENERGY PREDICTED BY IDOCK:   -2.09 KCAL/MOL
REMARK 924 INTRA-LIGAND FREE ENERGY PREDICTED BY IDOCK:   -0.68 KCAL/MOL
REMARK 927      BINDING AFFINITY PREDICTED BY RF-SCORE:    0.00 PKD
ROOT
HETATM    1  C   UNL     1      -8.457  11.856  66.699  1.00  0.00    -0.143 C  
HETATM    2  C   UNL     1      -9.535  10.799  66.875  1.00  0.00    -0.192 C  
ENDROOT
BRANCH   2   3
HETATM    3  C   UNL     1      -8.971   9.394  66.671  1.00  0.00    -0.170 C  
BRANCH   3   4
HETATM    4  C   UNL     1     -10.063   8.333  66.794  1.00  0.00    -0.373 C  
BRANCH   4   5
HETATM    5  C   UNL     1      -9.775   7.384  67.956  1.00  0.00    -0.161 C  
BRANCH   5   6
HETATM    6  C   UNL     1      -9.948   8.091  69.299  1.00  0.00    -0.191 C  
BRANCH   6   7
HETATM    7  C   UNL     1      -8.620   8.179  70.051  1.00  0.00    -0.129 C  
BRANCH   7   8
HETATM    8  C   UNL     1      -8.629   7.265  71.275  1.00  0.00    -0.119 C  
BRANCH   8   9
HETATM    9  C   UNL     1      -9.715   6.196  71.166  1.00  0.00    -0.199 C  
BRANCH   9  10
HETATM   10  C   UNL     1      -9.114   4.797  71.304  1.00  0.00    -0.179 C  
BRANCH  10  11
HETATM   11  C   UNL     1      -7.658   4.765  70.849  1.00  0.00    -0.069 C  
HETATM   12  C   UNL     1      -7.524   4.230  69.441  1.00  0.00    -0.054 C  
HETATM   13  O   UNL     1      -6.236   4.198  69.027  1.00  0.00    -0.029 OA 
HETATM   14  O   UNL     1      -8.445   3.860  68.733  1.00  0.00    -0.076 OA 
ENDBRANCH  10  11
ENDBRANCH   9  10
ENDBRANCH   8   9
ENDBRANCH   7   8
ENDBRANCH   6   7
ENDBRANCH   5   6
ENDBRANCH   4   5
ENDBRANCH   3   4
ENDBRANCH   2   3
TORSDOF 9
ENDMDL
MODEL      369
REMARK 921   NORMALIZED FREE ENERGY PREDICTED BY IDOCK:   -1.39 KCAL/MOL
REMARK 922        TOTAL FREE ENERGY PREDICTED BY IDOCK:   -2.67 KCAL/MOL
REMARK 923 INTER-LIGAND FREE ENERGY PREDICTED BY IDOCK:   -2.07 KCAL/MOL
REMARK 924 INTRA-LIGAND FREE ENERGY PREDICTED BY IDOCK:   -0.60 KCAL/MOL
REMARK 927      BINDING AFFINITY PREDICTED BY RF-SCORE:    0.00 PKD
ROOT
HETATM    1  C   UNL     1      -9.772   9.984  67.145  1.00  0.00    -0.217 C  
HETATM    2  C   UNL     1      -9.937  10.696  68.478  1.00  0.00    -0.176 C  
ENDROOT
BRANCH   2   3
HETATM    3  C   UNL     1     -10.811   9.886  69.433  1.00  0.00    -0.265 C  
BRANCH   3   4
HETATM    4  C   UNL     1     -10.031   9.460  70.675  1.00  0.00    -0.349 C  
BRANCH   4   5
HETATM    5  C   UNL     1      -9.428   8.069  70.492  1.00  0.00    -0.166 C  
BRANCH   5   6
HETATM    6  C   UNL     1      -9.184   7.393  71.840  1.00  0.00    -0.151 C  
BRANCH   6   7
HETATM    7  C   UNL     1      -7.690   7.283  72.139  1.00  0.00    -0.090 C  
BRANCH   7   8
HETATM    8  C   UNL     1      -7.420   6.168  73.149  1.00  0.00    -0.096 C  
BRANCH   8   9
HETATM    9  C   UNL     1      -8.716   5.656  73.774  1.00  0.00    -0.121 C  
BRANCH   9  10
HETATM   10  C   UNL     1      -8.809   4.134  73.657  1.00  0.00    -0.093 C  
BRANCH  10  11
HETATM   11  C   UNL     1      -7.899   3.600  72.555  1.00  0.00    -0.068 C  
HETATM   12  C   UNL     1      -8.691   2.969  71.433  1.00  0.00    -0.073 C  
HETATM   13  O   UNL     1      -7.892   2.493  70.448  1.00  0.00    -0.043 OA 
HETATM   14  O   UNL     1      -9.906   2.881  71.385  1.00  0.00    -0.163 OA 
ENDBRANCH  10  11
ENDBRANCH   9  10
ENDBRANCH   8   9
ENDBRANCH   7   8
ENDBRANCH   6   7
ENDBRANCH   5   6
ENDBRANCH   4   5
ENDBRANCH   3   4
ENDBRANCH   2   3
TORSDOF 9
ENDMDL
MODEL      370
REMARK 921   NORMALIZED FREE ENERGY PREDICTED BY IDOCK:   -1.28 KCAL/MOL
REMARK 922        TOTAL FREE ENERGY PREDICTED BY IDOCK:   -2.50 KCAL/MOL
REMARK 923 INTER-LIGAND FREE ENERGY PREDICTED BY IDOCK:   -2.31 KCAL/MOL
REMARK 924 INTRA-LIGAND FREE ENERGY PREDICTED BY IDOCK:   -0.19 KCAL/MOL
REMARK 927      BINDING AFFINITY PREDICTED BY RF-SCORE:    0.00 PKD
ROOT
HETATM    1  C   UNL     1      -9.868   9.748  66.552  1.00  0.00    -0.286 C  
HETATM    2  C   UNL     1      -9.649  10.136  68.005  1.00  0.00    -0.160 C  
ENDROOT
BRANCH   2   3
HETATM    3  C   UNL     1     -10.258   9.103  68.951  1.00  0.00    -0.221 C  
BRANCH   3   4
HETATM    4  C   UNL     1      -9.818   7.687  68.585  1.00  0.00    -0.175 C  
BRANCH   4   5
HETATM    5  C   UNL     1     -10.812   7.036  67.626  1.00  0.00    -0.312 C  
BRANCH   5   6
HETATM    6  C   UNL     1     -10.719   5.513  67.686  1.00  0.00    -0.198 C  
BRANCH   6   7
HETATM    7  C   UNL     1     -10.263   4.934  66.347  1.00  0.00    -0.313 C  
BRANCH   7   8
HETATM    8  C   UNL     1      -9.659   3.543  66.534  1.00  0.00    -0.122 C  
BRANCH   8   9
HETATM    9  C   UNL     1      -8.145   3.614  66.729  1.00  0.00    -0.095 C  
BRANCH   9  10
HETATM   10  C   UNL     1      -7.687   2.604  67.781  1.00  0.00    -0.060 C  
BRANCH  10  11
HETATM   11  C   UNL     1      -8.812   2.255  68.751  1.00  0.00    -0.147 C  
HETATM   12  C   UNL     1      -8.531   2.775  70.142  1.00  0.00    -0.046 C  
HETATM   13  O   UNL     1      -9.524   2.472  71.012  1.00  0.00    -0.134 OA 
HETATM   14  O   UNL     1      -7.538   3.398  70.480  1.00  0.00    -0.040 OA 
ENDBRANCH  10  11
ENDBRANCH   9  10
ENDBRANCH   8   9
ENDBRANCH   7   8
ENDBRANCH   6   7
ENDBRANCH   5   6
ENDBRANCH   4   5
ENDBRANCH   3   4
ENDBRANCH   2   3
TORSDOF 9
ENDMDL
MODEL      371
REMARK 921   NORMALIZED FREE ENERGY PREDICTED BY IDOCK:   -1.15 KCAL/MOL
REMARK 922        TOTAL FREE ENERGY PREDICTED BY IDOCK:   -2.31 KCAL/MOL
REMARK 923 INTER-LIGAND FREE ENERGY PREDICTED BY IDOCK:   -1.69 KCAL/MOL
REMARK 924 INTRA-LIGAND FREE ENERGY PREDICTED BY IDOCK:   -0.62 KCAL/MOL
REMARK 927      BINDING AFFINITY PREDICTED BY RF-SCORE:    0.00 PKD
ROOT
HETATM    1  C   UNL     1      -9.888   9.760  66.537  1.00  0.00    -0.286 C  
HETATM    2  C   UNL     1      -9.733  10.184  67.988  1.00  0.00    -0.161 C  
ENDROOT
BRANCH   2   3
HETATM    3  C   UNL     1     -10.422   9.198  68.929  1.00  0.00    -0.239 C  
BRANCH   3   4
HETATM    4  C   UNL     1      -9.407   8.311  69.646  1.00  0.00    -0.158 C  
BRANCH   4   5
HETATM    5  C   UNL     1      -9.170   7.016  68.871  1.00  0.00    -0.136 C  
BRANCH   5   6
HETATM    6  C   UNL     1      -8.665   5.908  69.793  1.00  0.00    -0.129 C  
BRANCH   6   7
HETATM    7  C   UNL     1      -7.246   5.482  69.418  1.00  0.00    -0.065 C  
BRANCH   7   8
HETATM    8  C   UNL     1      -6.544   4.829  70.608  1.00  0.00    -0.031 C  
BRANCH   8   9
HETATM    9  C   UNL     1      -5.767   5.856  71.430  1.00  0.00    -0.022 C  
BRANCH   9  10
HETATM   10  C   UNL     1      -5.944   5.597  72.927  1.00  0.00    -0.036 C  
BRANCH  10  11
HETATM   11  C   UNL     1      -7.242   4.850  73.216  1.00  0.00    -0.085 C  
HETATM   12  C   UNL     1      -8.238   5.722  73.947  1.00  0.00    -0.109 C  
HETATM   13  O   UNL     1      -9.395   5.069  74.208  1.00  0.00    -0.120 OA 
HETATM   14  O   UNL     1      -8.055   6.882  74.278  1.00  0.00    -0.116 OA 
ENDBRANCH  10  11
ENDBRANCH   9  10
ENDBRANCH   8   9
ENDBRANCH   7   8
ENDBRANCH   6   7
ENDBRANCH   5   6
ENDBRANCH   4   5
ENDBRANCH   3   4
ENDBRANCH   2   3
TORSDOF 9
ENDMDL
MODEL      372
REMARK 921   NORMALIZED FREE ENERGY PREDICTED BY IDOCK:   -1.15 KCAL/MOL
REMARK 922        TOTAL FREE ENERGY PREDICTED BY IDOCK:   -2.30 KCAL/MOL
REMARK 923 INTER-LIGAND FREE ENERGY PREDICTED BY IDOCK:   -1.72 KCAL/MOL
REMARK 924 INTRA-LIGAND FREE ENERGY PREDICTED BY IDOCK:   -0.58 KCAL/MOL
REMARK 927      BINDING AFFINITY PREDICTED BY RF-SCORE:    0.00 PKD
ROOT
HETATM    1  C   UNL     1     -10.046  10.410  67.112  1.00  0.00    -0.254 C  
HETATM    2  C   UNL     1     -10.713   9.051  66.970  1.00  0.00    -0.185 C  
ENDROOT
BRANCH   2   3
HETATM    3  C   UNL     1      -9.859   8.102  66.133  1.00  0.00    -0.093 C  
BRANCH   3   4
HETATM    4  C   UNL     1      -9.628   6.777  66.857  1.00  0.00    -0.200 C  
BRANCH   4   5
HETATM    5  C   UNL     1      -8.748   6.974  68.091  1.00  0.00    -0.127 C  
BRANCH   5   6
HETATM    6  C   UNL     1      -8.331   5.633  68.689  1.00  0.00    -0.106 C  
BRANCH   6   7
HETATM    7  C   UNL     1      -9.449   5.038  69.544  1.00  0.00    -0.207 C  
BRANCH   7   8
HETATM    8  C   UNL     1      -8.906   3.946  70.465  1.00  0.00    -0.136 C  
BRANCH   8   9
HETATM    9  C   UNL     1      -7.388   3.819  70.345  1.00  0.00    -0.041 C  
BRANCH   9  10
HETATM   10  C   UNL     1      -6.741   3.735  71.728  1.00  0.00    -0.023 C  
BRANCH  10  11
HETATM   11  C   UNL     1      -7.764   3.952  72.839  1.00  0.00    -0.075 C  
HETATM   12  C   UNL     1      -7.593   5.302  73.499  1.00  0.00    -0.096 C  
HETATM   13  O   UNL     1      -8.497   5.506  74.487  1.00  0.00    -0.105 OA 
HETATM   14  O   UNL     1      -6.752   6.134  73.204  1.00  0.00    -0.072 OA 
ENDBRANCH  10  11
ENDBRANCH   9  10
ENDBRANCH   8   9
ENDBRANCH   7   8
ENDBRANCH   6   7
ENDBRANCH   5   6
ENDBRANCH   4   5
ENDBRANCH   3   4
ENDBRANCH   2   3
TORSDOF 9
ENDMDL
MODEL      373
REMARK 921   NORMALIZED FREE ENERGY PREDICTED BY IDOCK:   -0.84 KCAL/MOL
REMARK 922        TOTAL FREE ENERGY PREDICTED BY IDOCK:   -1.83 KCAL/MOL
REMARK 923 INTER-LIGAND FREE ENERGY PREDICTED BY IDOCK:   -4.40 KCAL/MOL
REMARK 924 INTRA-LIGAND FREE ENERGY PREDICTED BY IDOCK:    2.57 KCAL/MOL
REMARK 927      BINDING AFFINITY PREDICTED BY RF-SCORE:    0.00 PKD
ROOT
HETATM    1  C   UNL     1     -10.641   5.674  67.834  1.00  0.00    -0.266 C  
HETATM    2  C   UNL     1     -10.439   5.580  69.338  1.00  0.00    -0.360 C  
ENDROOT
BRANCH   2   3
HETATM    3  C   UNL     1     -11.460   6.432  70.088  1.00  0.00    -0.484 C  
BRANCH   3   4
HETATM    4  C   UNL     1     -10.790   7.285  71.163  1.00  0.00    -0.260 C  
BRANCH   4   5
HETATM    5  C   UNL     1     -11.590   8.560  71.427  1.00  0.00    -0.344 C  
BRANCH   5   6
HETATM    6  C   UNL     1     -11.154   9.686  70.492  1.00  0.00    -0.369 C  
BRANCH   6   7
HETATM    7  C   UNL     1     -10.199   9.171  69.416  1.00  0.00    -0.212 C  
BRANCH   7   8
HETATM    8  C   UNL     1     -10.273  10.043  68.163  1.00  0.00    -0.205 C  
BRANCH   8   9
HETATM    9  C   UNL     1     -11.451  11.014  68.227  1.00  0.00    -0.374 C  
BRANCH   9  10
HETATM   10  C   UNL     1     -11.339  11.921  69.453  1.00  0.00    -0.327 C  
BRANCH  10  11
HETATM   11  C   UNL     1     -12.526  11.739  70.394  1.00  0.00    -0.280 C  
HETATM   12  C   UNL     1     -12.661  12.901  71.353  1.00  0.00    -0.220 C  
HETATM   13  O   UNL     1     -13.712  12.751  72.193  1.00  0.00    -0.483 OA 
HETATM   14  O   UNL     1     -11.928  13.875  71.394  1.00  0.00    -0.216 OA 
ENDBRANCH  10  11
ENDBRANCH   9  10
ENDBRANCH   8   9
ENDBRANCH   7   8
ENDBRANCH   6   7
ENDBRANCH   5   6
ENDBRANCH   4   5
ENDBRANCH   3   4
ENDBRANCH   2   3
TORSDOF 9
ENDMDL
MODEL      374
REMARK 921   NORMALIZED FREE ENERGY PREDICTED BY IDOCK:   -0.28 KCAL/MOL
REMARK 922        TOTAL FREE ENERGY PREDICTED BY IDOCK:   -0.98 KCAL/MOL
REMARK 923 INTER-LIGAND FREE ENERGY PREDICTED BY IDOCK:   -1.19 KCAL/MOL
REMARK 924 INTRA-LIGAND FREE ENERGY PREDICTED BY IDOCK:    0.21 KCAL/MOL
REMARK 927      BINDING AFFINITY PREDICTED BY RF-SCORE:    0.00 PKD
ROOT
HETATM    1  C   UNL     1     -10.212   4.595  67.217  1.00  0.00    -0.119 C  
HETATM    2  C   UNL     1      -9.458   3.686  68.174  1.00  0.00    -0.215 C  
ENDROOT
BRANCH   2   3
HETATM    3  C   UNL     1      -8.586   4.493  69.133  1.00  0.00    -0.103 C  
BRANCH   3   4
HETATM    4  C   UNL     1      -7.124   4.058  69.055  1.00  0.00    -0.050 C  
BRANCH   4   5
HETATM    5  C   UNL     1      -6.845   2.904  70.016  1.00  0.00    -0.034 C  
BRANCH   5   6
HETATM    6  C   UNL     1      -6.211   1.721  69.287  1.00  0.00    -0.025 C  
BRANCH   6   7
HETATM    7  C   UNL     1      -6.426   1.825  67.778  1.00  0.00    -0.028 C  
BRANCH   7   8
HETATM    8  C   UNL     1      -5.738   3.069  67.216  1.00  0.00    -0.022 C  
BRANCH   8   9
HETATM    9  C   UNL     1      -5.806   3.103  65.690  1.00  0.00    -0.019 C  
BRANCH   9  10
HETATM   10  C   UNL     1      -7.129   3.708  65.221  1.00  0.00    -0.066 C  
BRANCH  10  11
HETATM   11  C   UNL     1      -8.112   2.628  64.776  1.00  0.00    -0.086 C  
HETATM   12  C   UNL     1      -9.313   3.221  64.075  1.00  0.00    -0.128 C  
HETATM   13  O   UNL     1     -10.192   2.271  63.675  1.00  0.00    -0.144 OA 
HETATM   14  O   UNL     1      -9.503   4.409  63.876  1.00  0.00    -0.147 OA 
ENDBRANCH  10  11
ENDBRANCH   9  10
ENDBRANCH   8   9
ENDBRANCH   7   8
ENDBRANCH   6   7
ENDBRANCH   5   6
ENDBRANCH   4   5
ENDBRANCH   3   4
ENDBRANCH   2   3
TORSDOF 9
ENDMDL
MODEL      375
REMARK 921   NORMALIZED FREE ENERGY PREDICTED BY IDOCK:    0.57 KCAL/MOL
REMARK 922        TOTAL FREE ENERGY PREDICTED BY IDOCK:    0.32 KCAL/MOL
REMARK 923 INTER-LIGAND FREE ENERGY PREDICTED BY IDOCK:   -0.43 KCAL/MOL
REMARK 924 INTRA-LIGAND FREE ENERGY PREDICTED BY IDOCK:    0.75 KCAL/MOL
REMARK 927      BINDING AFFINITY PREDICTED BY RF-SCORE:    0.00 PKD
ROOT
HETATM    1  C   UNL     1     -12.630  13.550  71.054  1.00  0.00    -0.438 C  
HETATM    2  C   UNL     1     -11.475  12.561  71.091  1.00  0.00     1.881 C  
ENDROOT
BRANCH   2   3
HETATM    3  C   UNL     1     -10.905  12.324  69.695  1.00  0.00     0.212 C  
BRANCH   3   4
HETATM    4  C   UNL     1     -11.579  11.135  69.013  1.00  0.00    -0.392 C  
BRANCH   4   5
HETATM    5  C   UNL     1     -11.652  11.340  67.501  1.00  0.00    -0.257 C  
BRANCH   5   6
HETATM    6  C   UNL     1     -11.236  12.759  67.118  1.00  0.00    -0.336 C  
BRANCH   6   7
HETATM    7  C   UNL     1      -9.715  12.890  67.053  1.00  0.00    -0.230 C  
BRANCH   7   8
HETATM    8  C   UNL     1      -9.143  12.024  65.932  1.00  0.00    -0.042 C  
BRANCH   8   9
HETATM    9  C   UNL     1      -9.409  10.540  66.181  1.00  0.00    -0.210 C  
BRANCH   9  10
HETATM   10  C   UNL     1      -8.380   9.676  65.452  1.00  0.00    -0.146 C  
BRANCH  10  11
HETATM   11  C   UNL     1      -7.049  10.405  65.292  1.00  0.00    -0.098 C  
HETATM   12  C   UNL     1      -6.323   9.972  64.038  1.00  0.00    -0.132 C  
HETATM   13  O   UNL     1      -5.141  10.614  63.884  1.00  0.00    -0.151 OA 
HETATM   14  O   UNL     1      -6.724   9.145  63.236  1.00  0.00    -0.090 OA 
ENDBRANCH  10  11
ENDBRANCH   9  10
ENDBRANCH   8   9
ENDBRANCH   7   8
ENDBRANCH   6   7
ENDBRANCH   5   6
ENDBRANCH   4   5
ENDBRANCH   3   4
ENDBRANCH   2   3
TORSDOF 9
ENDMDL
