MODEL        1
REMARK 921   NORMALIZED FREE ENERGY PREDICTED BY IDOCK:   -8.06 KCAL/MOL
REMARK 922        TOTAL FREE ENERGY PREDICTED BY IDOCK:  -12.13 KCAL/MOL
REMARK 923 INTER-LIGAND FREE ENERGY PREDICTED BY IDOCK:  -10.89 KCAL/MOL
REMARK 924 INTRA-LIGAND FREE ENERGY PREDICTED BY IDOCK:   -1.24 KCAL/MOL
REMARK 927      BINDING AFFINITY PREDICTED BY RF-SCORE:    0.00 PKD
ROOT
HETATM    1  C   UNL     1      -9.395   7.533  70.763  1.00  0.00    -0.162 C  
HETATM    2  C   UNL     1      -8.542   7.810  72.558  1.00  0.00    -0.136 C  
HETATM    3  C   UNL     1      -9.325   6.468  73.727  1.00  0.00    -0.167 C  
HETATM    4  O   UNL     1      -7.706   8.652  72.860  1.00  0.00    -0.355 OA 
HETATM    5  C   UNL     1     -10.726   5.534  72.665  1.00  0.00    -0.289 C  
HETATM    6  C   UNL     1     -10.429   6.082  70.867  1.00  0.00    -0.293 C  
HETATM    7  C   UNL     1     -10.072   5.124  69.715  1.00  0.00    -0.336 C  
HETATM    8  C   UNL     1      -9.260   5.797  68.542  1.00  0.00    -0.126 C  
HETATM    9  C   UNL     1      -9.622   7.265  68.208  1.00  0.00    -0.150 C  
HETATM   10  C   UNL     1     -11.072   7.198  67.668  1.00  0.00    -0.134 C  
HETATM   11  C   UNL     1      -9.288   8.274  69.399  1.00  0.00    -0.155 C  
HETATM   12  C   UNL     1     -10.382   9.462  69.351  1.00  0.00    -0.212 C  
HETATM   13  C   UNL     1      -7.870   8.863  69.339  1.00  0.00    -0.098 C  
HETATM   14  C   UNL     1     -11.104   9.783  70.672  1.00  0.00    -0.398 C  
HETATM   15  O   UNL     1     -11.369   7.749  73.812  1.00  0.00    -0.284 OA 
HETATM   16  C   UNL     1      -9.447   6.292  71.764  1.00  0.00    -0.158 C  
HETATM   17  C   UNL     1     -11.955   8.606  71.498  1.00  0.00    -0.362 C  
HETATM   18  C   UNL     1     -10.709   7.810  72.518  1.00  0.00    -0.314 C  
HETATM   19  H   UNL     1     -10.711   7.327  74.351  1.00  0.00     0.000 HD 
HETATM   20  C   UNL     1      -7.726   6.037  71.270  1.00  0.00    -0.110 C  
HETATM   21  C   UNL     1     -13.173   9.538  71.834  1.00  0.00    -0.524 C  
ENDROOT
BRANCH  12  22
HETATM   22  O   UNL     1      -9.801  10.699  68.890  1.00  0.00    -0.185 OA 
BRANCH  22  23
HETATM   23  C   UNL     1     -10.616  11.538  68.187  1.00  0.00    -0.196 C  
HETATM   24  O   UNL     1     -11.457  11.191  67.368  1.00  0.00    -0.466 OA 
BRANCH  23  25
HETATM   25  C   UNL     1     -10.432  12.963  68.638  1.00  0.00    -0.213 C  
BRANCH  25  26
HETATM   26  S   UNL     1     -12.023  13.833  68.731  1.00  0.00    -0.326 SA 
BRANCH  26  27
HETATM   27  C   UNL     1     -12.031  14.352  70.493  1.00  0.00    -0.325 C  
HETATM   28  C   UNL     1     -13.260  13.817  71.237  1.00  0.00    -0.331 C  
HETATM   29  C   UNL     1     -13.180  14.155  72.726  1.00  0.00    -0.604 C  
HETATM   30  C   UNL     1     -13.025  15.665  72.941  1.00  0.00    -0.497 C  
HETATM   31  N   UNL     1     -12.904  15.962  74.365  1.00  0.00    -0.925 NA 
HETATM   32  C   UNL     1     -11.807  16.211  72.189  1.00  0.00    -0.626 C  
HETATM   33  C   UNL     1     -11.876  15.874  70.696  1.00  0.00    -0.370 C  
HETATM   34  H2  UNL     1     -12.148  15.434  74.802  1.00  0.00     0.000 HD 
HETATM   35  H1  UNL     1     -12.800  16.966  74.508  1.00  0.00     0.000 HD 
HETATM   36  O   UNL     1     -10.699  16.381  70.067  1.00  0.00    -0.319 OA 
HETATM   37  H   UNL     1     -10.604  17.318  70.192  1.00  0.00     0.000 HD 
ENDBRANCH  26  27
ENDBRANCH  25  26
ENDBRANCH  23  25
ENDBRANCH  22  23
ENDBRANCH  12  22
BRANCH  17  38
HETATM   38  C   UNL     1     -12.859   7.389  71.470  1.00  0.00    -0.416 C  
HETATM   39  C   UNL     1     -14.136   7.038  71.439  1.00  0.00    -0.324 C  
ENDBRANCH  17  38
TORSDOF 6
ENDMDL
MODEL        2
REMARK 921   NORMALIZED FREE ENERGY PREDICTED BY IDOCK:   -7.77 KCAL/MOL
REMARK 922        TOTAL FREE ENERGY PREDICTED BY IDOCK:  -11.74 KCAL/MOL
REMARK 923 INTER-LIGAND FREE ENERGY PREDICTED BY IDOCK:  -10.77 KCAL/MOL
REMARK 924 INTRA-LIGAND FREE ENERGY PREDICTED BY IDOCK:   -0.97 KCAL/MOL
REMARK 927      BINDING AFFINITY PREDICTED BY RF-SCORE:    0.00 PKD
ROOT
HETATM    1  C   UNL     1      -9.198   7.066  70.783  1.00  0.00    -0.157 C  
HETATM    2  C   UNL     1      -8.390   7.130  72.619  1.00  0.00    -0.107 C  
HETATM    3  C   UNL     1      -9.461   5.925  73.708  1.00  0.00    -0.141 C  
HETATM    4  O   UNL     1      -7.428   7.793  72.984  1.00  0.00    -0.094 OA 
HETATM    5  C   UNL     1     -10.960   5.298  72.559  1.00  0.00    -0.298 C  
HETATM    6  C   UNL     1     -10.485   5.831  70.795  1.00  0.00    -0.324 C  
HETATM    7  C   UNL     1     -10.260   4.854  69.625  1.00  0.00    -0.265 C  
HETATM    8  C   UNL     1      -9.285   5.397  68.509  1.00  0.00    -0.130 C  
HETATM    9  C   UNL     1      -9.354   6.915  68.213  1.00  0.00    -0.125 C  
HETATM   10  C   UNL     1     -10.766   7.134  67.614  1.00  0.00    -0.314 C  
HETATM   11  C   UNL     1      -8.894   7.811  69.452  1.00  0.00    -0.139 C  
HETATM   12  C   UNL     1      -9.746   9.183  69.403  1.00  0.00    -0.170 C  
HETATM   13  C   UNL     1      -7.390   8.128  69.469  1.00  0.00    -0.081 C  
HETATM   14  C   UNL     1     -10.456   9.597  70.704  1.00  0.00    -0.379 C  
HETATM   15  O   UNL     1     -11.235   7.561  73.757  1.00  0.00    -0.498 OA 
HETATM   16  C   UNL     1      -9.523   5.829  71.737  1.00  0.00    -0.167 C  
HETATM   17  C   UNL     1     -11.547   8.576  71.455  1.00  0.00    -0.344 C  
HETATM   18  C   UNL     1     -10.517   7.534  72.494  1.00  0.00    -0.249 C  
HETATM   19  H   UNL     1     -10.690   7.010  74.307  1.00  0.00     0.000 HD 
HETATM   20  C   UNL     1      -7.858   5.273  71.302  1.00  0.00    -0.107 C  
HETATM   21  C   UNL     1     -12.586   9.708  71.775  1.00  0.00    -0.497 C  
ENDROOT
BRANCH  12  22
HETATM   22  O   UNL     1      -8.927  10.302  69.008  1.00  0.00    -0.152 OA 
BRANCH  22  23
HETATM   23  C   UNL     1      -8.825  10.550  67.671  1.00  0.00    -0.131 C  
HETATM   24  O   UNL     1      -7.785  10.550  67.025  1.00  0.00    -0.105 OA 
BRANCH  23  25
HETATM   25  C   UNL     1     -10.189  10.711  67.052  1.00  0.00    -0.220 C  
BRANCH  25  26
HETATM   26  S   UNL     1     -10.133  10.432  65.258  1.00  0.00    -0.270 SA 
BRANCH  26  27
HETATM   27  C   UNL     1     -10.552  12.108  64.635  1.00  0.00    -0.300 C  
HETATM   28  C   UNL     1     -10.298  13.188  65.692  1.00  0.00    -0.291 C  
HETATM   29  C   UNL     1     -10.534  14.582  65.110  1.00  0.00    -0.439 C  
HETATM   30  C   UNL     1     -11.948  14.706  64.530  1.00  0.00    -0.460 C  
HETATM   31  N   UNL     1     -12.137  16.027  63.939  1.00  0.00    -1.257 NA 
HETATM   32  C   UNL     1     -12.216  13.620  63.483  1.00  0.00    -0.329 C  
HETATM   33  C   UNL     1     -11.979  12.220  64.057  1.00  0.00    -0.462 C  
HETATM   34  H2  UNL     1     -11.421  16.240  63.245  1.00  0.00     0.000 HD 
HETATM   35  H1  UNL     1     -13.077  16.109  63.553  1.00  0.00     0.000 HD 
HETATM   36  O   UNL     1     -12.213  11.266  63.021  1.00  0.00    -0.868 OA 
HETATM   37  H   UNL     1     -13.091  11.335  62.665  1.00  0.00     0.000 HD 
ENDBRANCH  26  27
ENDBRANCH  25  26
ENDBRANCH  23  25
ENDBRANCH  22  23
ENDBRANCH  12  22
BRANCH  17  38
HETATM   38  C   UNL     1     -12.657   7.550  71.348  1.00  0.00    -0.382 C  
HETATM   39  C   UNL     1     -13.968   7.411  71.485  1.00  0.00    -0.517 C  
ENDBRANCH  17  38
TORSDOF 6
ENDMDL
MODEL        3
REMARK 921   NORMALIZED FREE ENERGY PREDICTED BY IDOCK:   -7.64 KCAL/MOL
REMARK 922        TOTAL FREE ENERGY PREDICTED BY IDOCK:  -11.55 KCAL/MOL
REMARK 923 INTER-LIGAND FREE ENERGY PREDICTED BY IDOCK:  -10.48 KCAL/MOL
REMARK 924 INTRA-LIGAND FREE ENERGY PREDICTED BY IDOCK:   -1.07 KCAL/MOL
REMARK 927      BINDING AFFINITY PREDICTED BY RF-SCORE:    0.00 PKD
ROOT
HETATM    1  C   UNL     1      -9.219   7.118  70.852  1.00  0.00    -0.152 C  
HETATM    2  C   UNL     1      -8.448   7.184  72.704  1.00  0.00    -0.107 C  
HETATM    3  C   UNL     1      -9.452   5.879  73.739  1.00  0.00    -0.141 C  
HETATM    4  O   UNL     1      -7.540   7.900  73.104  1.00  0.00    -0.110 OA 
HETATM    5  C   UNL     1     -10.886   5.185  72.546  1.00  0.00    -0.282 C  
HETATM    6  C   UNL     1     -10.419   5.799  70.807  1.00  0.00    -0.324 C  
HETATM    7  C   UNL     1     -10.108   4.874  69.614  1.00  0.00    -0.300 C  
HETATM    8  C   UNL     1      -9.154   5.512  68.533  1.00  0.00    -0.122 C  
HETATM    9  C   UNL     1      -9.322   7.030  68.277  1.00  0.00    -0.126 C  
HETATM   10  C   UNL     1     -10.735   7.171  67.658  1.00  0.00    -0.314 C  
HETATM   11  C   UNL     1      -8.944   7.920  69.548  1.00  0.00    -0.142 C  
HETATM   12  C   UNL     1      -9.887   9.232  69.520  1.00  0.00    -0.181 C  
HETATM   13  C   UNL     1      -7.466   8.337  69.601  1.00  0.00    -0.081 C  
HETATM   14  C   UNL     1     -10.645   9.559  70.819  1.00  0.00    -0.387 C  
HETATM   15  O   UNL     1     -11.334   7.389  73.800  1.00  0.00    -0.468 OA 
HETATM   16  C   UNL     1      -9.475   5.835  71.766  1.00  0.00    -0.167 C  
HETATM   17  C   UNL     1     -11.676   8.446  71.521  1.00  0.00    -0.341 C  
HETATM   18  C   UNL     1     -10.595   7.447  72.550  1.00  0.00    -0.261 C  
HETATM   19  H   UNL     1     -10.763   6.861  74.345  1.00  0.00     0.000 HD 
HETATM   20  C   UNL     1      -7.769   5.405  71.347  1.00  0.00    -0.108 C  
HETATM   21  C   UNL     1     -12.795   9.496  71.853  1.00  0.00    -0.508 C  
ENDROOT
BRANCH  12  22
HETATM   22  O   UNL     1      -9.139  10.415  69.172  1.00  0.00    -0.176 OA 
BRANCH  22  23
HETATM   23  C   UNL     1      -9.367  10.946  67.936  1.00  0.00    -0.156 C  
HETATM   24  O   UNL     1      -8.506  11.219  67.110  1.00  0.00    -0.139 OA 
BRANCH  23  25
HETATM   25  C   UNL     1     -10.845  11.046  67.662  1.00  0.00    -0.256 C  
BRANCH  25  26
HETATM   26  S   UNL     1     -11.601  12.384  68.630  1.00  0.00    -0.338 SA 
BRANCH  26  27
HETATM   27  C   UNL     1     -11.780  13.683  67.343  1.00  0.00    -0.381 C  
HETATM   28  C   UNL     1     -11.989  13.079  65.951  1.00  0.00    -0.491 C  
HETATM   29  C   UNL     1     -12.260  14.175  64.920  1.00  0.00    -0.451 C  
HETATM   30  C   UNL     1     -11.127  15.208  64.903  1.00  0.00    -0.414 C  
HETATM   31  N   UNL     1     -11.426  16.270  63.947  1.00  0.00    -1.539 NA 
HETATM   32  C   UNL     1     -10.900  15.807  66.296  1.00  0.00    -0.232 C  
HETATM   33  C   UNL     1     -10.631  14.715  67.335  1.00  0.00    -0.265 C  
HETATM   34  H2  UNL     1     -12.332  16.701  64.128  1.00  0.00     0.000 HD 
HETATM   35  H1  UNL     1     -10.672  16.957  63.937  1.00  0.00     0.000 HD 
HETATM   36  O   UNL     1     -10.464  15.339  68.608  1.00  0.00    -0.225 OA 
HETATM   37  H   UNL     1      -9.757  15.974  68.603  1.00  0.00     0.000 HD 
ENDBRANCH  26  27
ENDBRANCH  25  26
ENDBRANCH  23  25
ENDBRANCH  22  23
ENDBRANCH  12  22
BRANCH  17  38
HETATM   38  C   UNL     1     -12.712   7.351  71.365  1.00  0.00    -0.408 C  
HETATM   39  C   UNL     1     -14.021   7.147  71.345  1.00  0.00    -0.384 C  
ENDBRANCH  17  38
TORSDOF 6
ENDMDL
MODEL        4
REMARK 921   NORMALIZED FREE ENERGY PREDICTED BY IDOCK:   -7.28 KCAL/MOL
REMARK 922        TOTAL FREE ENERGY PREDICTED BY IDOCK:  -11.06 KCAL/MOL
REMARK 923 INTER-LIGAND FREE ENERGY PREDICTED BY IDOCK:   -9.92 KCAL/MOL
REMARK 924 INTRA-LIGAND FREE ENERGY PREDICTED BY IDOCK:   -1.14 KCAL/MOL
REMARK 927      BINDING AFFINITY PREDICTED BY RF-SCORE:    0.00 PKD
ROOT
HETATM    1  C   UNL     1      -9.329   7.620  70.509  1.00  0.00    -0.163 C  
HETATM    2  C   UNL     1      -8.473   7.896  72.304  1.00  0.00    -0.140 C  
HETATM    3  C   UNL     1      -9.198   6.505  73.453  1.00  0.00    -0.145 C  
HETATM    4  O   UNL     1      -7.666   8.763  72.615  1.00  0.00    -0.361 OA 
HETATM    5  C   UNL     1     -10.572   5.540  72.383  1.00  0.00    -0.272 C  
HETATM    6  C   UNL     1     -10.308   6.131  70.594  1.00  0.00    -0.268 C  
HETATM    7  C   UNL     1      -9.925   5.207  69.422  1.00  0.00    -0.292 C  
HETATM    8  C   UNL     1      -9.147   5.930  68.256  1.00  0.00    -0.118 C  
HETATM    9  C   UNL     1      -9.564   7.390  67.951  1.00  0.00    -0.157 C  
HETATM   10  C   UNL     1     -11.015   7.280  67.420  1.00  0.00    -0.257 C  
HETATM   11  C   UNL     1      -9.259   8.389  69.159  1.00  0.00    -0.150 C  
HETATM   12  C   UNL     1     -10.396   9.537  69.140  1.00  0.00    -0.207 C  
HETATM   13  C   UNL     1      -7.863   9.031  69.100  1.00  0.00    -0.093 C  
HETATM   14  C   UNL     1     -11.119   9.808  70.471  1.00  0.00    -0.384 C  
HETATM   15  O   UNL     1     -11.287   7.708  73.575  1.00  0.00    -0.604 OA 
HETATM   16  C   UNL     1      -9.328   6.360  71.488  1.00  0.00    -0.152 C  
HETATM   17  C   UNL     1     -11.921   8.585  71.281  1.00  0.00    -0.334 C  
HETATM   18  C   UNL     1     -10.640   7.817  72.278  1.00  0.00    -0.259 C  
HETATM   19  H   UNL     1     -10.610   7.301  74.102  1.00  0.00     0.000 HD 
HETATM   20  C   UNL     1      -7.602   6.178  70.978  1.00  0.00    -0.097 C  
HETATM   21  C   UNL     1     -13.170   9.465  71.642  1.00  0.00    -0.470 C  
ENDROOT
BRANCH  12  22
HETATM   22  O   UNL     1      -9.864  10.802  68.697  1.00  0.00    -0.169 OA 
BRANCH  22  23
HETATM   23  C   UNL     1     -10.604  11.496  67.784  1.00  0.00    -0.192 C  
HETATM   24  O   UNL     1     -11.814  11.396  67.626  1.00  0.00    -0.609 OA 
BRANCH  23  25
HETATM   25  C   UNL     1      -9.751  12.504  67.060  1.00  0.00    -0.213 C  
BRANCH  25  26
HETATM   26  S   UNL     1     -10.724  13.430  65.838  1.00  0.00    -0.283 SA 
BRANCH  26  27
HETATM   27  C   UNL     1     -10.805  15.081  66.640  1.00  0.00    -0.318 C  
HETATM   28  C   UNL     1      -9.504  15.869  66.450  1.00  0.00    -0.324 C  
HETATM   29  C   UNL     1      -9.640  17.283  67.015  1.00  0.00    -0.262 C  
HETATM   30  C   UNL     1     -10.049  17.249  68.492  1.00  0.00    -0.341 C  
HETATM   31  N   UNL     1     -10.219  18.607  69.000  1.00  0.00    -0.479 NA 
HETATM   32  C   UNL     1     -11.341  16.450  68.693  1.00  0.00    -0.289 C  
HETATM   33  C   UNL     1     -11.215  15.033  68.127  1.00  0.00    -0.308 C  
HETATM   34  H2  UNL     1     -10.875  19.146  68.435  1.00  0.00     0.000 HD 
HETATM   35  H1  UNL     1     -10.491  18.585  69.982  1.00  0.00     0.000 HD 
HETATM   36  O   UNL     1     -12.460  14.361  68.318  1.00  0.00    -0.587 OA 
HETATM   37  H   UNL     1     -12.712  14.332  69.233  1.00  0.00     0.000 HD 
ENDBRANCH  26  27
ENDBRANCH  25  26
ENDBRANCH  23  25
ENDBRANCH  22  23
ENDBRANCH  12  22
BRANCH  17  38
HETATM   38  C   UNL     1     -12.780   7.337  71.237  1.00  0.00    -0.400 C  
HETATM   39  C   UNL     1     -14.032   6.925  71.370  1.00  0.00    -0.227 C  
ENDBRANCH  17  38
TORSDOF 6
ENDMDL
MODEL        5
REMARK 921   NORMALIZED FREE ENERGY PREDICTED BY IDOCK:   -7.25 KCAL/MOL
REMARK 922        TOTAL FREE ENERGY PREDICTED BY IDOCK:  -11.03 KCAL/MOL
REMARK 923 INTER-LIGAND FREE ENERGY PREDICTED BY IDOCK:   -9.56 KCAL/MOL
REMARK 924 INTRA-LIGAND FREE ENERGY PREDICTED BY IDOCK:   -1.47 KCAL/MOL
REMARK 927      BINDING AFFINITY PREDICTED BY RF-SCORE:    0.00 PKD
ROOT
HETATM    1  C   UNL     1      -9.427   7.334  70.785  1.00  0.00    -0.164 C  
HETATM    2  C   UNL     1      -8.675   7.753  72.599  1.00  0.00    -0.146 C  
HETATM    3  C   UNL     1      -9.653   6.627  73.847  1.00  0.00    -0.236 C  
HETATM    4  O   UNL     1      -7.790   8.555  72.868  1.00  0.00    -0.324 OA 
HETATM    5  C   UNL     1     -11.056   5.689  72.791  1.00  0.00    -0.334 C  
HETATM    6  C   UNL     1     -10.590   5.994  70.972  1.00  0.00    -0.305 C  
HETATM    7  C   UNL     1     -10.242   4.880  69.966  1.00  0.00    -0.313 C  
HETATM    8  C   UNL     1      -9.296   5.341  68.791  1.00  0.00    -0.157 C  
HETATM    9  C   UNL     1      -9.503   6.783  68.267  1.00  0.00    -0.125 C  
HETATM   10  C   UNL     1     -10.913   6.770  67.627  1.00  0.00    -0.346 C  
HETATM   11  C   UNL     1      -9.161   7.896  69.359  1.00  0.00    -0.145 C  
HETATM   12  C   UNL     1     -10.139   9.155  69.093  1.00  0.00    -0.194 C  
HETATM   13  C   UNL     1      -7.695   8.359  69.343  1.00  0.00    -0.097 C  
HETATM   14  C   UNL     1     -10.918   9.688  70.308  1.00  0.00    -0.337 C  
HETATM   15  O   UNL     1     -11.576   8.069  73.628  1.00  0.00    -0.126 OA 
HETATM   16  C   UNL     1      -9.656   6.229  71.913  1.00  0.00    -0.163 C  
HETATM   17  C   UNL     1     -11.925   8.690  71.194  1.00  0.00    -0.320 C  
HETATM   18  C   UNL     1     -10.827   7.923  72.391  1.00  0.00    -0.317 C  
HETATM   19  H   UNL     1     -10.995   7.663  74.261  1.00  0.00     0.000 HD 
HETATM   20  C   UNL     1      -7.935   5.780  71.585  1.00  0.00    -0.117 C  
HETATM   21  C   UNL     1     -13.075   9.750  71.327  1.00  0.00    -0.465 C  
ENDROOT
BRANCH  12  22
HETATM   22  O   UNL     1      -9.421  10.277  68.541  1.00  0.00    -0.148 OA 
BRANCH  22  23
HETATM   23  C   UNL     1      -9.601  10.531  67.213  1.00  0.00    -0.163 C  
HETATM   24  O   UNL     1      -9.565   9.697  66.318  1.00  0.00    -0.186 OA 
BRANCH  23  25
HETATM   25  C   UNL     1      -9.975  11.974  66.991  1.00  0.00    -0.204 C  
BRANCH  25  26
HETATM   26  S   UNL     1     -11.700  12.285  67.462  1.00  0.00    -0.276 SA 
BRANCH  26  27
HETATM   27  C   UNL     1     -11.475  13.519  68.805  1.00  0.00    -0.311 C  
HETATM   28  C   UNL     1     -12.360  13.207  70.017  1.00  0.00    -0.241 C  
HETATM   29  C   UNL     1     -12.064  14.172  71.165  1.00  0.00    -0.392 C  
HETATM   30  C   UNL     1     -12.238  15.629  70.721  1.00  0.00    -0.418 C  
HETATM   31  N   UNL     1     -11.906  16.534  71.816  1.00  0.00    -0.652 NA 
HETATM   32  C   UNL     1     -11.368  15.945  69.499  1.00  0.00    -0.335 C  
HETATM   33  C   UNL     1     -11.657  14.981  68.344  1.00  0.00    -0.331 C  
HETATM   34  H2  UNL     1     -10.972  16.358  72.187  1.00  0.00     0.000 HD 
HETATM   35  H1  UNL     1     -12.022  17.503  71.520  1.00  0.00     0.000 HD 
HETATM   36  O   UNL     1     -10.791  15.311  67.259  1.00  0.00    -0.305 OA 
HETATM   37  H   UNL     1     -10.903  16.211  66.975  1.00  0.00     0.000 HD 
ENDBRANCH  26  27
ENDBRANCH  25  26
ENDBRANCH  23  25
ENDBRANCH  22  23
ENDBRANCH  12  22
BRANCH  17  38
HETATM   38  C   UNL     1     -12.929   7.555  71.233  1.00  0.00    -0.323 C  
HETATM   39  C   UNL     1     -14.198   7.292  71.512  1.00  0.00    -0.540 C  
ENDBRANCH  17  38
TORSDOF 6
ENDMDL
MODEL        6
REMARK 921   NORMALIZED FREE ENERGY PREDICTED BY IDOCK:   -7.00 KCAL/MOL
REMARK 922        TOTAL FREE ENERGY PREDICTED BY IDOCK:  -10.70 KCAL/MOL
REMARK 923 INTER-LIGAND FREE ENERGY PREDICTED BY IDOCK:   -9.51 KCAL/MOL
REMARK 924 INTRA-LIGAND FREE ENERGY PREDICTED BY IDOCK:   -1.19 KCAL/MOL
REMARK 927      BINDING AFFINITY PREDICTED BY RF-SCORE:    0.00 PKD
ROOT
HETATM    1  C   UNL     1      -9.271   9.433  67.094  1.00  0.00    -0.159 C  
HETATM    2  C   UNL     1      -9.981   7.573  66.838  1.00  0.00    -0.248 C  
HETATM    3  C   UNL     1      -8.458   6.499  66.283  1.00  0.00    -0.129 C  
HETATM    4  O   UNL     1     -11.134   7.191  66.991  1.00  0.00    -0.345 OA 
HETATM    5  C   UNL     1      -6.925   7.751  66.068  1.00  0.00    -0.061 C  
HETATM    6  C   UNL     1      -7.502   9.378  66.869  1.00  0.00    -0.091 C  
HETATM    7  C   UNL     1      -6.818  10.041  68.079  1.00  0.00    -0.068 C  
HETATM    8  C   UNL     1      -7.774  10.945  68.948  1.00  0.00    -0.135 C  
HETATM    9  C   UNL     1      -8.860  11.737  68.178  1.00  0.00    -0.169 C  
HETATM   10  C   UNL     1      -8.070  12.751  67.315  1.00  0.00    -0.172 C  
HETATM   11  C   UNL     1      -9.932  10.790  67.468  1.00  0.00    -0.203 C  
HETATM   12  C   UNL     1     -10.420  11.534  66.120  1.00  0.00    -0.251 C  
HETATM   13  C   UNL     1     -11.146  10.451  68.349  1.00  0.00    -0.322 C  
HETATM   14  C   UNL     1     -10.375  10.705  64.824  1.00  0.00    -0.353 C  
HETATM   15  O   UNL     1      -8.558   7.506  64.091  1.00  0.00    -0.357 OA 
HETATM   16  C   UNL     1      -8.194   8.257  67.144  1.00  0.00    -0.119 C  
HETATM   17  C   UNL     1      -8.952  10.002  64.298  1.00  0.00    -0.269 C  
HETATM   18  C   UNL     1      -8.905   8.427  65.160  1.00  0.00    -0.031 C  
HETATM   19  H   UNL     1      -8.532   6.673  64.547  1.00  0.00     0.000 HD 
HETATM   20  C   UNL     1      -8.814   7.986  68.821  1.00  0.00    -0.138 C  
HETATM   21  C   UNL     1      -9.165  10.388  62.791  1.00  0.00    -0.323 C  
ENDROOT
BRANCH  12  22
HETATM   22  O   UNL     1     -11.770  12.027  66.244  1.00  0.00    -0.504 OA 
BRANCH  22  23
HETATM   23  C   UNL     1     -12.056  13.204  65.616  1.00  0.00    -0.449 C  
HETATM   24  O   UNL     1     -13.046  13.421  64.930  1.00  0.00    -0.723 OA 
BRANCH  23  25
HETATM   25  C   UNL     1     -11.043  14.260  65.974  1.00  0.00    -0.319 C  
BRANCH  25  26
HETATM   26  S   UNL     1     -11.249  14.811  67.692  1.00  0.00    -0.334 SA 
BRANCH  26  27
HETATM   27  C   UNL     1     -11.025  16.624  67.503  1.00  0.00    -0.147 C  
HETATM   28  C   UNL     1     -10.366  16.979  66.166  1.00  0.00    -0.326 C  
HETATM   29  C   UNL     1     -10.305  18.495  65.978  1.00  0.00    -0.423 C  
HETATM   30  C   UNL     1      -9.572  19.167  67.145  1.00  0.00    -0.319 C  
HETATM   31  N   UNL     1      -9.565  20.616  66.969  1.00  0.00    -0.640 NA 
HETATM   32  C   UNL     1     -10.216  18.805  68.487  1.00  0.00    -0.397 C  
HETATM   33  C   UNL     1     -10.283  17.288  68.683  1.00  0.00    -0.351 C  
HETATM   34  H2  UNL     1     -10.507  20.989  66.845  1.00  0.00     0.000 HD 
HETATM   35  H1  UNL     1      -9.078  21.063  67.746  1.00  0.00     0.000 HD 
HETATM   36  O   UNL     1     -10.922  17.025  69.932  1.00  0.00    -0.382 OA 
HETATM   37  H   UNL     1     -10.465  17.434  70.658  1.00  0.00     0.000 HD 
ENDBRANCH  26  27
ENDBRANCH  25  26
ENDBRANCH  23  25
ENDBRANCH  22  23
ENDBRANCH  12  22
BRANCH  17  38
HETATM   38  C   UNL     1      -7.447  10.074  64.131  1.00  0.00    -0.132 C  
HETATM   39  C   UNL     1      -6.505  10.242  63.216  1.00  0.00    -0.120 C  
ENDBRANCH  17  38
TORSDOF 6
ENDMDL
MODEL        7
REMARK 921   NORMALIZED FREE ENERGY PREDICTED BY IDOCK:   -7.00 KCAL/MOL
REMARK 922        TOTAL FREE ENERGY PREDICTED BY IDOCK:  -10.69 KCAL/MOL
REMARK 923 INTER-LIGAND FREE ENERGY PREDICTED BY IDOCK:   -9.18 KCAL/MOL
REMARK 924 INTRA-LIGAND FREE ENERGY PREDICTED BY IDOCK:   -1.51 KCAL/MOL
REMARK 927      BINDING AFFINITY PREDICTED BY RF-SCORE:    0.00 PKD
ROOT
HETATM    1  C   UNL     1      -9.320   9.464  66.966  1.00  0.00    -0.185 C  
HETATM    2  C   UNL     1      -9.918   7.554  66.817  1.00  0.00    -0.237 C  
HETATM    3  C   UNL     1      -8.320   6.534  66.386  1.00  0.00    -0.120 C  
HETATM    4  O   UNL     1     -11.054   7.119  66.960  1.00  0.00    -0.345 OA 
HETATM    5  C   UNL     1      -6.851   7.853  66.134  1.00  0.00    -0.058 C  
HETATM    6  C   UNL     1      -7.544   9.495  66.801  1.00  0.00    -0.098 C  
HETATM    7  C   UNL     1      -6.940  10.275  67.984  1.00  0.00    -0.082 C  
HETATM    8  C   UNL     1      -7.974  11.181  68.757  1.00  0.00    -0.144 C  
HETATM    9  C   UNL     1      -9.074  11.856  67.900  1.00  0.00    -0.183 C  
HETATM   10  C   UNL     1      -8.309  12.852  66.995  1.00  0.00    -0.112 C  
HETATM   11  C   UNL     1     -10.067  10.804  67.224  1.00  0.00    -0.233 C  
HETATM   12  C   UNL     1     -10.546  11.427  65.813  1.00  0.00    -0.260 C  
HETATM   13  C   UNL     1     -11.291  10.457  68.087  1.00  0.00    -0.284 C  
HETATM   14  C   UNL     1     -10.410  10.516  64.580  1.00  0.00    -0.275 C  
HETATM   15  O   UNL     1      -8.397   7.383  64.128  1.00  0.00    -0.354 OA 
HETATM   16  C   UNL     1      -8.183   8.357  67.131  1.00  0.00    -0.108 C  
HETATM   17  C   UNL     1      -8.934   9.861  64.149  1.00  0.00    -0.274 C  
HETATM   18  C   UNL     1      -8.832   8.353  65.119  1.00  0.00    -0.031 C  
HETATM   19  H   UNL     1      -8.343   6.585  64.641  1.00  0.00     0.000 HD 
HETATM   20  C   UNL     1      -8.847   8.166  68.803  1.00  0.00    -0.138 C  
HETATM   21  C   UNL     1      -9.114  10.132  62.613  1.00  0.00    -0.305 C  
ENDROOT
BRANCH  12  22
HETATM   22  O   UNL     1     -11.924  11.850  65.860  1.00  0.00    -0.480 OA 
BRANCH  22  23
HETATM   23  C   UNL     1     -12.295  12.839  64.997  1.00  0.00    -0.499 C  
HETATM   24  O   UNL     1     -12.449  12.709  63.790  1.00  0.00    -0.600 OA 
BRANCH  23  25
HETATM   25  C   UNL     1     -12.611  14.109  65.744  1.00  0.00    -0.447 C  
BRANCH  25  26
HETATM   26  S   UNL     1     -11.105  15.067  66.075  1.00  0.00    -0.303 SA 
BRANCH  26  27
HETATM   27  C   UNL     1     -11.084  15.056  67.912  1.00  0.00    -0.307 C  
HETATM   28  C   UNL     1     -12.084  14.046  68.485  1.00  0.00    -0.329 C  
HETATM   29  C   UNL     1     -11.959  13.964  70.006  1.00  0.00    -0.404 C  
HETATM   30  C   UNL     1     -12.144  15.344  70.650  1.00  0.00    -0.369 C  
HETATM   31  N   UNL     1     -11.976  15.253  72.097  1.00  0.00    -0.385 NA 
HETATM   32  C   UNL     1     -11.158  16.364  70.071  1.00  0.00    -0.300 C  
HETATM   33  C   UNL     1     -11.274  16.450  68.547  1.00  0.00    -0.334 C  
HETATM   34  H2  UNL     1     -11.082  14.831  72.350  1.00  0.00     0.000 HD 
HETATM   35  H1  UNL     1     -12.098  16.170  72.524  1.00  0.00     0.000 HD 
HETATM   36  O   UNL     1     -10.307  17.388  68.076  1.00  0.00    -0.326 OA 
HETATM   37  H   UNL     1     -10.425  18.247  68.467  1.00  0.00     0.000 HD 
ENDBRANCH  26  27
ENDBRANCH  25  26
ENDBRANCH  23  25
ENDBRANCH  22  23
ENDBRANCH  12  22
BRANCH  17  38
HETATM   38  C   UNL     1      -7.430  10.006  64.025  1.00  0.00    -0.135 C  
HETATM   39  C   UNL     1      -6.470  10.213  63.135  1.00  0.00    -0.138 C  
ENDBRANCH  17  38
TORSDOF 6
ENDMDL
MODEL        8
REMARK 921   NORMALIZED FREE ENERGY PREDICTED BY IDOCK:   -6.89 KCAL/MOL
REMARK 922        TOTAL FREE ENERGY PREDICTED BY IDOCK:  -10.54 KCAL/MOL
REMARK 923 INTER-LIGAND FREE ENERGY PREDICTED BY IDOCK:   -8.79 KCAL/MOL
REMARK 924 INTRA-LIGAND FREE ENERGY PREDICTED BY IDOCK:   -1.75 KCAL/MOL
REMARK 927      BINDING AFFINITY PREDICTED BY RF-SCORE:    0.00 PKD
ROOT
HETATM    1  C   UNL     1      -9.591  12.931  67.563  1.00  0.00    -0.200 C  
HETATM    2  C   UNL     1      -8.493  14.487  66.928  1.00  0.00    -0.150 C  
HETATM    3  C   UNL     1      -9.765  15.780  66.229  1.00  0.00    -0.328 C  
HETATM    4  O   UNL     1      -7.274  14.598  66.964  1.00  0.00    -0.105 OA 
HETATM    5  C   UNL     1     -11.558  14.920  66.314  1.00  0.00    -0.233 C  
HETATM    6  C   UNL     1     -11.311  13.372  67.393  1.00  0.00    -0.338 C  
HETATM    7  C   UNL     1     -12.032  13.124  68.732  1.00  0.00    -0.316 C  
HETATM    8  C   UNL     1     -11.244  12.185  69.725  1.00  0.00    -0.072 C  
HETATM    9  C   UNL     1     -10.436  11.029  69.086  1.00  0.00    -0.238 C  
HETATM   10  C   UNL     1     -11.507  10.099  68.463  1.00  0.00    -0.098 C  
HETATM   11  C   UNL     1      -9.234  11.544  68.170  1.00  0.00    -0.181 C  
HETATM   12  C   UNL     1      -9.042  10.474  66.974  1.00  0.00    -0.143 C  
HETATM   13  C   UNL     1      -7.908  11.731  68.925  1.00  0.00    -0.013 C  
HETATM   14  C   UNL     1      -8.997  11.044  65.545  1.00  0.00    -0.208 C  
HETATM   15  O   UNL     1     -10.077  14.403  64.272  1.00  0.00    -0.532 OA 
HETATM   16  C   UNL     1     -10.359  14.323  67.422  1.00  0.00    -0.259 C  
HETATM   17  C   UNL     1     -10.256  11.965  64.943  1.00  0.00    -0.310 C  
HETATM   18  C   UNL     1      -9.868  13.632  65.486  1.00  0.00    -0.152 C  
HETATM   19  H   UNL     1      -9.872  15.286  64.559  1.00  0.00     0.000 HD 
HETATM   20  C   UNL     1      -9.561  14.731  68.993  1.00  0.00    -0.178 C  
HETATM   21  C   UNL     1     -10.260  11.275  63.533  1.00  0.00    -0.456 C  
ENDROOT
BRANCH  12  22
HETATM   22  O   UNL     1      -7.837   9.700  67.144  1.00  0.00    -0.092 OA 
BRANCH  22  23
HETATM   23  C   UNL     1      -7.853   8.423  66.662  1.00  0.00    -0.093 C  
HETATM   24  O   UNL     1      -7.005   7.930  65.929  1.00  0.00    -0.056 OA 
BRANCH  23  25
HETATM   25  C   UNL     1      -9.003   7.645  67.247  1.00  0.00    -0.127 C  
BRANCH  25  26
HETATM   26  S   UNL     1      -8.544   6.893  68.835  1.00  0.00    -0.131 SA 
BRANCH  26  27
HETATM   27  C   UNL     1      -9.861   7.563  69.927  1.00  0.00    -0.187 C  
HETATM   28  C   UNL     1      -9.299   8.025  71.276  1.00  0.00    -0.182 C  
HETATM   29  C   UNL     1     -10.388   8.692  72.116  1.00  0.00    -0.403 C  
HETATM   30  C   UNL     1     -11.584   7.753  72.314  1.00  0.00    -0.338 C  
HETATM   31  N   UNL     1     -12.631   8.423  73.079  1.00  0.00    -0.620 NA 
HETATM   32  C   UNL     1     -12.143   7.274  70.970  1.00  0.00    -0.361 C  
HETATM   33  C   UNL     1     -11.057   6.607  70.121  1.00  0.00    -0.329 C  
HETATM   34  H2  UNL     1     -12.908   9.308  72.652  1.00  0.00     0.000 HD 
HETATM   35  H1  UNL     1     -13.427   7.799  73.210  1.00  0.00     0.000 HD 
HETATM   36  O   UNL     1     -11.638   6.218  68.876  1.00  0.00    -0.507 OA 
HETATM   37  H   UNL     1     -12.375   5.630  68.995  1.00  0.00     0.000 HD 
ENDBRANCH  26  27
ENDBRANCH  25  26
ENDBRANCH  23  25
ENDBRANCH  22  23
ENDBRANCH  12  22
BRANCH  17  38
HETATM   38  C   UNL     1     -11.746  12.232  64.846  1.00  0.00    -0.409 C  
HETATM   39  C   UNL     1     -12.772  12.132  64.015  1.00  0.00    -0.452 C  
ENDBRANCH  17  38
TORSDOF 6
ENDMDL
MODEL        9
REMARK 921   NORMALIZED FREE ENERGY PREDICTED BY IDOCK:   -6.81 KCAL/MOL
REMARK 922        TOTAL FREE ENERGY PREDICTED BY IDOCK:  -10.43 KCAL/MOL
REMARK 923 INTER-LIGAND FREE ENERGY PREDICTED BY IDOCK:   -8.75 KCAL/MOL
REMARK 924 INTRA-LIGAND FREE ENERGY PREDICTED BY IDOCK:   -1.68 KCAL/MOL
REMARK 927      BINDING AFFINITY PREDICTED BY RF-SCORE:    0.00 PKD
ROOT
HETATM    1  C   UNL     1      -9.074   7.941  70.582  1.00  0.00    -0.153 C  
HETATM    2  C   UNL     1      -8.249   8.094  72.405  1.00  0.00    -0.151 C  
HETATM    3  C   UNL     1      -8.902   6.562  73.409  1.00  0.00    -0.134 C  
HETATM    4  O   UNL     1      -7.497   8.972  72.808  1.00  0.00    -0.331 OA 
HETATM    5  C   UNL     1     -10.208   5.625  72.236  1.00  0.00    -0.241 C  
HETATM    6  C   UNL     1      -9.965   6.396  70.514  1.00  0.00    -0.214 C  
HETATM    7  C   UNL     1      -9.520   5.611  69.266  1.00  0.00    -0.167 C  
HETATM    8  C   UNL     1      -8.776   6.484  68.183  1.00  0.00    -0.117 C  
HETATM    9  C   UNL     1      -9.276   7.940  68.011  1.00  0.00    -0.134 C  
HETATM   10  C   UNL     1     -10.713   7.798  67.452  1.00  0.00    -0.300 C  
HETATM   11  C   UNL     1      -9.038   8.836  69.310  1.00  0.00    -0.145 C  
HETATM   12  C   UNL     1     -10.239   9.914  69.384  1.00  0.00    -0.216 C  
HETATM   13  C   UNL     1      -7.682   9.560  69.330  1.00  0.00    -0.094 C  
HETATM   14  C   UNL     1     -10.988  10.016  70.725  1.00  0.00    -0.375 C  
HETATM   15  O   UNL     1     -11.058   7.627  73.616  1.00  0.00    -0.522 OA 
HETATM   16  C   UNL     1      -9.007   6.596  71.438  1.00  0.00    -0.139 C  
HETATM   17  C   UNL     1     -11.724   8.679  71.407  1.00  0.00    -0.355 C  
HETATM   18  C   UNL     1     -10.407   7.895  72.344  1.00  0.00    -0.270 C  
HETATM   19  H   UNL     1     -10.362   7.212  74.112  1.00  0.00     0.000 HD 
HETATM   20  C   UNL     1      -7.270   6.562  70.936  1.00  0.00    -0.071 C  
HETATM   21  C   UNL     1     -13.024   9.448  71.832  1.00  0.00    -0.502 C  
ENDROOT
BRANCH  12  22
HETATM   22  O   UNL     1      -9.778  11.243  69.069  1.00  0.00    -0.160 OA 
BRANCH  22  23
HETATM   23  C   UNL     1     -10.725  12.149  68.688  1.00  0.00    -0.233 C  
HETATM   24  O   UNL     1     -10.937  13.226  69.230  1.00  0.00    -0.196 OA 
BRANCH  23  25
HETATM   25  C   UNL     1     -11.412  11.705  67.424  1.00  0.00    -0.285 C  
BRANCH  25  26
HETATM   26  S   UNL     1     -10.809  12.636  65.987  1.00  0.00    -0.285 SA 
BRANCH  26  27
HETATM   27  C   UNL     1     -10.232  11.268  64.905  1.00  0.00    -0.286 C  
HETATM   28  C   UNL     1      -8.963  10.606  65.453  1.00  0.00    -0.208 C  
HETATM   29  C   UNL     1      -8.576   9.394  64.606  1.00  0.00    -0.209 C  
HETATM   30  C   UNL     1      -8.398   9.784  63.134  1.00  0.00    -0.166 C  
HETATM   31  N   UNL     1      -8.074   8.606  62.335  1.00  0.00    -0.157 NA 
HETATM   32  C   UNL     1      -9.657  10.460  62.582  1.00  0.00    -0.274 C  
HETATM   33  C   UNL     1     -10.055  11.674  63.426  1.00  0.00    -0.440 C  
HETATM   34  H2  UNL     1      -8.765   7.865  62.452  1.00  0.00     0.000 HD 
HETATM   35  H1  UNL     1      -7.956   8.866  61.356  1.00  0.00     0.000 HD 
HETATM   36  O   UNL     1     -11.249  12.231  62.877  1.00  0.00    -0.611 OA 
HETATM   37  H   UNL     1     -11.139  12.481  61.967  1.00  0.00     0.000 HD 
ENDBRANCH  26  27
ENDBRANCH  25  26
ENDBRANCH  23  25
ENDBRANCH  22  23
ENDBRANCH  12  22
BRANCH  17  38
HETATM   38  C   UNL     1     -12.508   7.393  71.234  1.00  0.00    -0.381 C  
HETATM   39  C   UNL     1     -13.705   6.865  71.441  1.00  0.00    -0.228 C  
ENDBRANCH  17  38
TORSDOF 6
ENDMDL
MODEL       10
REMARK 921   NORMALIZED FREE ENERGY PREDICTED BY IDOCK:   -6.71 KCAL/MOL
REMARK 922        TOTAL FREE ENERGY PREDICTED BY IDOCK:  -10.30 KCAL/MOL
REMARK 923 INTER-LIGAND FREE ENERGY PREDICTED BY IDOCK:   -8.91 KCAL/MOL
REMARK 924 INTRA-LIGAND FREE ENERGY PREDICTED BY IDOCK:   -1.39 KCAL/MOL
REMARK 927      BINDING AFFINITY PREDICTED BY RF-SCORE:    0.00 PKD
ROOT
HETATM    1  C   UNL     1      -9.369   9.272  67.181  1.00  0.00    -0.166 C  
HETATM    2  C   UNL     1     -10.063   7.408  66.917  1.00  0.00    -0.257 C  
HETATM    3  C   UNL     1      -8.513   6.330  66.451  1.00  0.00    -0.125 C  
HETATM    4  O   UNL     1     -11.222   7.026  67.019  1.00  0.00    -0.328 OA 
HETATM    5  C   UNL     1      -6.974   7.581  66.294  1.00  0.00    -0.066 C  
HETATM    6  C   UNL     1      -7.591   9.218  67.042  1.00  0.00    -0.091 C  
HETATM    7  C   UNL     1      -6.967   9.899  68.275  1.00  0.00    -0.072 C  
HETATM    8  C   UNL     1      -7.966  10.814  69.083  1.00  0.00    -0.135 C  
HETATM    9  C   UNL     1      -9.014  11.592  68.251  1.00  0.00    -0.185 C  
HETATM   10  C   UNL     1      -8.184  12.596  67.413  1.00  0.00    -0.184 C  
HETATM   11  C   UNL     1     -10.049  10.634  67.504  1.00  0.00    -0.217 C  
HETATM   12  C   UNL     1     -10.472  11.358  66.122  1.00  0.00    -0.255 C  
HETATM   13  C   UNL     1     -11.304  10.304  68.329  1.00  0.00    -0.245 C  
HETATM   14  C   UNL     1     -10.363  10.510  64.842  1.00  0.00    -0.307 C  
HETATM   15  O   UNL     1      -8.509   7.305  64.244  1.00  0.00    -0.360 OA 
HETATM   16  C   UNL     1      -8.294   8.099  67.299  1.00  0.00    -0.121 C  
HETATM   17  C   UNL     1      -8.916   9.803  64.396  1.00  0.00    -0.284 C  
HETATM   18  C   UNL     1      -8.908   8.241  65.281  1.00  0.00    -0.031 C  
HETATM   19  H   UNL     1      -8.504   6.479  64.712  1.00  0.00     0.000 HD 
HETATM   20  C   UNL     1      -8.994   7.851  68.948  1.00  0.00    -0.141 C  
HETATM   21  C   UNL     1      -9.056  10.168  62.875  1.00  0.00    -0.299 C  
ENDROOT
BRANCH  12  22
HETATM   22  O   UNL     1     -11.827  11.849  66.175  1.00  0.00    -0.528 OA 
BRANCH  22  23
HETATM   23  C   UNL     1     -12.170  12.808  65.266  1.00  0.00    -0.483 C  
HETATM   24  O   UNL     1     -13.118  12.750  64.495  1.00  0.00    -0.743 OA 
BRANCH  23  25
HETATM   25  C   UNL     1     -11.289  14.022  65.412  1.00  0.00    -0.315 C  
BRANCH  25  26
HETATM   26  S   UNL     1     -11.596  14.869  66.988  1.00  0.00    -0.248 SA 
BRANCH  26  27
HETATM   27  C   UNL     1     -10.040  15.827  67.175  1.00  0.00    -0.251 C  
HETATM   28  C   UNL     1      -9.522  15.793  68.618  1.00  0.00    -0.208 C  
HETATM   29  C   UNL     1      -8.165  16.489  68.722  1.00  0.00    -0.248 C  
HETATM   30  C   UNL     1      -8.242  17.929  68.201  1.00  0.00    -0.269 C  
HETATM   31  N   UNL     1      -6.927  18.560  68.266  1.00  0.00    -0.242 NA 
HETATM   32  C   UNL     1      -8.773  17.973  66.765  1.00  0.00    -0.269 C  
HETATM   33  C   UNL     1     -10.132  17.276  66.651  1.00  0.00    -0.302 C  
HETATM   34  H2  UNL     1      -6.218  18.015  67.776  1.00  0.00     0.000 HD 
HETATM   35  H1  UNL     1      -6.978  19.518  67.920  1.00  0.00     0.000 HD 
HETATM   36  O   UNL     1     -10.547  17.325  65.286  1.00  0.00    -0.667 OA 
HETATM   37  H   UNL     1     -10.604  18.217  64.963  1.00  0.00     0.000 HD 
ENDBRANCH  26  27
ENDBRANCH  25  26
ENDBRANCH  23  25
ENDBRANCH  22  23
ENDBRANCH  12  22
BRANCH  17  38
HETATM   38  C   UNL     1      -7.404   9.876  64.301  1.00  0.00    -0.133 C  
HETATM   39  C   UNL     1      -6.419  10.033  63.430  1.00  0.00    -0.136 C  
ENDBRANCH  17  38
TORSDOF 6
ENDMDL
MODEL       11
REMARK 921   NORMALIZED FREE ENERGY PREDICTED BY IDOCK:   -6.62 KCAL/MOL
REMARK 922        TOTAL FREE ENERGY PREDICTED BY IDOCK:  -10.17 KCAL/MOL
REMARK 923 INTER-LIGAND FREE ENERGY PREDICTED BY IDOCK:   -8.92 KCAL/MOL
REMARK 924 INTRA-LIGAND FREE ENERGY PREDICTED BY IDOCK:   -1.26 KCAL/MOL
REMARK 927      BINDING AFFINITY PREDICTED BY RF-SCORE:    0.00 PKD
ROOT
HETATM    1  C   UNL     1      -9.747   7.295  71.071  1.00  0.00    -0.169 C  
HETATM    2  C   UNL     1     -11.239   6.171  71.805  1.00  0.00    -0.284 C  
HETATM    3  C   UNL     1     -10.401   4.541  72.455  1.00  0.00    -0.256 C  
HETATM    4  O   UNL     1     -12.431   6.448  71.834  1.00  0.00    -0.337 OA 
HETATM    5  C   UNL     1      -8.476   4.653  71.960  1.00  0.00    -0.119 C  
HETATM    6  C   UNL     1      -8.210   6.458  71.420  1.00  0.00    -0.121 C  
HETATM    7  C   UNL     1      -7.247   7.439  72.115  1.00  0.00    -0.068 C  
HETATM    8  C   UNL     1      -7.646   8.957  71.959  1.00  0.00     0.064 C  
HETATM    9  C   UNL     1      -8.281   9.366  70.607  1.00  0.00    -0.207 C  
HETATM   10  C   UNL     1      -7.152   9.167  69.566  1.00  0.00    -0.059 C  
HETATM   11  C   UNL     1      -9.697   8.673  70.352  1.00  0.00    -0.200 C  
HETATM   12  C   UNL     1      -9.848   8.448  68.759  1.00  0.00    -0.173 C  
HETATM   13  C   UNL     1     -10.892   9.481  70.883  1.00  0.00    -0.407 C  
HETATM   14  C   UNL     1     -10.242   7.033  68.300  1.00  0.00    -0.206 C  
HETATM   15  O   UNL     1     -10.123   3.788  70.178  1.00  0.00    -0.015 OA 
HETATM   16  C   UNL     1      -9.326   6.162  72.113  1.00  0.00    -0.155 C  
HETATM   17  C   UNL     1      -9.322   5.702  68.720  1.00  0.00    -0.145 C  
HETATM   18  C   UNL     1      -9.964   5.225  70.328  1.00  0.00    -0.240 C  
HETATM   19  H   UNL     1     -10.462   3.535  71.029  1.00  0.00     0.000 HD 
HETATM   20  C   UNL     1      -9.928   7.322  73.362  1.00  0.00    -0.343 C  
HETATM   21  C   UNL     1      -9.400   5.037  67.300  1.00  0.00    -0.135 C  
ENDROOT
BRANCH  12  22
HETATM   22  O   UNL     1     -10.816   9.350  68.185  1.00  0.00    -0.203 OA 
BRANCH  22  23
HETATM   23  C   UNL     1     -10.362  10.216  67.233  1.00  0.00    -0.237 C  
HETATM   24  O   UNL     1     -10.296   9.983  66.034  1.00  0.00    -0.231 OA 
BRANCH  23  25
HETATM   25  C   UNL     1     -10.056  11.562  67.838  1.00  0.00    -0.189 C  
BRANCH  25  26
HETATM   26  S   UNL     1     -11.562  12.356  68.467  1.00  0.00    -0.331 SA 
BRANCH  26  27
HETATM   27  C   UNL     1     -11.784  13.702  67.236  1.00  0.00    -0.380 C  
HETATM   28  C   UNL     1     -12.170  13.153  65.858  1.00  0.00    -0.497 C  
HETATM   29  C   UNL     1     -12.470  14.294  64.886  1.00  0.00    -0.403 C  
HETATM   30  C   UNL     1     -11.281  15.255  64.779  1.00  0.00    -0.396 C  
HETATM   31  N   UNL     1     -11.604  16.361  63.883  1.00  0.00    -1.602 NA 
HETATM   32  C   UNL     1     -10.878  15.797  66.154  1.00  0.00    -0.240 C  
HETATM   33  C   UNL     1     -10.578  14.660  67.136  1.00  0.00    -0.282 C  
HETATM   34  H2  UNL     1     -12.458  16.842  64.165  1.00  0.00     0.000 HD 
HETATM   35  H1  UNL     1     -10.813  17.000  63.812  1.00  0.00     0.000 HD 
HETATM   36  O   UNL     1     -10.245  15.235  68.399  1.00  0.00    -0.218 OA 
HETATM   37  H   UNL     1      -9.502  15.825  68.337  1.00  0.00     0.000 HD 
ENDBRANCH  26  27
ENDBRANCH  25  26
ENDBRANCH  23  25
ENDBRANCH  22  23
ENDBRANCH  12  22
BRANCH  17  38
HETATM   38  C   UNL     1      -7.960   5.084  68.965  1.00  0.00    -0.080 C  
HETATM   39  C   UNL     1      -6.841   4.743  68.343  1.00  0.00    -0.055 C  
ENDBRANCH  17  38
TORSDOF 6
ENDMDL
MODEL       12
REMARK 921   NORMALIZED FREE ENERGY PREDICTED BY IDOCK:   -6.57 KCAL/MOL
REMARK 922        TOTAL FREE ENERGY PREDICTED BY IDOCK:  -10.11 KCAL/MOL
REMARK 923 INTER-LIGAND FREE ENERGY PREDICTED BY IDOCK:   -9.08 KCAL/MOL
REMARK 924 INTRA-LIGAND FREE ENERGY PREDICTED BY IDOCK:   -1.03 KCAL/MOL
REMARK 927      BINDING AFFINITY PREDICTED BY RF-SCORE:    0.00 PKD
ROOT
HETATM    1  C   UNL     1      -9.643   6.195  72.095  1.00  0.00    -0.162 C  
HETATM    2  C   UNL     1     -10.584   4.525  72.689  1.00  0.00    -0.179 C  
HETATM    3  C   UNL     1      -9.333   3.072  72.364  1.00  0.00    -0.160 C  
HETATM    4  O   UNL     1     -11.714   4.434  73.153  1.00  0.00    -0.177 OA 
HETATM    5  C   UNL     1      -7.756   3.870  71.449  1.00  0.00    -0.060 C  
HETATM    6  C   UNL     1      -7.977   5.750  71.638  1.00  0.00    -0.117 C  
HETATM    7  C   UNL     1      -6.987   6.671  72.378  1.00  0.00    -0.068 C  
HETATM    8  C   UNL     1      -7.639   7.981  72.967  1.00  0.00    -0.173 C  
HETATM    9  C   UNL     1      -8.772   8.623  72.129  1.00  0.00    -0.217 C  
HETATM   10  C   UNL     1      -8.077   9.102  70.831  1.00  0.00    -0.201 C  
HETATM   11  C   UNL     1     -10.063   7.691  72.014  1.00  0.00    -0.233 C  
HETATM   12  C   UNL     1     -10.741   7.975  70.575  1.00  0.00    -0.229 C  
HETATM   13  C   UNL     1     -11.095   7.911  73.132  1.00  0.00    -0.260 C  
HETATM   14  C   UNL     1     -11.057   6.742  69.709  1.00  0.00    -0.368 C  
HETATM   15  O   UNL     1      -9.783   3.226  69.997  1.00  0.00    -0.147 OA 
HETATM   16  C   UNL     1      -8.710   4.944  72.428  1.00  0.00    -0.126 C  
HETATM   17  C   UNL     1      -9.859   5.658  69.283  1.00  0.00    -0.230 C  
HETATM   18  C   UNL     1      -9.799   4.515  70.668  1.00  0.00    -0.222 C  
HETATM   19  H   UNL     1      -9.752   2.621  70.730  1.00  0.00     0.000 HD 
HETATM   20  C   UNL     1      -8.990   5.408  74.154  1.00  0.00    -0.118 C  
HETATM   21  C   UNL     1     -10.341   5.508  67.796  1.00  0.00    -0.246 C  
ENDROOT
BRANCH  12  22
HETATM   22  O   UNL     1     -11.975   8.711  70.706  1.00  0.00    -0.240 OA 
BRANCH  22  23
HETATM   23  C   UNL     1     -11.947  10.028  70.351  1.00  0.00    -0.236 C  
HETATM   24  O   UNL     1     -12.241  10.967  71.079  1.00  0.00    -0.354 OA 
BRANCH  23  25
HETATM   25  C   UNL     1     -11.387  10.195  68.962  1.00  0.00    -0.133 C  
BRANCH  25  26
HETATM   26  S   UNL     1     -10.724  11.867  68.719  1.00  0.00    -0.207 SA 
BRANCH  26  27
HETATM   27  C   UNL     1     -11.489  12.313  67.109  1.00  0.00    -0.352 C  
HETATM   28  C   UNL     1     -10.717  11.714  65.928  1.00  0.00    -0.328 C  
HETATM   29  C   UNL     1     -11.441  11.992  64.611  1.00  0.00    -0.371 C  
HETATM   30  C   UNL     1     -11.666  13.495  64.412  1.00  0.00    -0.407 C  
HETATM   31  N   UNL     1     -12.398  13.736  63.173  1.00  0.00    -1.106 NA 
HETATM   32  C   UNL     1     -12.424  14.105  65.596  1.00  0.00    -0.490 C  
HETATM   33  C   UNL     1     -11.707  13.829  66.920  1.00  0.00    -0.395 C  
HETATM   34  H2  UNL     1     -13.273  13.213  63.140  1.00  0.00     0.000 HD 
HETATM   35  H1  UNL     1     -12.548  14.736  63.041  1.00  0.00     0.000 HD 
HETATM   36  O   UNL     1     -12.483  14.393  67.977  1.00  0.00    -0.585 OA 
HETATM   37  H   UNL     1     -12.617  15.327  67.860  1.00  0.00     0.000 HD 
ENDBRANCH  26  27
ENDBRANCH  25  26
ENDBRANCH  23  25
ENDBRANCH  22  23
ENDBRANCH  12  22
BRANCH  17  38
HETATM   38  C   UNL     1      -8.423   5.396  68.872  1.00  0.00    -0.099 C  
HETATM   39  C   UNL     1      -7.443   5.891  68.130  1.00  0.00    -0.081 C  
ENDBRANCH  17  38
TORSDOF 6
ENDMDL
MODEL       13
REMARK 921   NORMALIZED FREE ENERGY PREDICTED BY IDOCK:   -6.57 KCAL/MOL
REMARK 922        TOTAL FREE ENERGY PREDICTED BY IDOCK:  -10.11 KCAL/MOL
REMARK 923 INTER-LIGAND FREE ENERGY PREDICTED BY IDOCK:   -8.93 KCAL/MOL
REMARK 924 INTRA-LIGAND FREE ENERGY PREDICTED BY IDOCK:   -1.17 KCAL/MOL
REMARK 927      BINDING AFFINITY PREDICTED BY RF-SCORE:    0.00 PKD
ROOT
HETATM    1  C   UNL     1      -9.226   5.843  70.643  1.00  0.00    -0.167 C  
HETATM    2  C   UNL     1      -8.295   5.082  69.036  1.00  0.00    -0.086 C  
HETATM    3  C   UNL     1      -6.696   4.210  69.716  1.00  0.00    -0.034 C  
HETATM    4  O   UNL     1      -8.653   5.157  67.867  1.00  0.00    -0.104 OA 
HETATM    5  C   UNL     1      -6.621   4.597  71.667  1.00  0.00    -0.027 C  
HETATM    6  C   UNL     1      -8.332   5.312  72.093  1.00  0.00    -0.125 C  
HETATM    7  C   UNL     1      -9.318   4.670  73.088  1.00  0.00    -0.134 C  
HETATM    8  C   UNL     1     -10.832   5.015  72.811  1.00  0.00    -0.305 C  
HETATM    9  C   UNL     1     -11.128   6.439  72.280  1.00  0.00    -0.302 C  
HETATM   10  C   UNL     1     -10.738   7.382  73.445  1.00  0.00    -0.407 C  
HETATM   11  C   UNL     1     -10.508   6.703  70.832  1.00  0.00    -0.249 C  
HETATM   12  C   UNL     1     -10.115   8.268  70.750  1.00  0.00    -0.190 C  
HETATM   13  C   UNL     1     -11.449   6.336  69.673  1.00  0.00    -0.425 C  
HETATM   14  C   UNL     1      -8.687   8.593  70.277  1.00  0.00    -0.151 C  
HETATM   15  O   UNL     1      -5.674   6.370  70.057  1.00  0.00    -0.014 OA 
HETATM   16  C   UNL     1      -8.192   4.660  70.924  1.00  0.00    -0.089 C  
HETATM   17  C   UNL     1      -7.353   7.976  71.073  1.00  0.00    -0.059 C  
HETATM   18  C   UNL     1      -7.105   6.367  70.313  1.00  0.00    -0.078 C  
HETATM   19  H   UNL     1      -5.542   5.519  69.656  1.00  0.00     0.000 HD 
HETATM   20  C   UNL     1      -9.524   3.583  70.344  1.00  0.00    -0.254 C  
HETATM   21  C   UNL     1      -6.539   9.317  71.021  1.00  0.00    -0.091 C  
ENDROOT
BRANCH  12  22
HETATM   22  O   UNL     1     -11.010   8.994  69.883  1.00  0.00    -0.235 OA 
BRANCH  22  23
HETATM   23  C   UNL     1     -11.739   9.998  70.451  1.00  0.00    -0.286 C  
HETATM   24  O   UNL     1     -11.960  10.126  71.648  1.00  0.00    -0.361 OA 
BRANCH  23  25
HETATM   25  C   UNL     1     -12.150  11.012  69.415  1.00  0.00    -0.318 C  
BRANCH  25  26
HETATM   26  S   UNL     1     -10.710  11.643  68.508  1.00  0.00    -0.228 SA 
BRANCH  26  27
HETATM   27  C   UNL     1     -11.500  12.192  66.943  1.00  0.00    -0.351 C  
HETATM   28  C   UNL     1     -10.795  11.607  65.715  1.00  0.00    -0.334 C  
HETATM   29  C   UNL     1     -11.545  11.975  64.434  1.00  0.00    -0.411 C  
HETATM   30  C   UNL     1     -11.700  13.495  64.304  1.00  0.00    -0.416 C  
HETATM   31  N   UNL     1     -12.458  13.823  63.100  1.00  0.00    -1.074 NA 
HETATM   32  C   UNL     1     -12.391  14.090  65.535  1.00  0.00    -0.503 C  
HETATM   33  C   UNL     1     -11.648  13.724  66.823  1.00  0.00    -0.370 C  
HETATM   34  H2  UNL     1     -13.358  13.344  63.074  1.00  0.00     0.000 HD 
HETATM   35  H1  UNL     1     -12.561  14.834  63.014  1.00  0.00     0.000 HD 
HETATM   36  O   UNL     1     -12.363  14.280  67.927  1.00  0.00    -0.589 OA 
HETATM   37  H   UNL     1     -12.454  15.223  67.853  1.00  0.00     0.000 HD 
ENDBRANCH  26  27
ENDBRANCH  25  26
ENDBRANCH  23  25
ENDBRANCH  22  23
ENDBRANCH  12  22
BRANCH  17  38
HETATM   38  C   UNL     1      -6.676   7.584  72.371  1.00  0.00    -0.056 C  
HETATM   39  C   UNL     1      -6.484   7.997  73.615  1.00  0.00    -0.110 C  
ENDBRANCH  17  38
TORSDOF 6
ENDMDL
MODEL       14
REMARK 921   NORMALIZED FREE ENERGY PREDICTED BY IDOCK:   -6.45 KCAL/MOL
REMARK 922        TOTAL FREE ENERGY PREDICTED BY IDOCK:   -9.95 KCAL/MOL
REMARK 923 INTER-LIGAND FREE ENERGY PREDICTED BY IDOCK:   -7.99 KCAL/MOL
REMARK 924 INTRA-LIGAND FREE ENERGY PREDICTED BY IDOCK:   -1.96 KCAL/MOL
REMARK 927      BINDING AFFINITY PREDICTED BY RF-SCORE:    0.00 PKD
ROOT
HETATM    1  C   UNL     1     -10.415  12.018  66.921  1.00  0.00    -0.251 C  
HETATM    2  C   UNL     1     -11.817  12.700  65.657  1.00  0.00    -0.437 C  
HETATM    3  C   UNL     1     -11.140  14.394  64.983  1.00  0.00    -0.385 C  
HETATM    4  O   UNL     1     -12.882  12.167  65.373  1.00  0.00    -0.237 OA 
HETATM    5  C   UNL     1      -9.446  14.762  65.961  1.00  0.00    -0.299 C  
HETATM    6  C   UNL     1      -9.021  13.129  66.841  1.00  0.00    -0.213 C  
HETATM    7  C   UNL     1      -7.739  12.313  66.584  1.00  0.00     0.178 C  
HETATM    8  C   UNL     1      -7.883  10.771  66.883  1.00  0.00    -0.130 C  
HETATM    9  C   UNL     1      -8.790  10.383  68.077  1.00  0.00    -0.130 C  
HETATM   10  C   UNL     1      -8.056  10.937  69.323  1.00  0.00    -0.062 C  
HETATM   11  C   UNL     1     -10.321  10.771  67.846  1.00  0.00    -0.216 C  
HETATM   12  C   UNL     1     -10.953  11.131  69.289  1.00  0.00    -0.247 C  
HETATM   13  C   UNL     1     -11.151   9.668  67.170  1.00  0.00     0.109 C  
HETATM   14  C   UNL     1     -11.711  12.466  69.393  1.00  0.00    -0.384 C  
HETATM   15  O   UNL     1     -11.658  15.433  67.098  1.00  0.00    -0.220 OA 
HETATM   16  C   UNL     1      -9.930  13.096  65.849  1.00  0.00    -0.275 C  
HETATM   17  C   UNL     1     -10.968  13.913  69.007  1.00  0.00    -0.281 C  
HETATM   18  C   UNL     1     -11.205  14.059  67.232  1.00  0.00    -0.312 C  
HETATM   19  H   UNL     1     -11.783  15.511  66.160  1.00  0.00     0.000 HD 
HETATM   20  C   UNL     1      -9.934  11.702  64.696  1.00  0.00    -0.291 C  
HETATM   21  C   UNL     1     -11.562  14.695  70.231  1.00  0.00    -0.335 C  
ENDROOT
BRANCH  12  22
HETATM   22  O   UNL     1     -11.864  10.106  69.739  1.00  0.00    -0.191 OA 
BRANCH  22  23
HETATM   23  C   UNL     1     -11.821   9.784  71.064  1.00  0.00    -0.356 C  
HETATM   24  O   UNL     1     -12.759   9.868  71.847  1.00  0.00    -0.394 OA 
BRANCH  23  25
HETATM   25  C   UNL     1     -10.486   9.188  71.426  1.00  0.00    -0.344 C  
BRANCH  25  26
HETATM   26  S   UNL     1     -10.525   7.376  71.319  1.00  0.00    -0.207 SA 
BRANCH  26  27
HETATM   27  C   UNL     1     -10.106   7.126  69.548  1.00  0.00    -0.179 C  
HETATM   28  C   UNL     1     -11.098   6.184  68.857  1.00  0.00    -0.417 C  
HETATM   29  C   UNL     1     -10.804   6.091  67.360  1.00  0.00    -0.394 C  
HETATM   30  C   UNL     1      -9.359   5.643  67.109  1.00  0.00    -0.115 C  
HETATM   31  N   UNL     1      -9.085   5.605  65.676  1.00  0.00    -0.269 NA 
HETATM   32  C   UNL     1      -8.360   6.571  67.809  1.00  0.00    -0.119 C  
HETATM   33  C   UNL     1      -8.650   6.672  69.309  1.00  0.00    -0.131 C  
HETATM   34  H2  UNL     1      -9.291   6.496  65.225  1.00  0.00     0.000 HD 
HETATM   35  H1  UNL     1      -8.124   5.308  65.509  1.00  0.00     0.000 HD 
HETATM   36  O   UNL     1      -7.707   7.575  69.887  1.00  0.00    -0.094 OA 
HETATM   37  H   UNL     1      -6.811   7.295  69.740  1.00  0.00     0.000 HD 
ENDBRANCH  26  27
ENDBRANCH  25  26
ENDBRANCH  23  25
ENDBRANCH  22  23
ENDBRANCH  12  22
BRANCH  17  38
HETATM   38  C   UNL     1      -9.727  14.784  69.018  1.00  0.00    -0.190 C  
HETATM   39  C   UNL     1      -9.260  15.929  69.493  1.00  0.00    -0.175 C  
ENDBRANCH  17  38
TORSDOF 6
ENDMDL
MODEL       15
REMARK 921   NORMALIZED FREE ENERGY PREDICTED BY IDOCK:   -6.44 KCAL/MOL
REMARK 922        TOTAL FREE ENERGY PREDICTED BY IDOCK:   -9.94 KCAL/MOL
REMARK 923 INTER-LIGAND FREE ENERGY PREDICTED BY IDOCK:   -8.44 KCAL/MOL
REMARK 924 INTRA-LIGAND FREE ENERGY PREDICTED BY IDOCK:   -1.50 KCAL/MOL
REMARK 927      BINDING AFFINITY PREDICTED BY RF-SCORE:    0.00 PKD
ROOT
HETATM    1  C   UNL     1      -9.760   6.097  71.305  1.00  0.00    -0.196 C  
HETATM    2  C   UNL     1      -9.330   4.136  71.277  1.00  0.00    -0.151 C  
HETATM    3  C   UNL     1      -8.309   3.797  72.896  1.00  0.00    -0.094 C  
HETATM    4  O   UNL     1      -9.639   3.322  70.416  1.00  0.00    -0.177 OA 
HETATM    5  C   UNL     1      -8.016   5.562  73.767  1.00  0.00    -0.108 C  
HETATM    6  C   UNL     1      -9.184   6.759  72.859  1.00  0.00    -0.150 C  
HETATM    7  C   UNL     1     -10.332   7.533  73.535  1.00  0.00    -0.373 C  
HETATM    8  C   UNL     1     -11.515   7.913  72.564  1.00  0.00    -0.455 C  
HETATM    9  C   UNL     1     -11.124   8.277  71.111  1.00  0.00    -0.289 C  
HETATM   10  C   UNL     1     -10.311   9.589  71.240  1.00  0.00    -0.287 C  
HETATM   11  C   UNL     1     -10.486   7.050  70.313  1.00  0.00    -0.227 C  
HETATM   12  C   UNL     1      -9.409   7.654  69.271  1.00  0.00    -0.148 C  
HETATM   13  C   UNL     1     -11.516   6.189  69.564  1.00  0.00    -0.299 C  
HETATM   14  C   UNL     1      -8.007   7.021  69.290  1.00  0.00    -0.119 C  
HETATM   15  O   UNL     1      -6.388   4.865  71.898  1.00  0.00    -0.028 OA 
HETATM   16  C   UNL     1      -9.392   5.438  72.711  1.00  0.00    -0.148 C  
HETATM   17  C   UNL     1      -7.097   6.980  70.692  1.00  0.00    -0.067 C  
HETATM   18  C   UNL     1      -7.647   5.482  71.518  1.00  0.00    -0.104 C  
HETATM   19  H   UNL     1      -6.679   4.073  72.335  1.00  0.00     0.000 HD 
HETATM   20  C   UNL     1     -11.086   4.806  72.668  1.00  0.00    -0.186 C  
HETATM   21  C   UNL     1      -5.752   7.376  69.987  1.00  0.00    -0.024 C  
ENDROOT
BRANCH  12  22
HETATM   22  O   UNL     1      -9.881   7.566  67.911  1.00  0.00    -0.145 OA 
BRANCH  22  23
HETATM   23  C   UNL     1      -9.718   8.672  67.130  1.00  0.00    -0.190 C  
HETATM   24  O   UNL     1      -9.019   8.738  66.127  1.00  0.00    -0.160 OA 
BRANCH  23  25
HETATM   25  C   UNL     1     -10.612   9.792  67.595  1.00  0.00    -0.276 C  
BRANCH  25  26
HETATM   26  S   UNL     1      -9.652  11.289  67.962  1.00  0.00    -0.186 SA 
BRANCH  26  27
HETATM   27  C   UNL     1     -10.294  12.434  66.678  1.00  0.00    -0.226 C  
HETATM   28  C   UNL     1     -11.706  12.929  67.011  1.00  0.00    -0.447 C  
HETATM   29  C   UNL     1     -12.167  13.975  65.997  1.00  0.00    -0.484 C  
HETATM   30  C   UNL     1     -12.105  13.422  64.568  1.00  0.00    -0.409 C  
HETATM   31  N   UNL     1     -12.504  14.449  63.611  1.00  0.00    -1.086 NA 
HETATM   32  C   UNL     1     -10.700  12.911  64.231  1.00  0.00    -0.430 C  
HETATM   33  C   UNL     1     -10.228  11.865  65.244  1.00  0.00    -0.272 C  
HETATM   34  H2  UNL     1     -11.953  15.301  63.715  1.00  0.00     0.000 HD 
HETATM   35  H1  UNL     1     -12.463  14.082  62.661  1.00  0.00     0.000 HD 
HETATM   36  O   UNL     1      -8.906  11.461  64.890  1.00  0.00    -0.388 OA 
HETATM   37  H   UNL     1      -8.866  11.110  64.007  1.00  0.00     0.000 HD 
ENDBRANCH  26  27
ENDBRANCH  25  26
ENDBRANCH  23  25
ENDBRANCH  22  23
ENDBRANCH  12  22
BRANCH  17  38
HETATM   38  C   UNL     1      -6.652   7.649  71.977  1.00  0.00    -0.054 C  
HETATM   39  C   UNL     1      -5.742   8.483  72.459  1.00  0.00    -0.061 C  
ENDBRANCH  17  38
TORSDOF 6
ENDMDL
MODEL       16
REMARK 921   NORMALIZED FREE ENERGY PREDICTED BY IDOCK:   -6.43 KCAL/MOL
REMARK 922        TOTAL FREE ENERGY PREDICTED BY IDOCK:   -9.92 KCAL/MOL
REMARK 923 INTER-LIGAND FREE ENERGY PREDICTED BY IDOCK:   -8.88 KCAL/MOL
REMARK 924 INTRA-LIGAND FREE ENERGY PREDICTED BY IDOCK:   -1.04 KCAL/MOL
REMARK 927      BINDING AFFINITY PREDICTED BY RF-SCORE:    0.00 PKD
ROOT
HETATM    1  C   UNL     1      -9.715   8.304  69.945  1.00  0.00    -0.180 C  
HETATM    2  C   UNL     1     -11.151   7.334  70.958  1.00  0.00    -0.258 C  
HETATM    3  C   UNL     1     -10.328   5.692  71.597  1.00  0.00    -0.270 C  
HETATM    4  O   UNL     1     -12.308   7.695  71.134  1.00  0.00    -0.312 OA 
HETATM    5  C   UNL     1      -8.492   5.638  70.830  1.00  0.00    -0.125 C  
HETATM    6  C   UNL     1      -8.198   7.384  70.133  1.00  0.00    -0.133 C  
HETATM    7  C   UNL     1      -7.087   8.335  70.615  1.00  0.00    -0.042 C  
HETATM    8  C   UNL     1      -7.411   9.865  70.409  1.00  0.00    -0.139 C  
HETATM    9  C   UNL     1      -8.209  10.235  69.135  1.00  0.00    -0.152 C  
HETATM   10  C   UNL     1      -7.257   9.894  67.963  1.00  0.00    -0.083 C  
HETATM   11  C   UNL     1      -9.686   9.629  69.130  1.00  0.00    -0.180 C  
HETATM   12  C   UNL     1     -10.079   9.318  67.594  1.00  0.00    -0.214 C  
HETATM   13  C   UNL     1     -10.741  10.549  69.766  1.00  0.00    -0.314 C  
HETATM   14  C   UNL     1     -10.621   7.908  67.296  1.00  0.00    -0.365 C  
HETATM   15  O   UNL     1     -10.429   4.784  69.363  1.00  0.00    -0.103 OA 
HETATM   16  C   UNL     1      -9.218   7.209  70.994  1.00  0.00    -0.158 C  
HETATM   17  C   UNL     1      -9.733   6.544  67.676  1.00  0.00    -0.137 C  
HETATM   18  C   UNL     1     -10.163   6.212  69.388  1.00  0.00    -0.197 C  
HETATM   19  H   UNL     1     -10.656   4.608  70.268  1.00  0.00     0.000 HD 
HETATM   20  C   UNL     1      -9.562   8.484  72.231  1.00  0.00    -0.377 C  
HETATM   21  C   UNL     1     -10.055   5.801  66.331  1.00  0.00    -0.182 C  
ENDROOT
BRANCH  12  22
HETATM   22  O   UNL     1     -11.063  10.249  67.100  1.00  0.00    -0.231 OA 
BRANCH  22  23
HETATM   23  C   UNL     1     -10.717  10.989  66.007  1.00  0.00    -0.177 C  
HETATM   24  O   UNL     1     -10.001  10.610  65.089  1.00  0.00    -0.261 OA 
BRANCH  23  25
HETATM   25  C   UNL     1     -11.431  12.316  66.013  1.00  0.00    -0.381 C  
BRANCH  25  26
HETATM   26  S   UNL     1     -10.984  13.307  64.558  1.00  0.00    -0.400 SA 
BRANCH  26  27
HETATM   27  C   UNL     1     -10.342  14.829  65.361  1.00  0.00    -0.386 C  
HETATM   28  C   UNL     1     -10.061  14.610  66.852  1.00  0.00    -0.255 C  
HETATM   29  C   UNL     1      -9.411  15.849  67.468  1.00  0.00    -0.219 C  
HETATM   30  C   UNL     1     -10.282  17.092  67.253  1.00  0.00    -0.316 C  
HETATM   31  N   UNL     1      -9.623  18.271  67.807  1.00  0.00    -0.277 NA 
HETATM   32  C   UNL     1     -10.581  17.311  65.766  1.00  0.00    -0.198 C  
HETATM   33  C   UNL     1     -11.229  16.073  65.140  1.00  0.00    -0.189 C  
HETATM   34  H2  UNL     1      -8.683  18.395  67.431  1.00  0.00     0.000 HD 
HETATM   35  H1  UNL     1     -10.202  19.098  67.664  1.00  0.00     0.000 HD 
HETATM   36  O   UNL     1     -11.447  16.334  63.753  1.00  0.00    -1.475 OA 
HETATM   37  H   UNL     1     -11.993  17.100  63.617  1.00  0.00     0.000 HD 
ENDBRANCH  26  27
ENDBRANCH  25  26
ENDBRANCH  23  25
ENDBRANCH  22  23
ENDBRANCH  12  22
BRANCH  17  38
HETATM   38  C   UNL     1      -8.389   5.848  67.770  1.00  0.00    -0.108 C  
HETATM   39  C   UNL     1      -7.577   5.050  67.093  1.00  0.00    -0.088 C  
ENDBRANCH  17  38
TORSDOF 6
ENDMDL
MODEL       17
REMARK 921   NORMALIZED FREE ENERGY PREDICTED BY IDOCK:   -6.40 KCAL/MOL
REMARK 922        TOTAL FREE ENERGY PREDICTED BY IDOCK:   -9.88 KCAL/MOL
REMARK 923 INTER-LIGAND FREE ENERGY PREDICTED BY IDOCK:   -8.49 KCAL/MOL
REMARK 924 INTRA-LIGAND FREE ENERGY PREDICTED BY IDOCK:   -1.39 KCAL/MOL
REMARK 927      BINDING AFFINITY PREDICTED BY RF-SCORE:    0.00 PKD
ROOT
HETATM    1  C   UNL     1      -9.134   6.616  70.067  1.00  0.00    -0.151 C  
HETATM    2  C   UNL     1      -7.898   5.187  69.390  1.00  0.00    -0.080 C  
HETATM    3  C   UNL     1      -7.526   4.044  70.918  1.00  0.00    -0.044 C  
HETATM    4  O   UNL     1      -7.461   5.062  68.253  1.00  0.00    -0.073 OA 
HETATM    5  C   UNL     1      -8.406   4.889  72.491  1.00  0.00    -0.119 C  
HETATM    6  C   UNL     1      -9.547   6.224  71.758  1.00  0.00    -0.165 C  
HETATM    7  C   UNL     1     -11.078   6.242  71.922  1.00  0.00    -0.315 C  
HETATM    8  C   UNL     1     -11.844   6.988  70.762  1.00  0.00    -0.401 C  
HETATM    9  C   UNL     1     -11.142   8.232  70.162  1.00  0.00    -0.189 C  
HETATM   10  C   UNL     1     -11.117   9.263  71.317  1.00  0.00    -0.427 C  
HETATM   11  C   UNL     1      -9.776   7.875  69.417  1.00  0.00    -0.170 C  
HETATM   12  C   UNL     1      -8.780   9.134  69.597  1.00  0.00    -0.145 C  
HETATM   13  C   UNL     1      -9.946   7.550  67.924  1.00  0.00    -0.203 C  
HETATM   14  C   UNL     1      -7.366   8.821  70.117  1.00  0.00    -0.055 C  
HETATM   15  O   UNL     1      -6.069   5.742  71.822  1.00  0.00    -0.036 OA 
HETATM   16  C   UNL     1      -9.069   5.276  70.931  1.00  0.00    -0.168 C  
HETATM   17  C   UNL     1      -7.136   8.028  71.571  1.00  0.00    -0.069 C  
HETATM   18  C   UNL     1      -7.224   6.289  71.131  1.00  0.00    -0.079 C  
HETATM   19  H   UNL     1      -6.115   4.822  71.590  1.00  0.00     0.000 HD 
HETATM   20  C   UNL     1     -10.146   4.596  69.647  1.00  0.00    -0.232 C  
HETATM   21  C   UNL     1      -5.956   8.952  72.038  1.00  0.00    -0.076 C  
ENDROOT
BRANCH  12  22
HETATM   22  O   UNL     1      -8.612   9.859  68.362  1.00  0.00    -0.113 OA 
BRANCH  22  23
HETATM   23  C   UNL     1      -9.091  11.136  68.327  1.00  0.00    -0.162 C  
HETATM   24  O   UNL     1      -8.483  12.134  68.690  1.00  0.00    -0.113 OA 
BRANCH  23  25
HETATM   25  C   UNL     1     -10.444  11.180  67.664  1.00  0.00    -0.196 C  
BRANCH  25  26
HETATM   26  S   UNL     1     -11.560  12.322  68.529  1.00  0.00    -0.328 SA 
BRANCH  26  27
HETATM   27  C   UNL     1     -11.710  13.666  67.285  1.00  0.00    -0.380 C  
HETATM   28  C   UNL     1     -12.257  13.148  65.951  1.00  0.00    -0.497 C  
HETATM   29  C   UNL     1     -12.491  14.302  64.976  1.00  0.00    -0.409 C  
HETATM   30  C   UNL     1     -11.207  15.112  64.763  1.00  0.00    -0.388 C  
HETATM   31  N   UNL     1     -11.462  16.235  63.867  1.00  0.00    -1.539 NA 
HETATM   32  C   UNL     1     -10.644  15.622  66.094  1.00  0.00    -0.325 C  
HETATM   33  C   UNL     1     -10.409  14.472  67.078  1.00  0.00    -0.263 C  
HETATM   34  H2  UNL     1     -12.231  16.819  64.196  1.00  0.00     0.000 HD 
HETATM   35  H1  UNL     1     -10.608  16.774  63.725  1.00  0.00     0.000 HD 
HETATM   36  O   UNL     1      -9.920  15.022  68.301  1.00  0.00    -0.218 OA 
HETATM   37  H   UNL     1      -9.120  15.518  68.173  1.00  0.00     0.000 HD 
ENDBRANCH  26  27
ENDBRANCH  25  26
ENDBRANCH  23  25
ENDBRANCH  22  23
ENDBRANCH  12  22
BRANCH  17  38
HETATM   38  C   UNL     1      -7.558   7.793  73.008  1.00  0.00    -0.138 C  
HETATM   39  C   UNL     1      -7.881   8.437  74.120  1.00  0.00    -0.230 C  
ENDBRANCH  17  38
TORSDOF 6
ENDMDL
MODEL       18
REMARK 921   NORMALIZED FREE ENERGY PREDICTED BY IDOCK:   -6.37 KCAL/MOL
REMARK 922        TOTAL FREE ENERGY PREDICTED BY IDOCK:   -9.84 KCAL/MOL
REMARK 923 INTER-LIGAND FREE ENERGY PREDICTED BY IDOCK:   -8.35 KCAL/MOL
REMARK 924 INTRA-LIGAND FREE ENERGY PREDICTED BY IDOCK:   -1.49 KCAL/MOL
REMARK 927      BINDING AFFINITY PREDICTED BY RF-SCORE:    0.00 PKD
ROOT
HETATM    1  C   UNL     1      -8.984   8.009  70.453  1.00  0.00    -0.146 C  
HETATM    2  C   UNL     1     -10.584   8.957  71.208  1.00  0.00    -0.281 C  
HETATM    3  C   UNL     1     -11.629   7.589  72.112  1.00  0.00    -0.340 C  
HETATM    4  O   UNL     1     -10.854  10.148  71.113  1.00  0.00    -0.173 OA 
HETATM    5  C   UNL     1     -10.729   5.851  71.751  1.00  0.00    -0.299 C  
HETATM    6  C   UNL     1      -9.037   6.317  71.015  1.00  0.00    -0.156 C  
HETATM    7  C   UNL     1      -7.683   5.953  71.653  1.00  0.00    -0.101 C  
HETATM    8  C   UNL     1      -6.508   6.938  71.282  1.00  0.00    -0.042 C  
HETATM    9  C   UNL     1      -6.525   7.521  69.847  1.00  0.00    -0.034 C  
HETATM   10  C   UNL     1      -6.293   6.298  68.925  1.00  0.00    -0.041 C  
HETATM   11  C   UNL     1      -7.783   8.465  69.575  1.00  0.00    -0.096 C  
HETATM   12  C   UNL     1      -8.177   8.313  68.016  1.00  0.00    -0.128 C  
HETATM   13  C   UNL     1      -7.539   9.945  69.913  1.00  0.00    -0.167 C  
HETATM   14  C   UNL     1      -9.653   8.010  67.707  1.00  0.00    -0.179 C  
HETATM   15  O   UNL     1     -12.363   6.747  69.973  1.00  0.00    -0.605 OA 
HETATM   16  C   UNL     1      -9.735   7.274  71.654  1.00  0.00    -0.166 C  
HETATM   17  C   UNL     1     -10.413   6.669  68.353  1.00  0.00    -0.248 C  
HETATM   18  C   UNL     1     -10.994   7.234  69.956  1.00  0.00    -0.253 C  
HETATM   19  H   UNL     1     -12.670   7.046  70.821  1.00  0.00     0.000 HD 
HETATM   20  C   UNL     1      -8.858   8.458  72.704  1.00  0.00    -0.288 C  
HETATM   21  C   UNL     1     -11.155   6.286  67.024  1.00  0.00    -0.379 C  
ENDROOT
BRANCH  12  22
HETATM   22  O   UNL     1      -7.835   9.497  67.265  1.00  0.00    -0.098 OA 
BRANCH  22  23
HETATM   23  C   UNL     1      -7.300   9.307  66.025  1.00  0.00    -0.095 C  
HETATM   24  O   UNL     1      -6.627   8.344  65.681  1.00  0.00    -0.052 OA 
BRANCH  23  25
HETATM   25  C   UNL     1      -7.748  10.390  65.078  1.00  0.00    -0.095 C  
BRANCH  25  26
HETATM   26  S   UNL     1      -9.538  10.307  64.785  1.00  0.00    -0.327 SA 
BRANCH  26  27
HETATM   27  C   UNL     1     -10.119  11.728  65.794  1.00  0.00    -0.237 C  
HETATM   28  C   UNL     1     -10.920  11.266  67.017  1.00  0.00    -0.352 C  
HETATM   29  C   UNL     1     -11.285  12.455  67.906  1.00  0.00    -0.316 C  
HETATM   30  C   UNL     1     -12.057  13.518  67.115  1.00  0.00    -0.340 C  
HETATM   31  N   UNL     1     -12.355  14.664  67.969  1.00  0.00    -0.589 NA 
HETATM   32  C   UNL     1     -11.270  13.975  65.883  1.00  0.00    -0.308 C  
HETATM   33  C   UNL     1     -10.897  12.789  64.987  1.00  0.00    -0.292 C  
HETATM   34  H2  UNL     1     -11.513  15.047  68.401  1.00  0.00     0.000 HD 
HETATM   35  H1  UNL     1     -12.868  15.371  67.443  1.00  0.00     0.000 HD 
HETATM   36  O   UNL     1     -10.140  13.282  63.882  1.00  0.00    -0.754 OA 
HETATM   37  H   UNL     1     -10.620  13.935  63.386  1.00  0.00     0.000 HD 
ENDBRANCH  26  27
ENDBRANCH  25  26
ENDBRANCH  23  25
ENDBRANCH  22  23
ENDBRANCH  12  22
BRANCH  17  38
HETATM   38  C   UNL     1     -10.354   5.213  68.772  1.00  0.00    -0.162 C  
HETATM   39  C   UNL     1      -9.579   4.141  68.714  1.00  0.00    -0.210 C  
ENDBRANCH  17  38
TORSDOF 6
ENDMDL
MODEL       19
REMARK 921   NORMALIZED FREE ENERGY PREDICTED BY IDOCK:   -6.33 KCAL/MOL
REMARK 922        TOTAL FREE ENERGY PREDICTED BY IDOCK:   -9.79 KCAL/MOL
REMARK 923 INTER-LIGAND FREE ENERGY PREDICTED BY IDOCK:   -8.52 KCAL/MOL
REMARK 924 INTRA-LIGAND FREE ENERGY PREDICTED BY IDOCK:   -1.27 KCAL/MOL
REMARK 927      BINDING AFFINITY PREDICTED BY RF-SCORE:    0.00 PKD
ROOT
HETATM    1  C   UNL     1      -8.325   8.765  69.477  1.00  0.00    -0.119 C  
HETATM    2  C   UNL     1      -7.115   9.381  70.955  1.00  0.00    -0.088 C  
HETATM    3  C   UNL     1      -7.045   7.911  72.226  1.00  0.00    -0.088 C  
HETATM    4  O   UNL     1      -6.544  10.461  71.044  1.00  0.00    -0.337 OA 
HETATM    5  C   UNL     1      -8.320   6.530  71.572  1.00  0.00    -0.121 C  
HETATM    6  C   UNL     1      -8.759   7.065  69.799  1.00  0.00    -0.142 C  
HETATM    7  C   UNL     1      -8.471   6.222  68.542  1.00  0.00    -0.115 C  
HETATM    8  C   UNL     1      -8.302   7.069  67.221  1.00  0.00    -0.122 C  
HETATM    9  C   UNL     1      -9.198   8.325  67.090  1.00  0.00    -0.175 C  
HETATM   10  C   UNL     1     -10.641   7.771  66.996  1.00  0.00    -0.396 C  
HETATM   11  C   UNL     1      -8.869   9.440  68.185  1.00  0.00    -0.124 C  
HETATM   12  C   UNL     1     -10.248  10.208  68.525  1.00  0.00    -0.174 C  
HETATM   13  C   UNL     1      -7.799  10.452  67.744  1.00  0.00    -0.101 C  
HETATM   14  C   UNL     1     -10.611  10.338  70.015  1.00  0.00    -0.321 C  
HETATM   15  O   UNL     1      -9.270   8.467  72.978  1.00  0.00    -0.233 OA 
HETATM   16  C   UNL     1      -7.678   7.619  70.378  1.00  0.00    -0.090 C  
HETATM   17  C   UNL     1     -10.756   8.987  70.989  1.00  0.00    -0.339 C  
HETATM   18  C   UNL     1      -9.078   8.681  71.553  1.00  0.00    -0.239 C  
HETATM   19  H   UNL     1      -8.383   8.305  73.276  1.00  0.00     0.000 HD 
HETATM   20  C   UNL     1      -6.193   7.912  69.387  1.00  0.00    -0.034 C  
HETATM   21  C   UNL     1     -12.052   9.490  71.719  1.00  0.00    -0.459 C  
ENDROOT
BRANCH  12  22
HETATM   22  O   UNL     1     -10.259  11.545  67.983  1.00  0.00    -0.182 OA 
BRANCH  22  23
HETATM   23  C   UNL     1     -11.286  11.860  67.143  1.00  0.00    -0.331 C  
HETATM   24  O   UNL     1     -11.574  11.260  66.115  1.00  0.00    -0.213 OA 
BRANCH  23  25
HETATM   25  C   UNL     1     -12.110  12.988  67.707  1.00  0.00    -0.193 C  
BRANCH  25  26
HETATM   26  S   UNL     1     -11.142  13.988  68.873  1.00  0.00    -0.278 SA 
BRANCH  26  27
HETATM   27  C   UNL     1     -10.995  15.563  67.939  1.00  0.00    -0.316 C  
HETATM   28  C   UNL     1     -10.239  15.373  66.620  1.00  0.00    -0.281 C  
HETATM   29  C   UNL     1     -10.239  16.666  65.805  1.00  0.00    -0.328 C  
HETATM   30  C   UNL     1      -9.647  17.827  66.612  1.00  0.00    -0.307 C  
HETATM   31  N   UNL     1      -9.698  19.061  65.834  1.00  0.00    -0.456 NA 
HETATM   32  C   UNL     1     -10.388  18.015  67.940  1.00  0.00    -0.402 C  
HETATM   33  C   UNL     1     -10.395  16.723  68.763  1.00  0.00    -0.318 C  
HETATM   34  H2  UNL     1     -10.643  19.266  65.508  1.00  0.00     0.000 HD 
HETATM   35  H1  UNL     1      -9.305  19.833  66.372  1.00  0.00     0.000 HD 
HETATM   36  O   UNL     1     -11.128  16.961  69.964  1.00  0.00    -0.417 OA 
HETATM   37  H   UNL     1     -10.758  17.675  70.471  1.00  0.00     0.000 HD 
ENDBRANCH  26  27
ENDBRANCH  25  26
ENDBRANCH  23  25
ENDBRANCH  22  23
ENDBRANCH  12  22
BRANCH  17  38
HETATM   38  C   UNL     1     -11.187   7.543  71.160  1.00  0.00    -0.277 C  
HETATM   39  C   UNL     1     -12.219   6.733  70.975  1.00  0.00    -0.405 C  
ENDBRANCH  17  38
TORSDOF 6
ENDMDL
MODEL       20
REMARK 921   NORMALIZED FREE ENERGY PREDICTED BY IDOCK:   -6.30 KCAL/MOL
REMARK 922        TOTAL FREE ENERGY PREDICTED BY IDOCK:   -9.75 KCAL/MOL
REMARK 923 INTER-LIGAND FREE ENERGY PREDICTED BY IDOCK:   -7.93 KCAL/MOL
REMARK 924 INTRA-LIGAND FREE ENERGY PREDICTED BY IDOCK:   -1.82 KCAL/MOL
REMARK 927      BINDING AFFINITY PREDICTED BY RF-SCORE:    0.00 PKD
ROOT
HETATM    1  C   UNL     1      -9.730  12.977  67.203  1.00  0.00    -0.230 C  
HETATM    2  C   UNL     1      -8.982  14.782  66.744  1.00  0.00    -0.266 C  
HETATM    3  C   UNL     1     -10.515  15.886  66.283  1.00  0.00    -0.324 C  
HETATM    4  O   UNL     1      -7.805  15.120  66.745  1.00  0.00    -0.148 OA 
HETATM    5  C   UNL     1     -12.109  14.695  66.321  1.00  0.00    -0.213 C  
HETATM    6  C   UNL     1     -11.510  13.098  67.166  1.00  0.00    -0.378 C  
HETATM    7  C   UNL     1     -12.082  12.547  68.486  1.00  0.00    -0.129 C  
HETATM    8  C   UNL     1     -11.071  11.658  69.307  1.00  0.00    -0.291 C  
HETATM    9  C   UNL     1     -10.108  10.769  68.482  1.00  0.00    -0.187 C  
HETATM   10  C   UNL     1     -11.027   9.739  67.782  1.00  0.00    -0.242 C  
HETATM   11  C   UNL     1      -9.085  11.618  67.597  1.00  0.00    -0.174 C  
HETATM   12  C   UNL     1      -8.778  10.767  66.259  1.00  0.00    -0.169 C  
HETATM   13  C   UNL     1      -7.769  11.957  68.316  1.00  0.00    -0.127 C  
HETATM   14  C   UNL     1      -8.934  11.512  64.921  1.00  0.00     0.177 C  
HETATM   15  O   UNL     1     -10.696  14.736  64.168  1.00  0.00    -0.415 OA 
HETATM   16  C   UNL     1     -10.750  14.202  67.287  1.00  0.00    -0.279 C  
HETATM   17  C   UNL     1     -10.378  12.243  64.504  1.00  0.00    -0.339 C  
HETATM   18  C   UNL     1     -10.269  13.871  65.255  1.00  0.00    -0.344 C  
HETATM   19  H   UNL     1     -10.639  15.597  64.565  1.00  0.00     0.000 HD 
HETATM   20  C   UNL     1      -9.938  14.552  68.865  1.00  0.00    -0.206 C  
HETATM   21  C   UNL     1     -10.347  11.751  63.014  1.00  0.00    -0.237 C  
ENDROOT
BRANCH  12  22
HETATM   22  O   UNL     1      -7.443  10.222  66.272  1.00  0.00    -0.106 OA 
BRANCH  22  23
HETATM   23  C   UNL     1      -7.322   8.883  66.035  1.00  0.00    -0.090 C  
HETATM   24  O   UNL     1      -7.815   8.281  65.091  1.00  0.00    -0.105 OA 
BRANCH  23  25
HETATM   25  C   UNL     1      -6.391   8.246  67.034  1.00  0.00    -0.056 C  
BRANCH  25  26
HETATM   26  S   UNL     1      -6.926   6.561  67.447  1.00  0.00    -0.081 SA 
BRANCH  26  27
HETATM   27  C   UNL     1      -8.562   6.896  68.212  1.00  0.00    -0.125 C  
HETATM   28  C   UNL     1      -8.516   6.755  69.737  1.00  0.00    -0.133 C  
HETATM   29  C   UNL     1      -9.853   7.160  70.359  1.00  0.00    -0.177 C  
HETATM   30  C   UNL     1     -11.006   6.340  69.768  1.00  0.00    -0.378 C  
HETATM   31  N   UNL     1     -12.277   6.773  70.341  1.00  0.00    -0.585 NA 
HETATM   32  C   UNL     1     -11.051   6.463  68.242  1.00  0.00    -0.359 C  
HETATM   33  C   UNL     1      -9.714   6.063  67.610  1.00  0.00    -0.115 C  
HETATM   34  H2  UNL     1     -12.425   7.776  70.227  1.00  0.00     0.000 HD 
HETATM   35  H1  UNL     1     -13.044   6.228  69.948  1.00  0.00     0.000 HD 
HETATM   36  O   UNL     1      -9.817   6.234  66.197  1.00  0.00    -0.368 OA 
HETATM   37  H   UNL     1     -10.526   5.721  65.827  1.00  0.00     0.000 HD 
ENDBRANCH  26  27
ENDBRANCH  25  26
ENDBRANCH  23  25
ENDBRANCH  22  23
ENDBRANCH  12  22
BRANCH  17  38
HETATM   38  C   UNL     1     -11.894  12.230  64.505  1.00  0.00    -0.441 C  
HETATM   39  C   UNL     1     -12.936  11.886  63.763  1.00  0.00    -0.290 C  
ENDBRANCH  17  38
TORSDOF 6
ENDMDL
MODEL       21
REMARK 921   NORMALIZED FREE ENERGY PREDICTED BY IDOCK:   -6.27 KCAL/MOL
REMARK 922        TOTAL FREE ENERGY PREDICTED BY IDOCK:   -9.71 KCAL/MOL
REMARK 923 INTER-LIGAND FREE ENERGY PREDICTED BY IDOCK:   -8.20 KCAL/MOL
REMARK 924 INTRA-LIGAND FREE ENERGY PREDICTED BY IDOCK:   -1.50 KCAL/MOL
REMARK 927      BINDING AFFINITY PREDICTED BY RF-SCORE:    0.00 PKD
ROOT
HETATM    1  C   UNL     1     -10.083  13.752  66.694  1.00  0.00    -0.277 C  
HETATM    2  C   UNL     1     -10.315  12.773  64.957  1.00  0.00    -0.303 C  
HETATM    3  C   UNL     1     -11.238  11.121  65.402  1.00  0.00     0.021 C  
HETATM    4  O   UNL     1      -9.948  13.136  63.847  1.00  0.00    -0.270 OA 
HETATM    5  C   UNL     1     -11.395  11.071  67.386  1.00  0.00    -0.306 C  
HETATM    6  C   UNL     1     -10.932  12.825  67.960  1.00  0.00    -0.266 C  
HETATM    7  C   UNL     1     -11.882  13.767  68.725  1.00  0.00    -0.398 C  
HETATM    8  C   UNL     1     -11.570  15.301  68.525  1.00  0.00    -0.368 C  
HETATM    9  C   UNL     1     -10.077  15.689  68.397  1.00  0.00    -0.214 C  
HETATM   10  C   UNL     1      -9.465  15.361  69.781  1.00  0.00    -0.156 C  
HETATM   11  C   UNL     1      -9.389  15.087  67.087  1.00  0.00    -0.225 C  
HETATM   12  C   UNL     1      -7.840  14.798  67.441  1.00  0.00    -0.200 C  
HETATM   13  C   UNL     1      -9.484  16.002  65.856  1.00  0.00    -0.351 C  
HETATM   14  C   UNL     1      -7.308  13.394  67.100  1.00  0.00     0.098 C  
HETATM   15  O   UNL     1      -9.194  10.242  66.337  1.00  0.00    -0.153 OA 
HETATM   16  C   UNL     1     -11.229  12.643  66.660  1.00  0.00    -0.346 C  
HETATM   17  C   UNL     1      -8.034  12.022  67.722  1.00  0.00    -0.147 C  
HETATM   18  C   UNL     1      -9.356  11.669  66.557  1.00  0.00    -0.206 C  
HETATM   19  H   UNL     1      -9.893  10.055  65.722  1.00  0.00     0.000 HD 
HETATM   20  C   UNL     1     -12.189  13.901  65.785  1.00  0.00    -0.488 C  
HETATM   21  C   UNL     1      -6.682  11.298  68.052  1.00  0.00    -0.062 C  
ENDROOT
BRANCH  12  22
HETATM   22  O   UNL     1      -6.962  15.738  66.789  1.00  0.00    -0.218 OA 
BRANCH  22  23
HETATM   23  C   UNL     1      -5.990  16.309  67.558  1.00  0.00    -0.160 C  
HETATM   24  O   UNL     1      -5.658  15.938  68.676  1.00  0.00    -0.098 OA 
BRANCH  23  25
HETATM   25  C   UNL     1      -5.281  17.400  66.799  1.00  0.00    -0.170 C  
BRANCH  25  26
HETATM   26  S   UNL     1      -5.263  18.951  67.744  1.00  0.00    -0.170 SA 
BRANCH  26  27
HETATM   27  C   UNL     1      -7.021  19.463  67.601  1.00  0.00    -0.222 C  
HETATM   28  C   UNL     1      -7.912  18.722  68.605  1.00  0.00    -0.369 C  
HETATM   29  C   UNL     1      -9.344  19.255  68.553  1.00  0.00    -0.443 C  
HETATM   30  C   UNL     1      -9.918  19.157  67.135  1.00  0.00    -0.356 C  
HETATM   31  N   UNL     1     -11.268  19.712  67.098  1.00  0.00    -0.166 NA 
HETATM   32  C   UNL     1      -9.026  19.882  66.123  1.00  0.00    -0.373 C  
HETATM   33  C   UNL     1      -7.588  19.357  66.169  1.00  0.00    -0.297 C  
HETATM   34  H2  UNL     1     -11.297  20.667  67.456  1.00  0.00     0.000 HD 
HETATM   35  H1  UNL     1     -11.649  19.647  66.155  1.00  0.00     0.000 HD 
HETATM   36  O   UNL     1      -6.810  20.098  65.230  1.00  0.00    -0.300 OA 
HETATM   37  H   UNL     1      -7.159  20.032  64.349  1.00  0.00     0.000 HD 
ENDBRANCH  26  27
ENDBRANCH  25  26
ENDBRANCH  23  25
ENDBRANCH  22  23
ENDBRANCH  12  22
BRANCH  17  38
HETATM   38  C   UNL     1      -8.723  11.321  68.876  1.00  0.00    -0.053 C  
HETATM   39  C   UNL     1      -8.713  10.191  69.567  1.00  0.00    -0.189 C  
ENDBRANCH  17  38
TORSDOF 6
ENDMDL
MODEL       22
REMARK 921   NORMALIZED FREE ENERGY PREDICTED BY IDOCK:   -6.26 KCAL/MOL
REMARK 922        TOTAL FREE ENERGY PREDICTED BY IDOCK:   -9.70 KCAL/MOL
REMARK 923 INTER-LIGAND FREE ENERGY PREDICTED BY IDOCK:   -8.46 KCAL/MOL
REMARK 924 INTRA-LIGAND FREE ENERGY PREDICTED BY IDOCK:   -1.23 KCAL/MOL
REMARK 927      BINDING AFFINITY PREDICTED BY RF-SCORE:    0.00 PKD
ROOT
HETATM    1  C   UNL     1     -10.488  13.150  67.621  1.00  0.00    -0.225 C  
HETATM    2  C   UNL     1     -11.408  14.195  69.067  1.00  0.00    -0.275 C  
HETATM    3  C   UNL     1     -11.093  16.067  68.646  1.00  0.00    -0.349 C  
HETATM    4  O   UNL     1     -12.032  13.749  70.022  1.00  0.00    -0.302 OA 
HETATM    5  C   UNL     1      -9.877  16.101  67.071  1.00  0.00    -0.248 C  
HETATM    6  C   UNL     1      -9.862  14.313  66.421  1.00  0.00    -0.309 C  
HETATM    7  C   UNL     1     -10.338  13.895  65.017  1.00  0.00    -0.418 C  
HETATM    8  C   UNL     1     -10.845  12.405  64.923  1.00  0.00    -0.333 C  
HETATM    9  C   UNL     1     -10.100  11.367  65.798  1.00  0.00    -0.289 C  
HETATM   10  C   UNL     1      -8.669  11.312  65.209  1.00  0.00     0.047 C  
HETATM   11  C   UNL     1     -10.282  11.630  67.362  1.00  0.00    -0.226 C  
HETATM   12  C   UNL     1      -8.927  11.144  68.097  1.00  0.00    -0.159 C  
HETATM   13  C   UNL     1     -11.497  10.919  67.979  1.00  0.00    -0.356 C  
HETATM   14  C   UNL     1      -8.273  12.147  69.063  1.00  0.00     0.282 C  
HETATM   15  O   UNL     1      -8.812  15.844  69.402  1.00  0.00    -0.251 OA 
HETATM   16  C   UNL     1     -10.839  14.668  67.276  1.00  0.00    -0.305 C  
HETATM   17  C   UNL     1      -7.820  13.672  68.548  1.00  0.00    -0.131 C  
HETATM   18  C   UNL     1      -9.314  14.652  68.740  1.00  0.00    -0.191 C  
HETATM   19  H   UNL     1      -9.601  16.363  69.503  1.00  0.00     0.000 HD 
HETATM   20  C   UNL     1     -12.516  14.044  67.014  1.00  0.00    -0.126 C  
HETATM   21  C   UNL     1      -6.446  13.663  69.305  1.00  0.00    -0.110 C  
ENDROOT
BRANCH  12  22
HETATM   22  O   UNL     1      -9.137   9.930  68.847  1.00  0.00    -0.142 OA 
BRANCH  22  23
HETATM   23  C   UNL     1      -8.646   8.778  68.305  1.00  0.00    -0.134 C  
HETATM   24  O   UNL     1      -7.512   8.625  67.869  1.00  0.00    -0.094 OA 
BRANCH  23  25
HETATM   25  C   UNL     1      -9.652   7.663  68.417  1.00  0.00    -0.151 C  
BRANCH  25  26
HETATM   26  S   UNL     1      -9.305   6.608  69.853  1.00  0.00    -0.152 SA 
BRANCH  26  27
HETATM   27  C   UNL     1     -10.647   7.127  70.996  1.00  0.00    -0.221 C  
HETATM   28  C   UNL     1     -12.032   6.772  70.444  1.00  0.00    -0.343 C  
HETATM   29  C   UNL     1     -13.121   7.099  71.465  1.00  0.00    -0.427 C  
HETATM   30  C   UNL     1     -13.060   8.572  71.885  1.00  0.00    -0.362 C  
HETATM   31  N   UNL     1     -14.078   8.852  72.893  1.00  0.00    -1.094 NA 
HETATM   32  C   UNL     1     -11.674   8.939  72.424  1.00  0.00    -0.266 C  
HETATM   33  C   UNL     1     -10.576   8.613  71.408  1.00  0.00    -0.264 C  
HETATM   34  H2  UNL     1     -14.004   8.224  73.694  1.00  0.00     0.000 HD 
HETATM   35  H1  UNL     1     -14.037   9.832  73.173  1.00  0.00     0.000 HD 
HETATM   36  O   UNL     1      -9.315   8.947  71.988  1.00  0.00    -0.324 OA 
HETATM   37  H   UNL     1      -9.271   9.862  72.242  1.00  0.00     0.000 HD 
ENDBRANCH  26  27
ENDBRANCH  25  26
ENDBRANCH  23  25
ENDBRANCH  22  23
ENDBRANCH  12  22
BRANCH  17  38
HETATM   38  C   UNL     1      -7.249  14.566  67.465  1.00  0.00    -0.210 C  
HETATM   39  C   UNL     1      -6.306  15.470  67.247  1.00  0.00    -0.007 C  
ENDBRANCH  17  38
TORSDOF 6
ENDMDL
MODEL       23
REMARK 921   NORMALIZED FREE ENERGY PREDICTED BY IDOCK:   -6.25 KCAL/MOL
REMARK 922        TOTAL FREE ENERGY PREDICTED BY IDOCK:   -9.68 KCAL/MOL
REMARK 923 INTER-LIGAND FREE ENERGY PREDICTED BY IDOCK:   -8.24 KCAL/MOL
REMARK 924 INTRA-LIGAND FREE ENERGY PREDICTED BY IDOCK:   -1.44 KCAL/MOL
REMARK 927      BINDING AFFINITY PREDICTED BY RF-SCORE:    0.00 PKD
ROOT
HETATM    1  C   UNL     1      -9.796   8.163  69.985  1.00  0.00    -0.182 C  
HETATM    2  C   UNL     1     -11.222   7.094  70.908  1.00  0.00    -0.276 C  
HETATM    3  C   UNL     1     -10.361   5.444  71.474  1.00  0.00    -0.289 C  
HETATM    4  O   UNL     1     -12.394   7.408  71.076  1.00  0.00    -0.318 OA 
HETATM    5  C   UNL     1      -8.508   5.491  70.749  1.00  0.00    -0.122 C  
HETATM    6  C   UNL     1      -8.255   7.281  70.158  1.00  0.00    -0.134 C  
HETATM    7  C   UNL     1      -7.186   8.238  70.719  1.00  0.00    -0.055 C  
HETATM    8  C   UNL     1      -7.555   9.766  70.590  1.00  0.00    -0.026 C  
HETATM    9  C   UNL     1      -8.336  10.182  69.320  1.00  0.00    -0.160 C  
HETATM   10  C   UNL     1      -7.347   9.938  68.153  1.00  0.00    -0.080 C  
HETATM   11  C   UNL     1      -9.792   9.532  69.246  1.00  0.00    -0.184 C  
HETATM   12  C   UNL     1     -10.141   9.296  67.686  1.00  0.00    -0.214 C  
HETATM   13  C   UNL     1     -10.890  10.382  69.907  1.00  0.00    -0.353 C  
HETATM   14  C   UNL     1     -10.631   7.890  67.298  1.00  0.00    -0.365 C  
HETATM   15  O   UNL     1     -10.383   4.661  69.191  1.00  0.00    -0.081 OA 
HETATM   16  C   UNL     1      -9.287   7.027  70.983  1.00  0.00    -0.159 C  
HETATM   17  C   UNL     1      -9.707   6.534  67.622  1.00  0.00    -0.137 C  
HETATM   18  C   UNL     1     -10.164   6.093  69.302  1.00  0.00    -0.201 C  
HETATM   19  H   UNL     1     -10.624   4.427  70.080  1.00  0.00     0.000 HD 
HETATM   20  C   UNL     1      -9.699   8.218  72.281  1.00  0.00    -0.362 C  
HETATM   21  C   UNL     1      -9.976   5.858  66.231  1.00  0.00    -0.107 C  
ENDROOT
BRANCH  12  22
HETATM   22  O   UNL     1     -11.144  10.222  67.221  1.00  0.00    -0.264 OA 
BRANCH  22  23
HETATM   23  C   UNL     1     -10.723  11.220  66.391  1.00  0.00    -0.267 C  
HETATM   24  O   UNL     1      -9.744  11.169  65.657  1.00  0.00    -0.205 OA 
BRANCH  23  25
HETATM   25  C   UNL     1     -11.695  12.370  66.402  1.00  0.00    -0.391 C  
BRANCH  25  26
HETATM   26  S   UNL     1     -10.828  13.964  66.329  1.00  0.00    -0.293 SA 
BRANCH  26  27
HETATM   27  C   UNL     1     -10.916  14.486  68.088  1.00  0.00    -0.251 C  
HETATM   28  C   UNL     1     -12.034  13.758  68.842  1.00  0.00    -0.394 C  
HETATM   29  C   UNL     1     -12.006  14.114  70.328  1.00  0.00    -0.404 C  
HETATM   30  C   UNL     1     -12.105  15.630  70.533  1.00  0.00    -0.395 C  
HETATM   31  N   UNL     1     -12.030  15.953  71.955  1.00  0.00    -0.459 NA 
HETATM   32  C   UNL     1     -10.999  16.367  69.771  1.00  0.00    -0.341 C  
HETATM   33  C   UNL     1     -11.017  16.014  68.281  1.00  0.00    -0.335 C  
HETATM   34  H2  UNL     1     -11.195  15.563  72.391  1.00  0.00     0.000 HD 
HETATM   35  H1  UNL     1     -12.095  16.961  72.091  1.00  0.00     0.000 HD 
HETATM   36  O   UNL     1      -9.945  16.706  67.643  1.00  0.00    -0.252 OA 
HETATM   37  H   UNL     1     -10.007  17.647  67.762  1.00  0.00     0.000 HD 
ENDBRANCH  26  27
ENDBRANCH  25  26
ENDBRANCH  23  25
ENDBRANCH  22  23
ENDBRANCH  12  22
BRANCH  17  38
HETATM   38  C   UNL     1      -8.344   5.876  67.709  1.00  0.00    -0.108 C  
HETATM   39  C   UNL     1      -7.240   5.666  67.009  1.00  0.00    -0.075 C  
ENDBRANCH  17  38
TORSDOF 6
ENDMDL
MODEL       24
REMARK 921   NORMALIZED FREE ENERGY PREDICTED BY IDOCK:   -6.23 KCAL/MOL
REMARK 922        TOTAL FREE ENERGY PREDICTED BY IDOCK:   -9.65 KCAL/MOL
REMARK 923 INTER-LIGAND FREE ENERGY PREDICTED BY IDOCK:   -8.85 KCAL/MOL
REMARK 924 INTRA-LIGAND FREE ENERGY PREDICTED BY IDOCK:   -0.80 KCAL/MOL
REMARK 927      BINDING AFFINITY PREDICTED BY RF-SCORE:    0.00 PKD
ROOT
HETATM    1  C   UNL     1     -10.575  13.207  66.933  1.00  0.00    -0.265 C  
HETATM    2  C   UNL     1     -11.802  14.364  65.845  1.00  0.00    -0.367 C  
HETATM    3  C   UNL     1     -10.744  15.910  65.323  1.00  0.00    -0.442 C  
HETATM    4  O   UNL     1     -12.976  14.149  65.571  1.00  0.00    -0.657 OA 
HETATM    5  C   UNL     1      -8.980  15.726  66.227  1.00  0.00    -0.381 C  
HETATM    6  C   UNL     1      -8.950  13.942  66.889  1.00  0.00    -0.236 C  
HETATM    7  C   UNL     1      -7.924  12.875  66.462  1.00  0.00     0.557 C  
HETATM    8  C   UNL     1      -8.442  11.391  66.594  1.00  0.00    -0.171 C  
HETATM    9  C   UNL     1      -9.376  11.091  67.792  1.00  0.00    -0.162 C  
HETATM   10  C   UNL     1      -8.485  11.289  69.043  1.00  0.00     0.002 C  
HETATM   11  C   UNL     1     -10.767  11.870  67.705  1.00  0.00    -0.253 C  
HETATM   12  C   UNL     1     -11.240  12.191  69.216  1.00  0.00    -0.226 C  
HETATM   13  C   UNL     1     -11.870  11.098  66.963  1.00  0.00     0.472 C  
HETATM   14  C   UNL     1     -11.634  13.648  69.516  1.00  0.00    -0.361 C  
HETATM   15  O   UNL     1     -10.912  16.773  67.570  1.00  0.00    -0.261 OA 
HETATM   16  C   UNL     1      -9.871  14.257  65.959  1.00  0.00    -0.336 C  
HETATM   17  C   UNL     1     -10.564  14.904  69.249  1.00  0.00    -0.248 C  
HETATM   18  C   UNL     1     -10.816  15.324  67.520  1.00  0.00    -0.304 C  
HETATM   19  H   UNL     1     -11.045  16.995  66.656  1.00  0.00     0.000 HD 
HETATM   20  C   UNL     1     -10.265  13.061  64.660  1.00  0.00    -0.324 C  
HETATM   21  C   UNL     1     -10.901  15.651  70.588  1.00  0.00    -0.319 C  
ENDROOT
BRANCH  12  22
HETATM   22  O   UNL     1     -12.363  11.374  69.605  1.00  0.00    -0.259 OA 
BRANCH  22  23
HETATM   23  C   UNL     1     -12.550  11.181  70.942  1.00  0.00    -0.386 C  
HETATM   24  O   UNL     1     -13.282  11.848  71.662  1.00  0.00    -0.412 OA 
BRANCH  23  25
HETATM   25  C   UNL     1     -11.821   9.949  71.411  1.00  0.00    -0.394 C  
BRANCH  25  26
HETATM   26  S   UNL     1     -12.985   8.623  71.841  1.00  0.00    -0.394 SA 
BRANCH  26  27
HETATM   27  C   UNL     1     -11.843   7.189  71.969  1.00  0.00    -0.295 C  
HETATM   28  C   UNL     1     -10.880   7.334  73.153  1.00  0.00    -0.401 C  
HETATM   29  C   UNL     1     -10.027   6.076  73.314  1.00  0.00    -0.189 C  
HETATM   30  C   UNL     1      -9.263   5.758  72.024  1.00  0.00    -0.147 C  
HETATM   31  N   UNL     1      -8.492   4.529  72.183  1.00  0.00    -0.112 NA 
HETATM   32  C   UNL     1     -10.217   5.626  70.832  1.00  0.00    -0.286 C  
HETATM   33  C   UNL     1     -11.078   6.882  70.664  1.00  0.00    -0.278 C  
HETATM   34  H2  UNL     1      -9.077   3.748  72.482  1.00  0.00     0.000 HD 
HETATM   35  H1  UNL     1      -7.985   4.318  71.324  1.00  0.00     0.000 HD 
HETATM   36  O   UNL     1     -11.961   6.676  69.562  1.00  0.00    -0.642 OA 
HETATM   37  H   UNL     1     -11.490   6.487  68.759  1.00  0.00     0.000 HD 
ENDBRANCH  26  27
ENDBRANCH  25  26
ENDBRANCH  23  25
ENDBRANCH  22  23
ENDBRANCH  12  22
BRANCH  17  38
HETATM   38  C   UNL     1      -9.144  15.436  69.278  1.00  0.00    -0.260 C  
HETATM   39  C   UNL     1      -7.924  15.133  69.696  1.00  0.00    -0.113 C  
ENDBRANCH  17  38
TORSDOF 6
ENDMDL
MODEL       25
REMARK 921   NORMALIZED FREE ENERGY PREDICTED BY IDOCK:   -6.20 KCAL/MOL
REMARK 922        TOTAL FREE ENERGY PREDICTED BY IDOCK:   -9.61 KCAL/MOL
REMARK 923 INTER-LIGAND FREE ENERGY PREDICTED BY IDOCK:   -7.66 KCAL/MOL
REMARK 924 INTRA-LIGAND FREE ENERGY PREDICTED BY IDOCK:   -1.95 KCAL/MOL
REMARK 927      BINDING AFFINITY PREDICTED BY RF-SCORE:    0.00 PKD
ROOT
HETATM    1  C   UNL     1     -10.366  12.063  66.909  1.00  0.00    -0.238 C  
HETATM    2  C   UNL     1     -11.727  12.783  65.622  1.00  0.00    -0.399 C  
HETATM    3  C   UNL     1     -11.000  14.464  64.971  1.00  0.00    -0.398 C  
HETATM    4  O   UNL     1     -12.798  12.275  65.314  1.00  0.00    -0.464 OA 
HETATM    5  C   UNL     1      -9.318  14.789  65.985  1.00  0.00    -0.249 C  
HETATM    6  C   UNL     1      -8.946  13.142  66.862  1.00  0.00    -0.213 C  
HETATM    7  C   UNL     1      -7.678  12.300  66.626  1.00  0.00     0.178 C  
HETATM    8  C   UNL     1      -7.862  10.760  66.912  1.00  0.00    -0.130 C  
HETATM    9  C   UNL     1      -8.800  10.385  68.086  1.00  0.00    -0.132 C  
HETATM   10  C   UNL     1      -8.078  10.916  69.349  1.00  0.00     0.001 C  
HETATM   11  C   UNL     1     -10.317  10.809  67.828  1.00  0.00    -0.226 C  
HETATM   12  C   UNL     1     -10.970  11.174  69.261  1.00  0.00    -0.247 C  
HETATM   13  C   UNL     1     -11.158   9.728  67.129  1.00  0.00     0.048 C  
HETATM   14  C   UNL     1     -11.700  12.525  69.358  1.00  0.00    -0.383 C  
HETATM   15  O   UNL     1     -11.536  15.504  67.083  1.00  0.00    -0.223 OA 
HETATM   16  C   UNL     1      -9.836  13.135  65.853  1.00  0.00    -0.241 C  
HETATM   17  C   UNL     1     -10.917  13.957  68.995  1.00  0.00    -0.281 C  
HETATM   18  C   UNL     1     -11.116  14.118  67.217  1.00  0.00    -0.305 C  
HETATM   19  H   UNL     1     -11.641  15.589  66.142  1.00  0.00     0.000 HD 
HETATM   20  C   UNL     1      -9.849  11.748  64.692  1.00  0.00    -0.230 C  
HETATM   21  C   UNL     1     -11.518  14.746  70.212  1.00  0.00    -0.309 C  
ENDROOT
BRANCH  12  22
HETATM   22  O   UNL     1     -11.911  10.168  69.686  1.00  0.00    -0.124 OA 
BRANCH  22  23
HETATM   23  C   UNL     1     -11.955   9.891  71.022  1.00  0.00    -0.365 C  
HETATM   24  O   UNL     1     -12.964   9.889  71.715  1.00  0.00    -0.382 OA 
BRANCH  23  25
HETATM   25  C   UNL     1     -10.599   9.466  71.524  1.00  0.00    -0.261 C  
BRANCH  25  26
HETATM   26  S   UNL     1     -10.594   7.711  71.990  1.00  0.00    -0.232 SA 
BRANCH  26  27
HETATM   27  C   UNL     1      -9.654   6.984  70.589  1.00  0.00    -0.165 C  
HETATM   28  C   UNL     1      -8.248   7.582  70.476  1.00  0.00    -0.118 C  
HETATM   29  C   UNL     1      -7.444   6.874  69.386  1.00  0.00    -0.094 C  
HETATM   30  C   UNL     1      -8.172   6.933  68.038  1.00  0.00    -0.115 C  
HETATM   31  N   UNL     1      -7.412   6.213  67.021  1.00  0.00    -0.086 NA 
HETATM   32  C   UNL     1      -9.586   6.350  68.144  1.00  0.00    -0.115 C  
HETATM   33  C   UNL     1     -10.398   7.052  69.237  1.00  0.00    -0.200 C  
HETATM   34  H2  UNL     1      -7.210   5.254  67.304  1.00  0.00     0.000 HD 
HETATM   35  H1  UNL     1      -7.897   6.251  66.125  1.00  0.00     0.000 HD 
HETATM   36  O   UNL     1     -11.684   6.438  69.303  1.00  0.00    -0.608 OA 
HETATM   37  H   UNL     1     -12.142   6.480  68.471  1.00  0.00     0.000 HD 
ENDBRANCH  26  27
ENDBRANCH  25  26
ENDBRANCH  23  25
ENDBRANCH  22  23
ENDBRANCH  12  22
BRANCH  17  38
HETATM   38  C   UNL     1      -9.658  14.801  69.035  1.00  0.00    -0.178 C  
HETATM   39  C   UNL     1      -9.168  15.922  69.543  1.00  0.00    -0.175 C  
ENDBRANCH  17  38
TORSDOF 6
ENDMDL
MODEL       26
REMARK 921   NORMALIZED FREE ENERGY PREDICTED BY IDOCK:   -6.15 KCAL/MOL
REMARK 922        TOTAL FREE ENERGY PREDICTED BY IDOCK:   -9.54 KCAL/MOL
REMARK 923 INTER-LIGAND FREE ENERGY PREDICTED BY IDOCK:   -8.05 KCAL/MOL
REMARK 924 INTRA-LIGAND FREE ENERGY PREDICTED BY IDOCK:   -1.49 KCAL/MOL
REMARK 927      BINDING AFFINITY PREDICTED BY RF-SCORE:    0.00 PKD
ROOT
HETATM    1  C   UNL     1      -9.647  12.949  67.378  1.00  0.00    -0.203 C  
HETATM    2  C   UNL     1      -9.088  14.822  66.923  1.00  0.00    -0.248 C  
HETATM    3  C   UNL     1     -10.698  15.717  66.302  1.00  0.00    -0.282 C  
HETATM    4  O   UNL     1      -7.965  15.303  67.011  1.00  0.00    -0.204 OA 
HETATM    5  C   UNL     1     -12.133  14.338  66.248  1.00  0.00    -0.433 C  
HETATM    6  C   UNL     1     -11.418  12.847  67.190  1.00  0.00    -0.388 C  
HETATM    7  C   UNL     1     -12.030  12.259  68.475  1.00  0.00    -0.272 C  
HETATM    8  C   UNL     1     -10.992  11.520  69.405  1.00  0.00    -0.233 C  
HETATM    9  C   UNL     1      -9.861  10.740  68.692  1.00  0.00    -0.187 C  
HETATM   10  C   UNL     1     -10.585   9.588  67.951  1.00  0.00    -0.299 C  
HETATM   11  C   UNL     1      -8.877  11.689  67.867  1.00  0.00    -0.155 C  
HETATM   12  C   UNL     1      -8.355  10.853  66.587  1.00  0.00    -0.143 C  
HETATM   13  C   UNL     1      -7.679  12.205  68.681  1.00  0.00    -0.089 C  
HETATM   14  C   UNL     1      -8.485  11.544  65.218  1.00  0.00     0.404 C  
HETATM   15  O   UNL     1     -10.556  14.508  64.218  1.00  0.00    -0.515 OA 
HETATM   16  C   UNL     1     -10.811  14.040  67.337  1.00  0.00    -0.288 C  
HETATM   17  C   UNL     1      -9.966  12.081  64.659  1.00  0.00    -0.240 C  
HETATM   18  C   UNL     1     -10.121  13.726  65.364  1.00  0.00    -0.286 C  
HETATM   19  H   UNL     1     -10.638  15.378  64.590  1.00  0.00     0.000 HD 
HETATM   20  C   UNL     1     -10.187  14.521  68.965  1.00  0.00    -0.210 C  
HETATM   21  C   UNL     1      -9.748  11.564  63.193  1.00  0.00    -0.412 C  
ENDROOT
BRANCH  12  22
HETATM   22  O   UNL     1      -6.969  10.479  66.727  1.00  0.00    -0.093 OA 
BRANCH  22  23
HETATM   23  C   UNL     1      -6.691   9.143  66.736  1.00  0.00    -0.076 C  
HETATM   24  O   UNL     1      -6.297   8.493  65.777  1.00  0.00    -0.051 OA 
BRANCH  23  25
HETATM   25  C   UNL     1      -6.817   8.580  68.128  1.00  0.00    -0.069 C  
BRANCH  25  26
HETATM   26  S   UNL     1      -6.728   6.766  68.112  1.00  0.00    -0.070 SA 
BRANCH  26  27
HETATM   27  C   UNL     1      -8.138   6.361  67.007  1.00  0.00    -0.112 C  
HETATM   28  C   UNL     1      -9.400   6.006  67.802  1.00  0.00    -0.106 C  
HETATM   29  C   UNL     1     -10.589   5.796  66.865  1.00  0.00    -0.377 C  
HETATM   30  C   UNL     1     -10.282   4.719  65.818  1.00  0.00    -0.225 C  
HETATM   31  N   UNL     1     -11.411   4.566  64.906  1.00  0.00    -1.070 NA 
HETATM   32  C   UNL     1      -9.014   5.058  65.028  1.00  0.00    -0.131 C  
HETATM   33  C   UNL     1      -7.817   5.274  65.959  1.00  0.00    -0.103 C  
HETATM   34  H2  UNL     1     -11.676   5.452  64.475  1.00  0.00     0.000 HD 
HETATM   35  H1  UNL     1     -11.207   3.851  64.209  1.00  0.00     0.000 HD 
HETATM   36  O   UNL     1      -6.685   5.618  65.161  1.00  0.00    -0.045 OA 
HETATM   37  H   UNL     1      -6.487   4.948  64.516  1.00  0.00     0.000 HD 
ENDBRANCH  26  27
ENDBRANCH  25  26
ENDBRANCH  23  25
ENDBRANCH  22  23
ENDBRANCH  12  22
BRANCH  17  38
HETATM   38  C   UNL     1     -11.464  11.880  64.536  1.00  0.00    -0.363 C  
HETATM   39  C   UNL     1     -12.426  11.723  63.639  1.00  0.00    -0.482 C  
ENDBRANCH  17  38
TORSDOF 6
ENDMDL
MODEL       27
REMARK 921   NORMALIZED FREE ENERGY PREDICTED BY IDOCK:   -6.13 KCAL/MOL
REMARK 922        TOTAL FREE ENERGY PREDICTED BY IDOCK:   -9.51 KCAL/MOL
REMARK 923 INTER-LIGAND FREE ENERGY PREDICTED BY IDOCK:   -8.19 KCAL/MOL
REMARK 924 INTRA-LIGAND FREE ENERGY PREDICTED BY IDOCK:   -1.32 KCAL/MOL
REMARK 927      BINDING AFFINITY PREDICTED BY RF-SCORE:    0.00 PKD
ROOT
HETATM    1  C   UNL     1     -10.451  12.865  67.386  1.00  0.00    -0.235 C  
HETATM    2  C   UNL     1     -11.480  13.755  68.862  1.00  0.00    -0.304 C  
HETATM    3  C   UNL     1     -11.308  15.666  68.546  1.00  0.00    -0.361 C  
HETATM    4  O   UNL     1     -12.085  13.211  69.777  1.00  0.00    -0.307 OA 
HETATM    5  C   UNL     1     -10.068  15.880  67.004  1.00  0.00    -0.268 C  
HETATM    6  C   UNL     1      -9.897  14.136  66.263  1.00  0.00    -0.321 C  
HETATM    7  C   UNL     1     -10.310  13.758  64.828  1.00  0.00    -0.422 C  
HETATM    8  C   UNL     1     -10.695  12.239  64.645  1.00  0.00    -0.347 C  
HETATM    9  C   UNL     1      -9.887  11.218  65.483  1.00  0.00    -0.274 C  
HETATM   10  C   UNL     1      -8.444  11.308  64.926  1.00  0.00     0.337 C  
HETATM   11  C   UNL     1     -10.119  11.382  67.054  1.00  0.00    -0.237 C  
HETATM   12  C   UNL     1      -8.745  10.966  67.795  1.00  0.00    -0.129 C  
HETATM   13  C   UNL     1     -11.286  10.545  67.604  1.00  0.00    -0.338 C  
HETATM   14  C   UNL     1      -8.192  11.965  68.826  1.00  0.00     0.000 C  
HETATM   15  O   UNL     1      -9.031  15.584  69.343  1.00  0.00    -0.257 OA 
HETATM   16  C   UNL     1     -10.916  14.367  67.112  1.00  0.00    -0.305 C  
HETATM   17  C   UNL     1      -7.853  13.546  68.401  1.00  0.00    -0.143 C  
HETATM   18  C   UNL     1      -9.423  14.393  68.608  1.00  0.00    -0.193 C  
HETATM   19  H   UNL     1      -9.862  16.033  69.452  1.00  0.00     0.000 HD 
HETATM   20  C   UNL     1     -12.533  13.627  66.778  1.00  0.00    -0.241 C  
HETATM   21  C   UNL     1      -6.497  13.605  69.190  1.00  0.00    -0.107 C  
ENDROOT
BRANCH  12  22
HETATM   22  O   UNL     1      -8.872   9.701  68.475  1.00  0.00    -0.122 OA 
BRANCH  22  23
HETATM   23  C   UNL     1      -8.249   8.629  67.905  1.00  0.00    -0.115 C  
HETATM   24  O   UNL     1      -7.431   8.683  66.996  1.00  0.00    -0.083 OA 
BRANCH  23  25
HETATM   25  C   UNL     1      -8.612   7.356  68.624  1.00  0.00    -0.129 C  
BRANCH  25  26
HETATM   26  S   UNL     1      -8.477   7.558  70.423  1.00  0.00    -0.142 SA 
BRANCH  26  27
HETATM   27  C   UNL     1     -10.231   7.876  70.867  1.00  0.00    -0.198 C  
HETATM   28  C   UNL     1     -10.437   9.305  71.380  1.00  0.00    -0.408 C  
HETATM   29  C   UNL     1     -11.921   9.585  71.623  1.00  0.00    -0.474 C  
HETATM   30  C   UNL     1     -12.522   8.563  72.594  1.00  0.00    -0.211 C  
HETATM   31  N   UNL     1     -13.948   8.819  72.777  1.00  0.00    -0.916 NA 
HETATM   32  C   UNL     1     -12.308   7.130  72.097  1.00  0.00    -0.228 C  
HETATM   33  C   UNL     1     -10.824   6.842  71.848  1.00  0.00    -0.232 C  
HETATM   34  H2  UNL     1     -14.448   8.840  71.888  1.00  0.00     0.000 HD 
HETATM   35  H1  UNL     1     -14.348   8.139  73.423  1.00  0.00     0.000 HD 
HETATM   36  O   UNL     1     -10.703   5.507  71.356  1.00  0.00    -0.249 OA 
HETATM   37  H   UNL     1     -11.068   4.871  71.960  1.00  0.00     0.000 HD 
ENDBRANCH  26  27
ENDBRANCH  25  26
ENDBRANCH  23  25
ENDBRANCH  22  23
ENDBRANCH  12  22
BRANCH  17  38
HETATM   38  C   UNL     1      -7.334  14.538  67.380  1.00  0.00    -0.183 C  
HETATM   39  C   UNL     1      -6.423  15.486  67.214  1.00  0.00    -0.049 C  
ENDBRANCH  17  38
TORSDOF 6
ENDMDL
MODEL       28
REMARK 921   NORMALIZED FREE ENERGY PREDICTED BY IDOCK:   -6.11 KCAL/MOL
REMARK 922        TOTAL FREE ENERGY PREDICTED BY IDOCK:   -9.50 KCAL/MOL
REMARK 923 INTER-LIGAND FREE ENERGY PREDICTED BY IDOCK:   -8.38 KCAL/MOL
REMARK 924 INTRA-LIGAND FREE ENERGY PREDICTED BY IDOCK:   -1.12 KCAL/MOL
REMARK 927      BINDING AFFINITY PREDICTED BY RF-SCORE:    0.00 PKD
ROOT
HETATM    1  C   UNL     1      -7.586   8.193  68.443  1.00  0.00    -0.105 C  
HETATM    2  C   UNL     1      -6.542   7.438  69.983  1.00  0.00    -0.046 C  
HETATM    3  C   UNL     1      -6.103   5.612  69.478  1.00  0.00    -0.025 C  
HETATM    4  O   UNL     1      -6.248   8.004  71.028  1.00  0.00    -0.034 OA 
HETATM    5  C   UNL     1      -7.014   5.266  67.742  1.00  0.00    -0.065 C  
HETATM    6  C   UNL     1      -7.591   6.976  67.139  1.00  0.00    -0.107 C  
HETATM    7  C   UNL     1      -7.124   7.637  65.828  1.00  0.00    -0.061 C  
HETATM    8  C   UNL     1      -7.181   9.213  65.844  1.00  0.00    -0.093 C  
HETATM    9  C   UNL     1      -8.355   9.853  66.625  1.00  0.00    -0.125 C  
HETATM   10  C   UNL     1      -9.622   9.441  65.836  1.00  0.00    -0.338 C  
HETATM   11  C   UNL     1      -8.292   9.556  68.193  1.00  0.00    -0.118 C  
HETATM   12  C   UNL     1      -9.812   9.475  68.734  1.00  0.00    -0.169 C  
HETATM   13  C   UNL     1      -7.504  10.604  68.995  1.00  0.00    -0.117 C  
HETATM   14  C   UNL     1     -10.177   8.237  69.571  1.00  0.00    -0.210 C  
HETATM   15  O   UNL     1      -8.388   4.956  69.899  1.00  0.00    -0.078 OA 
HETATM   16  C   UNL     1      -6.669   6.928  68.118  1.00  0.00    -0.068 C  
HETATM   17  C   UNL     1      -9.979   6.693  68.961  1.00  0.00    -0.162 C  
HETATM   18  C   UNL     1      -8.270   6.295  69.344  1.00  0.00    -0.114 C  
HETATM   19  H   UNL     1      -7.484   4.745  70.102  1.00  0.00     0.000 HD 
HETATM   20  C   UNL     1      -5.311   8.123  68.117  1.00  0.00    -0.033 C  
HETATM   21  C   UNL     1     -11.349   6.159  69.510  1.00  0.00    -0.426 C  
ENDROOT
BRANCH  12  22
HETATM   22  O   UNL     1     -10.151  10.626  69.534  1.00  0.00    -0.209 OA 
BRANCH  22  23
HETATM   23  C   UNL     1     -11.177  11.407  69.087  1.00  0.00    -0.272 C  
HETATM   24  O   UNL     1     -12.363  11.106  69.112  1.00  0.00    -0.438 OA 
BRANCH  23  25
HETATM   25  C   UNL     1     -10.671  12.759  68.657  1.00  0.00    -0.246 C  
BRANCH  25  26
HETATM   26  S   UNL     1     -11.993  14.002  68.713  1.00  0.00    -0.317 SA 
BRANCH  26  27
HETATM   27  C   UNL     1     -11.946  14.476  70.487  1.00  0.00    -0.318 C  
HETATM   28  C   UNL     1     -13.052  13.783  71.290  1.00  0.00    -0.370 C  
HETATM   29  C   UNL     1     -12.915  14.094  72.781  1.00  0.00    -0.516 C  
HETATM   30  C   UNL     1     -12.923  15.607  73.032  1.00  0.00    -0.510 C  
HETATM   31  N   UNL     1     -12.745  15.883  74.454  1.00  0.00    -0.921 NA 
HETATM   32  C   UNL     1     -11.829  16.310  72.221  1.00  0.00    -0.601 C  
HETATM   33  C   UNL     1     -11.956  16.002  70.726  1.00  0.00    -0.307 C  
HETATM   34  H2  UNL     1     -11.905  15.439  74.826  1.00  0.00     0.000 HD 
HETATM   35  H1  UNL     1     -12.749  16.889  74.620  1.00  0.00     0.000 HD 
HETATM   36  O   UNL     1     -10.890  16.658  70.041  1.00  0.00    -0.329 OA 
HETATM   37  H   UNL     1     -10.897  17.597  70.188  1.00  0.00     0.000 HD 
ENDBRANCH  26  27
ENDBRANCH  25  26
ENDBRANCH  23  25
ENDBRANCH  22  23
ENDBRANCH  12  22
BRANCH  17  38
HETATM   38  C   UNL     1     -10.047   5.738  67.785  1.00  0.00    -0.196 C  
HETATM   39  C   UNL     1     -10.726   5.496  66.674  1.00  0.00    -0.332 C  
ENDBRANCH  17  38
TORSDOF 6
ENDMDL
MODEL       29
REMARK 921   NORMALIZED FREE ENERGY PREDICTED BY IDOCK:   -6.09 KCAL/MOL
REMARK 922        TOTAL FREE ENERGY PREDICTED BY IDOCK:   -9.46 KCAL/MOL
REMARK 923 INTER-LIGAND FREE ENERGY PREDICTED BY IDOCK:   -7.91 KCAL/MOL
REMARK 924 INTRA-LIGAND FREE ENERGY PREDICTED BY IDOCK:   -1.55 KCAL/MOL
REMARK 927      BINDING AFFINITY PREDICTED BY RF-SCORE:    0.00 PKD
ROOT
HETATM    1  C   UNL     1      -8.649   6.267  67.837  1.00  0.00    -0.115 C  
HETATM    2  C   UNL     1      -9.323   5.457  66.128  1.00  0.00    -0.157 C  
HETATM    3  C   UNL     1      -7.997   5.901  64.776  1.00  0.00    -0.126 C  
HETATM    4  O   UNL     1     -10.357   4.822  65.965  1.00  0.00    -0.262 OA 
HETATM    5  C   UNL     1      -6.659   7.083  65.655  1.00  0.00    -0.051 C  
HETATM    6  C   UNL     1      -7.033   6.952  67.516  1.00  0.00    -0.083 C  
HETATM    7  C   UNL     1      -6.040   6.416  68.566  1.00  0.00    -0.025 C  
HETATM    8  C   UNL     1      -6.723   5.798  69.846  1.00  0.00    -0.052 C  
HETATM    9  C   UNL     1      -8.026   6.482  70.330  1.00  0.00    -0.115 C  
HETATM   10  C   UNL     1      -7.581   7.893  70.789  1.00  0.00    -0.078 C  
HETATM   11  C   UNL     1      -9.222   6.354  69.280  1.00  0.00    -0.135 C  
HETATM   12  C   UNL     1     -10.130   7.684  69.413  1.00  0.00    -0.196 C  
HETATM   13  C   UNL     1     -10.093   5.102  69.476  1.00  0.00    -0.316 C  
HETATM   14  C   UNL     1     -10.447   8.431  68.106  1.00  0.00    -0.228 C  
HETATM   15  O   UNL     1      -8.805   8.175  64.743  1.00  0.00    -0.397 OA 
HETATM   16  C   UNL     1      -7.559   6.022  66.698  1.00  0.00    -0.095 C  
HETATM   17  C   UNL     1      -9.224   8.984  67.109  1.00  0.00    -0.164 C  
HETATM   18  C   UNL     1      -8.848   7.572  66.065  1.00  0.00    -0.150 C  
HETATM   19  H   UNL     1      -8.606   7.428  64.190  1.00  0.00     0.000 HD 
HETATM   20  C   UNL     1      -7.624   4.297  67.240  1.00  0.00    -0.077 C  
HETATM   21  C   UNL     1      -9.904  10.370  66.826  1.00  0.00    -0.242 C  
ENDROOT
BRANCH  12  22
HETATM   22  O   UNL     1     -11.396   7.400  70.042  1.00  0.00    -0.227 OA 
BRANCH  22  23
HETATM   23  C   UNL     1     -11.520   7.737  71.358  1.00  0.00    -0.260 C  
HETATM   24  O   UNL     1     -11.632   6.948  72.287  1.00  0.00    -0.270 OA 
BRANCH  23  25
HETATM   25  C   UNL     1     -11.382   9.226  71.543  1.00  0.00    -0.385 C  
BRANCH  25  26
HETATM   26  S   UNL     1     -12.964   9.976  72.024  1.00  0.00    -0.379 SA 
BRANCH  26  27
HETATM   27  C   UNL     1     -12.947  11.503  71.002  1.00  0.00    -0.159 C  
HETATM   28  C   UNL     1     -11.799  11.495  69.987  1.00  0.00    -0.435 C  
HETATM   29  C   UNL     1     -11.881  12.712  69.067  1.00  0.00    -0.341 C  
HETATM   30  C   UNL     1     -11.887  14.015  69.875  1.00  0.00    -0.329 C  
HETATM   31  N   UNL     1     -12.012  15.163  68.982  1.00  0.00    -0.494 NA 
HETATM   32  C   UNL     1     -13.023  14.026  70.903  1.00  0.00    -0.347 C  
HETATM   33  C   UNL     1     -12.951  12.807  71.828  1.00  0.00    -0.314 C  
HETATM   34  H2  UNL     1     -12.829  15.086  68.376  1.00  0.00     0.000 HD 
HETATM   35  H1  UNL     1     -12.017  16.029  69.520  1.00  0.00     0.000 HD 
HETATM   36  O   UNL     1     -14.053  12.864  72.732  1.00  0.00    -0.714 OA 
HETATM   37  H   UNL     1     -14.055  13.667  73.241  1.00  0.00     0.000 HD 
ENDBRANCH  26  27
ENDBRANCH  25  26
ENDBRANCH  23  25
ENDBRANCH  22  23
ENDBRANCH  12  22
BRANCH  17  38
HETATM   38  C   UNL     1      -7.846   9.597  66.954  1.00  0.00    -0.102 C  
HETATM   39  C   UNL     1      -7.105  10.617  67.362  1.00  0.00    -0.090 C  
ENDBRANCH  17  38
TORSDOF 6
ENDMDL
MODEL       30
REMARK 921   NORMALIZED FREE ENERGY PREDICTED BY IDOCK:   -6.08 KCAL/MOL
REMARK 922        TOTAL FREE ENERGY PREDICTED BY IDOCK:   -9.45 KCAL/MOL
REMARK 923 INTER-LIGAND FREE ENERGY PREDICTED BY IDOCK:   -8.29 KCAL/MOL
REMARK 924 INTRA-LIGAND FREE ENERGY PREDICTED BY IDOCK:   -1.16 KCAL/MOL
REMARK 927      BINDING AFFINITY PREDICTED BY RF-SCORE:    0.00 PKD
ROOT
HETATM    1  C   UNL     1      -9.081   7.059  69.015  1.00  0.00    -0.135 C  
HETATM    2  C   UNL     1      -7.741   6.372  67.687  1.00  0.00    -0.102 C  
HETATM    3  C   UNL     1      -6.511   5.264  68.706  1.00  0.00    -0.039 C  
HETATM    4  O   UNL     1      -7.700   6.605  66.486  1.00  0.00    -0.098 OA 
HETATM    5  C   UNL     1      -7.037   5.436  70.618  1.00  0.00    -0.061 C  
HETATM    6  C   UNL     1      -8.738   6.286  70.586  1.00  0.00    -0.140 C  
HETATM    7  C   UNL     1     -10.034   5.657  71.133  1.00  0.00    -0.244 C  
HETATM    8  C   UNL     1     -11.351   6.193  70.450  1.00  0.00    -0.399 C  
HETATM    9  C   UNL     1     -11.359   7.688  70.047  1.00  0.00    -0.081 C  
HETATM   10  C   UNL     1     -11.296   8.456  71.390  1.00  0.00    -0.317 C  
HETATM   11  C   UNL     1     -10.291   8.031  68.911  1.00  0.00    -0.222 C  
HETATM   12  C   UNL     1      -9.782   9.543  69.163  1.00  0.00    -0.178 C  
HETATM   13  C   UNL     1     -10.835   7.891  67.480  1.00  0.00    -0.152 C  
HETATM   14  C   UNL     1      -8.259   9.757  69.201  1.00  0.00    -0.130 C  
HETATM   15  O   UNL     1      -5.500   7.251  69.630  1.00  0.00    -0.021 OA 
HETATM   16  C   UNL     1      -8.278   5.748  69.442  1.00  0.00    -0.108 C  
HETATM   17  C   UNL     1      -7.297   8.918  70.281  1.00  0.00    -0.067 C  
HETATM   18  C   UNL     1      -6.934   7.379  69.429  1.00  0.00    -0.061 C  
HETATM   19  H   UNL     1      -5.308   6.437  69.180  1.00  0.00     0.000 HD 
HETATM   20  C   UNL     1      -9.427   4.889  68.340  1.00  0.00    -0.187 C  
HETATM   21  C   UNL     1      -6.416  10.160  70.662  1.00  0.00    -0.086 C  
ENDROOT
BRANCH  12  22
HETATM   22  O   UNL     1     -10.298  10.449  68.166  1.00  0.00    -0.157 OA 
BRANCH  22  23
HETATM   23  C   UNL     1     -11.266  11.322  68.569  1.00  0.00    -0.252 C  
HETATM   24  O   UNL     1     -12.415  11.022  68.869  1.00  0.00    -0.460 OA 
BRANCH  23  25
HETATM   25  C   UNL     1     -10.704  12.712  68.716  1.00  0.00    -0.207 C  
BRANCH  25  26
HETATM   26  S   UNL     1     -12.027  13.955  68.749  1.00  0.00    -0.324 SA 
BRANCH  26  27
HETATM   27  C   UNL     1     -12.018  14.422  70.525  1.00  0.00    -0.325 C  
HETATM   28  C   UNL     1     -13.155  13.744  71.297  1.00  0.00    -0.370 C  
HETATM   29  C   UNL     1     -13.051  14.048  72.792  1.00  0.00    -0.537 C  
HETATM   30  C   UNL     1     -13.043  15.559  73.048  1.00  0.00    -0.524 C  
HETATM   31  N   UNL     1     -12.897  15.829  74.475  1.00  0.00    -0.855 NA 
HETATM   32  C   UNL     1     -11.918  16.249  72.268  1.00  0.00    -0.605 C  
HETATM   33  C   UNL     1     -12.012  15.947  70.769  1.00  0.00    -0.378 C  
HETATM   34  H2  UNL     1     -12.074  15.371  74.867  1.00  0.00     0.000 HD 
HETATM   35  H1  UNL     1     -12.890  16.834  74.645  1.00  0.00     0.000 HD 
HETATM   36  O   UNL     1     -10.920  16.589  70.113  1.00  0.00    -0.347 OA 
HETATM   37  H   UNL     1     -10.916  17.528  70.263  1.00  0.00     0.000 HD 
ENDBRANCH  26  27
ENDBRANCH  25  26
ENDBRANCH  23  25
ENDBRANCH  22  23
ENDBRANCH  12  22
BRANCH  17  38
HETATM   38  C   UNL     1      -7.101   8.322  71.661  1.00  0.00    -0.084 C  
HETATM   39  C   UNL     1      -6.634   8.610  72.867  1.00  0.00    -0.035 C  
ENDBRANCH  17  38
TORSDOF 6
ENDMDL
MODEL       31
REMARK 921   NORMALIZED FREE ENERGY PREDICTED BY IDOCK:   -6.02 KCAL/MOL
REMARK 922        TOTAL FREE ENERGY PREDICTED BY IDOCK:   -9.36 KCAL/MOL
REMARK 923 INTER-LIGAND FREE ENERGY PREDICTED BY IDOCK:   -8.26 KCAL/MOL
REMARK 924 INTRA-LIGAND FREE ENERGY PREDICTED BY IDOCK:   -1.10 KCAL/MOL
REMARK 927      BINDING AFFINITY PREDICTED BY RF-SCORE:    0.00 PKD
ROOT
HETATM    1  C   UNL     1      -8.271   6.315  69.750  1.00  0.00    -0.125 C  
HETATM    2  C   UNL     1      -7.122   5.934  71.352  1.00  0.00    -0.077 C  
HETATM    3  C   UNL     1      -8.089   4.604  72.390  1.00  0.00    -0.106 C  
HETATM    4  O   UNL     1      -6.040   6.437  71.625  1.00  0.00    -0.039 OA 
HETATM    5  C   UNL     1      -9.842   4.338  71.485  1.00  0.00    -0.260 C  
HETATM    6  C   UNL     1      -9.660   5.197  69.796  1.00  0.00    -0.242 C  
HETATM    7  C   UNL     1      -9.774   4.476  68.440  1.00  0.00    -0.188 C  
HETATM    8  C   UNL     1      -8.979   5.172  67.269  1.00  0.00    -0.112 C  
HETATM    9  C   UNL     1      -8.935   6.720  67.291  1.00  0.00    -0.117 C  
HETATM   10  C   UNL     1     -10.402   7.158  67.058  1.00  0.00    -0.368 C  
HETATM   11  C   UNL     1      -8.148   7.301  68.553  1.00  0.00    -0.125 C  
HETATM   12  C   UNL     1      -8.836   8.708  68.950  1.00  0.00    -0.138 C  
HETATM   13  C   UNL     1      -6.643   7.502  68.313  1.00  0.00    -0.050 C  
HETATM   14  C   UNL     1      -9.231   8.886  70.427  1.00  0.00    -0.222 C  
HETATM   15  O   UNL     1      -9.628   6.311  73.126  1.00  0.00    -0.149 OA 
HETATM   16  C   UNL     1      -8.541   4.930  70.495  1.00  0.00    -0.122 C  
HETATM   17  C   UNL     1     -10.264   7.808  71.180  1.00  0.00    -0.214 C  
HETATM   18  C   UNL     1      -9.175   6.502  71.759  1.00  0.00    -0.149 C  
HETATM   19  H   UNL     1      -9.053   5.620  73.432  1.00  0.00     0.000 HD 
HETATM   20  C   UNL     1      -7.063   4.364  69.620  1.00  0.00    -0.050 C  
HETATM   21  C   UNL     1     -11.089   8.916  71.924  1.00  0.00    -0.442 C  
ENDROOT
BRANCH  12  22
HETATM   22  O   UNL     1      -7.989   9.826  68.614  1.00  0.00    -0.086 OA 
BRANCH  22  23
HETATM   23  C   UNL     1      -8.369  10.588  67.548  1.00  0.00    -0.118 C  
HETATM   24  O   UNL     1      -7.993  10.433  66.394  1.00  0.00    -0.120 OA 
BRANCH  23  25
HETATM   25  C   UNL     1      -9.419  11.589  67.954  1.00  0.00    -0.178 C  
BRANCH  25  26
HETATM   26  S   UNL     1     -11.090  10.942  67.659  1.00  0.00    -0.308 SA 
BRANCH  26  27
HETATM   27  C   UNL     1     -11.756  12.215  66.513  1.00  0.00    -0.321 C  
HETATM   28  C   UNL     1     -11.165  12.077  65.106  1.00  0.00    -0.368 C  
HETATM   29  C   UNL     1     -11.825  13.063  64.143  1.00  0.00    -0.478 C  
HETATM   30  C   UNL     1     -11.695  14.503  64.653  1.00  0.00    -0.431 C  
HETATM   31  N   UNL     1     -12.371  15.424  63.744  1.00  0.00    -0.920 NA 
HETATM   32  C   UNL     1     -12.270  14.647  66.065  1.00  0.00    -0.166 C  
HETATM   33  C   UNL     1     -11.615  13.660  67.037  1.00  0.00    -0.359 C  
HETATM   34  H2  UNL     1     -13.344  15.161  63.589  1.00  0.00     0.000 HD 
HETATM   35  H1  UNL     1     -12.284  16.381  64.083  1.00  0.00     0.000 HD 
HETATM   36  O   UNL     1     -12.221  13.825  68.319  1.00  0.00    -0.431 OA 
HETATM   37  H   UNL     1     -12.134  14.715  68.641  1.00  0.00     0.000 HD 
ENDBRANCH  26  27
ENDBRANCH  25  26
ENDBRANCH  23  25
ENDBRANCH  22  23
ENDBRANCH  12  22
BRANCH  17  38
HETATM   38  C   UNL     1     -11.481   6.907  71.115  1.00  0.00    -0.347 C  
HETATM   39  C   UNL     1     -12.796   6.915  71.276  1.00  0.00    -0.336 C  
ENDBRANCH  17  38
TORSDOF 6
ENDMDL
MODEL       32
REMARK 921   NORMALIZED FREE ENERGY PREDICTED BY IDOCK:   -5.90 KCAL/MOL
REMARK 922        TOTAL FREE ENERGY PREDICTED BY IDOCK:   -9.21 KCAL/MOL
REMARK 923 INTER-LIGAND FREE ENERGY PREDICTED BY IDOCK:   -8.10 KCAL/MOL
REMARK 924 INTRA-LIGAND FREE ENERGY PREDICTED BY IDOCK:   -1.11 KCAL/MOL
REMARK 927      BINDING AFFINITY PREDICTED BY RF-SCORE:    0.00 PKD
ROOT
HETATM    1  C   UNL     1      -9.712   7.876  70.022  1.00  0.00    -0.179 C  
HETATM    2  C   UNL     1     -11.082   6.598  70.744  1.00  0.00    -0.286 C  
HETATM    3  C   UNL     1     -10.120   4.950  71.118  1.00  0.00    -0.277 C  
HETATM    4  O   UNL     1     -12.277   6.808  70.909  1.00  0.00    -0.385 OA 
HETATM    5  C   UNL     1      -8.256   5.218  70.473  1.00  0.00    -0.108 C  
HETATM    6  C   UNL     1      -8.116   7.085  70.132  1.00  0.00    -0.130 C  
HETATM    7  C   UNL     1      -7.134   8.028  70.853  1.00  0.00    -0.049 C  
HETATM    8  C   UNL     1      -7.608   9.531  70.914  1.00  0.00    -0.027 C  
HETATM    9  C   UNL     1      -8.383  10.060  69.682  1.00  0.00    -0.188 C  
HETATM   10  C   UNL     1      -7.348  10.041  68.530  1.00  0.00    -0.077 C  
HETATM   11  C   UNL     1      -9.786   9.328  69.471  1.00  0.00    -0.188 C  
HETATM   12  C   UNL     1     -10.075   9.281  67.882  1.00  0.00    -0.200 C  
HETATM   13  C   UNL     1     -10.959  10.006  70.197  1.00  0.00    -0.368 C  
HETATM   14  C   UNL     1     -10.452   7.910  67.294  1.00  0.00    -0.390 C  
HETATM   15  O   UNL     1     -10.024   4.480  68.752  1.00  0.00    -0.139 OA 
HETATM   16  C   UNL     1      -9.149   6.653  70.879  1.00  0.00    -0.154 C  
HETATM   17  C   UNL     1      -9.443   6.588  67.469  1.00  0.00    -0.131 C  
HETATM   18  C   UNL     1      -9.912   5.896  69.059  1.00  0.00    -0.165 C  
HETATM   19  H   UNL     1     -10.272   4.114  69.593  1.00  0.00     0.000 HD 
HETATM   20  C   UNL     1      -9.681   7.629  72.307  1.00  0.00    -0.226 C  
HETATM   21  C   UNL     1      -9.624   6.089  65.992  1.00  0.00    -0.029 C  
ENDROOT
BRANCH  12  22
HETATM   22  O   UNL     1     -11.128  10.192  67.507  1.00  0.00    -0.298 OA 
BRANCH  22  23
HETATM   23  C   UNL     1     -10.759  11.313  66.823  1.00  0.00    -0.275 C  
HETATM   24  O   UNL     1     -10.229  11.331  65.720  1.00  0.00    -0.234 OA 
BRANCH  23  25
HETATM   25  C   UNL     1     -11.198  12.554  67.556  1.00  0.00    -0.291 C  
BRANCH  25  26
HETATM   26  S   UNL     1     -11.911  13.772  66.414  1.00  0.00    -0.452 SA 
BRANCH  26  27
HETATM   27  C   UNL     1     -11.087  15.310  66.989  1.00  0.00    -0.305 C  
HETATM   28  C   UNL     1      -9.667  15.438  66.425  1.00  0.00    -0.311 C  
HETATM   29  C   UNL     1      -9.050  16.781  66.814  1.00  0.00    -0.263 C  
HETATM   30  C   UNL     1      -9.054  16.970  68.336  1.00  0.00    -0.256 C  
HETATM   31  N   UNL     1      -8.503  18.276  68.684  1.00  0.00    -0.310 NA 
HETATM   32  C   UNL     1     -10.467  16.828  68.910  1.00  0.00    -0.332 C  
HETATM   33  C   UNL     1     -11.095  15.486  68.522  1.00  0.00    -0.307 C  
HETATM   34  H2  UNL     1      -8.989  19.034  68.205  1.00  0.00     0.000 HD 
HETATM   35  H1  UNL     1      -8.506  18.402  69.696  1.00  0.00     0.000 HD 
HETATM   36  O   UNL     1     -12.417  15.438  69.059  1.00  0.00    -0.602 OA 
HETATM   37  H   UNL     1     -12.422  15.546  70.003  1.00  0.00     0.000 HD 
ENDBRANCH  26  27
ENDBRANCH  25  26
ENDBRANCH  23  25
ENDBRANCH  22  23
ENDBRANCH  12  22
BRANCH  17  38
HETATM   38  C   UNL     1      -8.039   6.018  67.518  1.00  0.00    -0.102 C  
HETATM   39  C   UNL     1      -6.986   5.768  66.754  1.00  0.00    -0.065 C  
ENDBRANCH  17  38
TORSDOF 6
ENDMDL
MODEL       33
REMARK 921   NORMALIZED FREE ENERGY PREDICTED BY IDOCK:   -5.88 KCAL/MOL
REMARK 922        TOTAL FREE ENERGY PREDICTED BY IDOCK:   -9.18 KCAL/MOL
REMARK 923 INTER-LIGAND FREE ENERGY PREDICTED BY IDOCK:   -8.77 KCAL/MOL
REMARK 924 INTRA-LIGAND FREE ENERGY PREDICTED BY IDOCK:   -0.41 KCAL/MOL
REMARK 927      BINDING AFFINITY PREDICTED BY RF-SCORE:    0.00 PKD
ROOT
HETATM    1  C   UNL     1      -9.349   9.553  66.994  1.00  0.00    -0.183 C  
HETATM    2  C   UNL     1      -9.957   7.655  66.754  1.00  0.00    -0.247 C  
HETATM    3  C   UNL     1      -8.359   6.642  66.309  1.00  0.00    -0.125 C  
HETATM    4  O   UNL     1     -11.099   7.223  66.858  1.00  0.00    -0.287 OA 
HETATM    5  C   UNL     1      -6.877   7.959  66.139  1.00  0.00    -0.058 C  
HETATM    6  C   UNL     1      -7.570   9.577  66.862  1.00  0.00    -0.095 C  
HETATM    7  C   UNL     1      -6.982  10.302  68.087  1.00  0.00    -0.074 C  
HETATM    8  C   UNL     1      -8.024  11.182  68.879  1.00  0.00    -0.126 C  
HETATM    9  C   UNL     1      -9.103  11.901  68.033  1.00  0.00    -0.189 C  
HETATM   10  C   UNL     1      -8.316  12.929  67.184  1.00  0.00    -0.158 C  
HETATM   11  C   UNL     1     -10.091  10.886  67.296  1.00  0.00    -0.225 C  
HETATM   12  C   UNL     1     -10.541  11.571  65.903  1.00  0.00    -0.268 C  
HETATM   13  C   UNL     1     -11.333  10.512  68.121  1.00  0.00    -0.324 C  
HETATM   14  C   UNL     1     -10.389  10.712  64.635  1.00  0.00    -0.353 C  
HETATM   15  O   UNL     1      -8.389   7.586  64.088  1.00  0.00    -0.354 OA 
HETATM   16  C   UNL     1      -8.223   8.431  67.133  1.00  0.00    -0.108 C  
HETATM   17  C   UNL     1      -8.909  10.065  64.203  1.00  0.00    -0.244 C  
HETATM   18  C   UNL     1      -8.835   8.517  65.111  1.00  0.00    -0.071 C  
HETATM   19  H   UNL     1      -8.350   6.767  64.568  1.00  0.00     0.000 HD 
HETATM   20  C   UNL     1      -8.918   8.175  68.783  1.00  0.00    -0.144 C  
HETATM   21  C   UNL     1      -9.060  10.401  62.678  1.00  0.00    -0.305 C  
ENDROOT
BRANCH  12  22
HETATM   22  O   UNL     1     -11.917  12.002  65.944  1.00  0.00    -0.540 OA 
BRANCH  22  23
HETATM   23  C   UNL     1     -12.384  12.674  64.852  1.00  0.00    -0.498 C  
HETATM   24  O   UNL     1     -12.886  12.160  63.862  1.00  0.00    -0.687 OA 
BRANCH  23  25
HETATM   25  C   UNL     1     -12.312  14.163  65.071  1.00  0.00    -0.440 C  
BRANCH  25  26
HETATM   26  S   UNL     1     -10.598  14.757  64.980  1.00  0.00    -0.409 SA 
BRANCH  26  27
HETATM   27  C   UNL     1     -10.605  16.037  66.297  1.00  0.00    -0.285 C  
HETATM   28  C   UNL     1      -9.357  16.924  66.235  1.00  0.00    -0.292 C  
HETATM   29  C   UNL     1      -9.445  18.056  67.258  1.00  0.00    -0.260 C  
HETATM   30  C   UNL     1      -9.655  17.505  68.673  1.00  0.00    -0.303 C  
HETATM   31  N   UNL     1      -9.783  18.602  69.628  1.00  0.00     0.235 NA 
HETATM   32  C   UNL     1     -10.893  16.605  68.742  1.00  0.00    -0.331 C  
HETATM   33  C   UNL     1     -10.814  15.469  67.718  1.00  0.00    -0.309 C  
HETATM   34  H2  UNL     1     -10.519  19.256  69.360  1.00  0.00     0.000 HD 
HETATM   35  H1  UNL     1      -9.923  18.236  70.569  1.00  0.00     0.000 HD 
HETATM   36  O   UNL     1     -12.009  14.695  67.814  1.00  0.00    -0.486 OA 
HETATM   37  H   UNL     1     -12.138  14.346  68.688  1.00  0.00     0.000 HD 
ENDBRANCH  26  27
ENDBRANCH  25  26
ENDBRANCH  23  25
ENDBRANCH  22  23
ENDBRANCH  12  22
BRANCH  17  38
HETATM   38  C   UNL     1      -7.402  10.204  64.113  1.00  0.00    -0.108 C  
HETATM   39  C   UNL     1      -6.412  10.289  63.237  1.00  0.00    -0.120 C  
ENDBRANCH  17  38
TORSDOF 6
ENDMDL
MODEL       34
REMARK 921   NORMALIZED FREE ENERGY PREDICTED BY IDOCK:   -5.88 KCAL/MOL
REMARK 922        TOTAL FREE ENERGY PREDICTED BY IDOCK:   -9.17 KCAL/MOL
REMARK 923 INTER-LIGAND FREE ENERGY PREDICTED BY IDOCK:   -8.49 KCAL/MOL
REMARK 924 INTRA-LIGAND FREE ENERGY PREDICTED BY IDOCK:   -0.69 KCAL/MOL
REMARK 927      BINDING AFFINITY PREDICTED BY RF-SCORE:    0.00 PKD
ROOT
HETATM    1  C   UNL     1      -9.924  16.492  67.702  1.00  0.00    -0.254 C  
HETATM    2  C   UNL     1      -9.274  18.356  68.066  1.00  0.00    -0.293 C  
HETATM    3  C   UNL     1      -7.742  18.617  66.898  1.00  0.00    -0.241 C  
HETATM    4  O   UNL     1      -9.740  19.161  68.862  1.00  0.00    -0.403 OA 
HETATM    5  C   UNL     1      -7.413  16.877  65.989  1.00  0.00    -0.029 C  
HETATM    6  C   UNL     1      -8.961  15.832  66.352  1.00  0.00    -0.366 C  
HETATM    7  C   UNL     1      -9.913  15.286  65.271  1.00  0.00    -0.322 C  
HETATM    8  C   UNL     1     -11.389  15.045  65.772  1.00  0.00    -0.279 C  
HETATM    9  C   UNL     1     -11.549  14.546  67.230  1.00  0.00    -0.405 C  
HETATM   10  C   UNL     1     -10.918  13.131  67.231  1.00  0.00    -0.288 C  
HETATM   11  C   UNL     1     -11.054  15.613  68.309  1.00  0.00    -0.336 C  
HETATM   12  C   UNL     1     -10.470  14.792  69.572  1.00  0.00    -0.152 C  
HETATM   13  C   UNL     1     -12.151  16.583  68.776  1.00  0.00     0.672 C  
HETATM   14  C   UNL     1      -9.069  15.196  70.064  1.00  0.00     0.306 C  
HETATM   15  O   UNL     1      -6.414  17.209  68.340  1.00  0.00    -0.150 OA 
HETATM   16  C   UNL     1      -9.030  17.160  66.561  1.00  0.00    -0.300 C  
HETATM   17  C   UNL     1      -7.751  15.170  69.035  1.00  0.00    -0.177 C  
HETATM   18  C   UNL     1      -7.798  16.777  68.235  1.00  0.00    -0.194 C  
HETATM   19  H   UNL     1      -6.438  18.059  67.916  1.00  0.00     0.000 HD 
HETATM   20  C   UNL     1     -10.546  18.047  66.128  1.00  0.00    -0.269 C  
HETATM   21  C   UNL     1      -6.778  14.529  70.087  1.00  0.00    -0.089 C  
ENDROOT
BRANCH  12  22
HETATM   22  O   UNL     1     -11.347  14.879  70.713  1.00  0.00    -0.269 OA 
BRANCH  22  23
HETATM   23  C   UNL     1     -12.463  14.095  70.694  1.00  0.00    -0.362 C  
HETATM   24  O   UNL     1     -13.617  14.501  70.643  1.00  0.00    -0.165 OA 
BRANCH  23  25
HETATM   25  C   UNL     1     -12.090  12.637  70.623  1.00  0.00    -0.226 C  
BRANCH  25  26
HETATM   26  S   UNL     1     -13.087  11.648  71.774  1.00  0.00    -0.255 SA 
BRANCH  26  27
HETATM   27  C   UNL     1     -12.234  10.025  71.665  1.00  0.00    -0.367 C  
HETATM   28  C   UNL     1     -11.480   9.868  70.341  1.00  0.00    -0.372 C  
HETATM   29  C   UNL     1     -10.677   8.566  70.326  1.00  0.00    -0.242 C  
HETATM   30  C   UNL     1     -11.583   7.357  70.587  1.00  0.00    -0.268 C  
HETATM   31  N   UNL     1     -10.792   6.131  70.615  1.00  0.00    -0.272 NA 
HETATM   32  C   UNL     1     -12.353   7.513  71.903  1.00  0.00    -0.342 C  
HETATM   33  C   UNL     1     -13.157   8.816  71.927  1.00  0.00    -0.378 C  
HETATM   34  H2  UNL     1     -10.027   6.186  71.287  1.00  0.00     0.000 HD 
HETATM   35  H1  UNL     1     -11.394   5.327  70.789  1.00  0.00     0.000 HD 
HETATM   36  O   UNL     1     -13.818   8.911  73.189  1.00  0.00    -1.084 OA 
HETATM   37  H   UNL     1     -14.386   8.167  73.350  1.00  0.00     0.000 HD 
ENDBRANCH  26  27
ENDBRANCH  25  26
ENDBRANCH  23  25
ENDBRANCH  22  23
ENDBRANCH  12  22
BRANCH  17  38
HETATM   38  C   UNL     1      -7.000  14.509  67.897  1.00  0.00    -0.173 C  
HETATM   39  C   UNL     1      -6.534  13.335  67.495  1.00  0.00    -0.143 C  
ENDBRANCH  17  38
TORSDOF 6
ENDMDL
MODEL       35
REMARK 921   NORMALIZED FREE ENERGY PREDICTED BY IDOCK:   -5.88 KCAL/MOL
REMARK 922        TOTAL FREE ENERGY PREDICTED BY IDOCK:   -9.17 KCAL/MOL
REMARK 923 INTER-LIGAND FREE ENERGY PREDICTED BY IDOCK:   -7.92 KCAL/MOL
REMARK 924 INTRA-LIGAND FREE ENERGY PREDICTED BY IDOCK:   -1.25 KCAL/MOL
REMARK 927      BINDING AFFINITY PREDICTED BY RF-SCORE:    0.00 PKD
ROOT
HETATM    1  C   UNL     1      -8.517   6.015  68.775  1.00  0.00    -0.113 C  
HETATM    2  C   UNL     1      -7.240   4.618  68.109  1.00  0.00    -0.065 C  
HETATM    3  C   UNL     1      -6.957   3.407  69.604  1.00  0.00    -0.041 C  
HETATM    4  O   UNL     1      -6.736   4.543  66.995  1.00  0.00    -0.049 OA 
HETATM    5  C   UNL     1      -7.930   4.182  71.158  1.00  0.00    -0.071 C  
HETATM    6  C   UNL     1      -9.029   5.548  70.419  1.00  0.00    -0.156 C  
HETATM    7  C   UNL     1     -10.567   5.559  70.492  1.00  0.00    -0.339 C  
HETATM    8  C   UNL     1     -11.264   6.357  69.323  1.00  0.00    -0.440 C  
HETATM    9  C   UNL     1     -10.531   7.626  68.822  1.00  0.00    -0.208 C  
HETATM   10  C   UNL     1     -10.577   8.605  70.021  1.00  0.00    -0.233 C  
HETATM   11  C   UNL     1      -9.122   7.302  68.144  1.00  0.00    -0.134 C  
HETATM   12  C   UNL     1      -8.142   8.552  68.440  1.00  0.00    -0.122 C  
HETATM   13  C   UNL     1      -9.202   7.044  66.631  1.00  0.00    -0.189 C  
HETATM   14  C   UNL     1      -6.760   8.215  69.028  1.00  0.00    -0.048 C  
HETATM   15  O   UNL     1      -5.560   5.062  70.668  1.00  0.00    -0.014 OA 
HETATM   16  C   UNL     1      -8.500   4.638  69.580  1.00  0.00    -0.088 C  
HETATM   17  C   UNL     1      -6.615   7.358  70.456  1.00  0.00    -0.043 C  
HETATM   18  C   UNL     1      -6.673   5.640  69.935  1.00  0.00    -0.051 C  
HETATM   19  H   UNL     1      -5.590   4.154  70.393  1.00  0.00     0.000 HD 
HETATM   20  C   UNL     1      -9.497   4.016  68.205  1.00  0.00    -0.215 C  
HETATM   21  C   UNL     1      -5.468   8.260  71.034  1.00  0.00    -0.029 C  
ENDROOT
BRANCH  12  22
HETATM   22  O   UNL     1      -7.902   9.331  67.250  1.00  0.00    -0.098 OA 
BRANCH  22  23
HETATM   23  C   UNL     1      -8.120  10.675  67.340  1.00  0.00    -0.112 C  
HETATM   24  O   UNL     1      -7.258  11.524  67.523  1.00  0.00    -0.097 OA 
BRANCH  23  25
HETATM   25  C   UNL     1      -9.565  11.001  67.063  1.00  0.00    -0.177 C  
BRANCH  25  26
HETATM   26  S   UNL     1     -10.023  10.562  65.362  1.00  0.00    -0.296 SA 
BRANCH  26  27
HETATM   27  C   UNL     1     -10.488  12.208  64.693  1.00  0.00    -0.299 C  
HETATM   28  C   UNL     1     -10.223  13.328  65.705  1.00  0.00    -0.296 C  
HETATM   29  C   UNL     1     -10.499  14.697  65.083  1.00  0.00    -0.440 C  
HETATM   30  C   UNL     1     -11.930  14.777  64.540  1.00  0.00    -0.440 C  
HETATM   31  N   UNL     1     -12.159  16.074  63.909  1.00  0.00    -1.257 NA 
HETATM   32  C   UNL     1     -12.209  13.652  63.538  1.00  0.00    -0.329 C  
HETATM   33  C   UNL     1     -11.932  12.277  64.152  1.00  0.00    -0.432 C  
HETATM   34  H2  UNL     1     -11.466  16.274  63.188  1.00  0.00     0.000 HD 
HETATM   35  H1  UNL     1     -13.111  16.127  63.547  1.00  0.00     0.000 HD 
HETATM   36  O   UNL     1     -12.178  11.283  63.157  1.00  0.00    -0.814 OA 
HETATM   37  H   UNL     1     -13.067  11.325  62.825  1.00  0.00     0.000 HD 
ENDBRANCH  26  27
ENDBRANCH  25  26
ENDBRANCH  23  25
ENDBRANCH  22  23
ENDBRANCH  12  22
BRANCH  17  38
HETATM   38  C   UNL     1      -7.121   7.059  71.854  1.00  0.00    -0.069 C  
HETATM   39  C   UNL     1      -7.746   7.618  72.880  1.00  0.00    -0.122 C  
ENDBRANCH  17  38
TORSDOF 6
ENDMDL
MODEL       36
REMARK 921   NORMALIZED FREE ENERGY PREDICTED BY IDOCK:   -5.87 KCAL/MOL
REMARK 922        TOTAL FREE ENERGY PREDICTED BY IDOCK:   -9.17 KCAL/MOL
REMARK 923 INTER-LIGAND FREE ENERGY PREDICTED BY IDOCK:   -7.58 KCAL/MOL
REMARK 924 INTRA-LIGAND FREE ENERGY PREDICTED BY IDOCK:   -1.59 KCAL/MOL
REMARK 927      BINDING AFFINITY PREDICTED BY RF-SCORE:    0.00 PKD
ROOT
HETATM    1  C   UNL     1      -8.183   7.391  69.466  1.00  0.00    -0.131 C  
HETATM    2  C   UNL     1      -6.815   7.948  70.825  1.00  0.00    -0.041 C  
HETATM    3  C   UNL     1      -7.312   7.045  72.474  1.00  0.00    -0.080 C  
HETATM    4  O   UNL     1      -5.867   8.705  70.657  1.00  0.00    -0.031 OA 
HETATM    5  C   UNL     1      -9.030   6.106  72.115  1.00  0.00    -0.142 C  
HETATM    6  C   UNL     1      -9.242   6.172  70.225  1.00  0.00    -0.165 C  
HETATM    7  C   UNL     1      -9.316   4.931  69.316  1.00  0.00    -0.185 C  
HETATM    8  C   UNL     1      -8.843   5.186  67.833  1.00  0.00    -0.104 C  
HETATM    9  C   UNL     1      -9.179   6.573  67.232  1.00  0.00    -0.124 C  
HETATM   10  C   UNL     1     -10.725   6.597  67.140  1.00  0.00    -0.440 C  
HETATM   11  C   UNL     1      -8.432   7.770  67.978  1.00  0.00    -0.123 C  
HETATM   12  C   UNL     1      -9.399   9.063  67.913  1.00  0.00    -0.141 C  
HETATM   13  C   UNL     1      -7.056   8.114  67.384  1.00  0.00    -0.083 C  
HETATM   14  C   UNL     1      -9.670   9.785  69.245  1.00  0.00    -0.204 C  
HETATM   15  O   UNL     1      -9.138   8.597  72.763  1.00  0.00    -0.327 OA 
HETATM   16  C   UNL     1      -8.025   6.437  70.736  1.00  0.00    -0.111 C  
HETATM   17  C   UNL     1     -10.321   8.970  70.552  1.00  0.00    -0.266 C  
HETATM   18  C   UNL     1      -8.890   8.258  71.372  1.00  0.00    -0.162 C  
HETATM   19  H   UNL     1      -8.381   8.220  73.197  1.00  0.00     0.000 HD 
HETATM   20  C   UNL     1      -6.553   5.825  69.882  1.00  0.00    -0.046 C  
HETATM   21  C   UNL     1     -11.311  10.123  70.944  1.00  0.00    -0.420 C  
ENDROOT
BRANCH  12  22
HETATM   22  O   UNL     1      -8.893  10.059  67.002  1.00  0.00    -0.137 OA 
BRANCH  22  23
HETATM   23  C   UNL     1      -9.774  10.567  66.093  1.00  0.00    -0.209 C  
HETATM   24  O   UNL     1     -10.641   9.929  65.510  1.00  0.00    -0.007 OA 
BRANCH  23  25
HETATM   25  C   UNL     1      -9.623  12.062  65.979  1.00  0.00    -0.234 C  
BRANCH  25  26
HETATM   26  S   UNL     1     -11.159  12.834  65.397  1.00  0.00    -0.293 SA 
BRANCH  26  27
HETATM   27  C   UNL     1     -11.641  13.807  66.879  1.00  0.00    -0.370 C  
HETATM   28  C   UNL     1     -10.852  15.117  66.980  1.00  0.00    -0.314 C  
HETATM   29  C   UNL     1     -11.357  15.964  68.147  1.00  0.00    -0.311 C  
HETATM   30  C   UNL     1     -11.292  15.183  69.465  1.00  0.00    -0.285 C  
HETATM   31  N   UNL     1     -11.821  15.992  70.558  1.00  0.00    -0.438 NA 
HETATM   32  C   UNL     1     -12.066  13.864  69.368  1.00  0.00    -0.384 C  
HETATM   33  C   UNL     1     -11.568  13.010  68.199  1.00  0.00    -0.341 C  
HETATM   34  H2  UNL     1     -12.763  16.329  70.361  1.00  0.00     0.000 HD 
HETATM   35  H1  UNL     1     -11.778  15.473  71.434  1.00  0.00     0.000 HD 
HETATM   36  O   UNL     1     -12.352  11.818  68.149  1.00  0.00    -0.389 OA 
HETATM   37  H   UNL     1     -12.307  11.328  68.961  1.00  0.00     0.000 HD 
ENDBRANCH  26  27
ENDBRANCH  25  26
ENDBRANCH  23  25
ENDBRANCH  22  23
ENDBRANCH  12  22
BRANCH  17  38
HETATM   38  C   UNL     1     -11.279   7.927  71.092  1.00  0.00    -0.284 C  
HETATM   39  C   UNL     1     -12.562   7.596  71.107  1.00  0.00    -0.257 C  
ENDBRANCH  17  38
TORSDOF 6
ENDMDL
MODEL       37
REMARK 921   NORMALIZED FREE ENERGY PREDICTED BY IDOCK:   -5.82 KCAL/MOL
REMARK 922        TOTAL FREE ENERGY PREDICTED BY IDOCK:   -9.10 KCAL/MOL
REMARK 923 INTER-LIGAND FREE ENERGY PREDICTED BY IDOCK:   -7.85 KCAL/MOL
REMARK 924 INTRA-LIGAND FREE ENERGY PREDICTED BY IDOCK:   -1.25 KCAL/MOL
REMARK 927      BINDING AFFINITY PREDICTED BY RF-SCORE:    0.00 PKD
ROOT
HETATM    1  C   UNL     1      -9.729  13.065  67.493  1.00  0.00    -0.206 C  
HETATM    2  C   UNL     1      -8.712  14.698  66.920  1.00  0.00    -0.224 C  
HETATM    3  C   UNL     1     -10.041  15.917  66.193  1.00  0.00    -0.334 C  
HETATM    4  O   UNL     1      -7.505  14.887  67.003  1.00  0.00    -0.145 OA 
HETATM    5  C   UNL     1     -11.776  14.942  66.200  1.00  0.00    -0.178 C  
HETATM    6  C   UNL     1     -11.467  13.396  67.266  1.00  0.00    -0.374 C  
HETATM    7  C   UNL     1     -12.218  13.079  68.573  1.00  0.00    -0.038 C  
HETATM    8  C   UNL     1     -11.407  12.178  69.582  1.00  0.00    -0.223 C  
HETATM    9  C   UNL     1     -10.502  11.087  68.957  1.00  0.00    -0.242 C  
HETATM   10  C   UNL     1     -11.487  10.100  68.282  1.00  0.00    -0.074 C  
HETATM   11  C   UNL     1      -9.305  11.694  68.093  1.00  0.00    -0.188 C  
HETATM   12  C   UNL     1      -9.000  10.658  66.891  1.00  0.00    -0.137 C  
HETATM   13  C   UNL     1      -8.022  11.954  68.899  1.00  0.00     0.040 C  
HETATM   14  C   UNL     1      -8.941  11.252  65.472  1.00  0.00    -0.139 C  
HETATM   15  O   UNL     1     -10.191  14.555  64.206  1.00  0.00    -0.465 OA 
HETATM   16  C   UNL     1     -10.581  14.406  67.343  1.00  0.00    -0.270 C  
HETATM   17  C   UNL     1     -10.235  12.099  64.837  1.00  0.00    -0.309 C  
HETATM   18  C   UNL     1      -9.976  13.779  65.417  1.00  0.00    -0.229 C  
HETATM   19  H   UNL     1     -10.055  15.444  64.513  1.00  0.00     0.000 HD 
HETATM   20  C   UNL     1      -9.868  14.839  68.948  1.00  0.00    -0.222 C  
HETATM   21  C   UNL     1     -10.142  11.434  63.418  1.00  0.00    -0.444 C  
ENDROOT
BRANCH  12  22
HETATM   22  O   UNL     1      -7.754   9.960  67.095  1.00  0.00    -0.092 OA 
BRANCH  22  23
HETATM   23  C   UNL     1      -7.785   8.601  66.982  1.00  0.00    -0.095 C  
HETATM   24  O   UNL     1      -7.235   7.948  66.105  1.00  0.00    -0.071 OA 
BRANCH  23  25
HETATM   25  C   UNL     1      -8.494   7.983  68.159  1.00  0.00    -0.123 C  
BRANCH  25  26
HETATM   26  S   UNL     1      -8.397   6.171  68.105  1.00  0.00    -0.113 SA 
BRANCH  26  27
HETATM   27  C   UNL     1      -9.621   5.720  69.399  1.00  0.00    -0.140 C  
HETATM   28  C   UNL     1     -10.649   6.835  69.620  1.00  0.00    -0.267 C  
HETATM   29  C   UNL     1     -11.728   6.388  70.607  1.00  0.00    -0.377 C  
HETATM   30  C   UNL     1     -11.109   5.943  71.937  1.00  0.00    -0.268 C  
HETATM   31  N   UNL     1     -12.149   5.477  72.848  1.00  0.00    -0.510 NA 
HETATM   32  C   UNL     1     -10.068   4.839  71.723  1.00  0.00    -0.261 C  
HETATM   33  C   UNL     1      -8.985   5.277  70.733  1.00  0.00    -0.136 C  
HETATM   34  H2  UNL     1     -12.722   4.744  72.429  1.00  0.00     0.000 HD 
HETATM   35  H1  UNL     1     -11.737   5.181  73.732  1.00  0.00     0.000 HD 
HETATM   36  O   UNL     1      -8.074   4.192  70.557  1.00  0.00    -0.055 OA 
HETATM   37  H   UNL     1      -7.682   3.920  71.378  1.00  0.00     0.000 HD 
ENDBRANCH  26  27
ENDBRANCH  25  26
ENDBRANCH  23  25
ENDBRANCH  22  23
ENDBRANCH  12  22
BRANCH  17  38
HETATM   38  C   UNL     1     -11.734  12.271  64.688  1.00  0.00    -0.420 C  
HETATM   39  C   UNL     1     -12.703  12.247  63.785  1.00  0.00    -0.516 C  
ENDBRANCH  17  38
TORSDOF 6
ENDMDL
MODEL       38
REMARK 921   NORMALIZED FREE ENERGY PREDICTED BY IDOCK:   -5.81 KCAL/MOL
REMARK 922        TOTAL FREE ENERGY PREDICTED BY IDOCK:   -9.08 KCAL/MOL
REMARK 923 INTER-LIGAND FREE ENERGY PREDICTED BY IDOCK:   -7.86 KCAL/MOL
REMARK 924 INTRA-LIGAND FREE ENERGY PREDICTED BY IDOCK:   -1.22 KCAL/MOL
REMARK 927      BINDING AFFINITY PREDICTED BY RF-SCORE:    0.00 PKD
ROOT
HETATM    1  C   UNL     1     -10.401  14.606  68.307  1.00  0.00    -0.230 C  
HETATM    2  C   UNL     1     -10.581  15.683  69.991  1.00  0.00    -0.332 C  
HETATM    3  C   UNL     1     -10.581  17.545  69.429  1.00  0.00     0.095 C  
HETATM    4  O   UNL     1     -10.665  15.260  71.137  1.00  0.00    -0.213 OA 
HETATM    5  C   UNL     1     -10.247  17.548  67.467  1.00  0.00    -0.340 C  
HETATM    6  C   UNL     1     -10.461  15.736  66.928  1.00  0.00    -0.315 C  
HETATM    7  C   UNL     1     -11.521  15.249  65.921  1.00  0.00    -0.092 C  
HETATM    8  C   UNL     1     -11.949  13.743  66.111  1.00  0.00    -0.449 C  
HETATM    9  C   UNL     1     -10.837  12.762  66.558  1.00  0.00    -0.280 C  
HETATM   10  C   UNL     1      -9.848  12.722  65.367  1.00  0.00    -0.143 C  
HETATM   11  C   UNL     1     -10.276  13.083  68.017  1.00  0.00    -0.233 C  
HETATM   12  C   UNL     1      -8.716  12.664  68.041  1.00  0.00    -0.190 C  
HETATM   13  C   UNL     1     -11.029  12.365  69.148  1.00  0.00    -0.206 C  
HETATM   14  C   UNL     1      -7.728  13.723  68.563  1.00  0.00    -0.138 C  
HETATM   15  O   UNL     1      -8.204  17.414  69.029  1.00  0.00    -0.206 OA 
HETATM   16  C   UNL     1     -10.938  16.099  68.133  1.00  0.00    -0.341 C  
HETATM   17  C   UNL     1      -7.636  15.237  67.860  1.00  0.00    -0.152 C  
HETATM   18  C   UNL     1      -8.906  16.183  68.708  1.00  0.00    -0.233 C  
HETATM   19  H   UNL     1      -8.875  17.915  69.478  1.00  0.00     0.000 HD 
HETATM   20  C   UNL     1     -12.514  15.419  68.704  1.00  0.00     0.363 C  
HETATM   21  C   UNL     1      -6.068  15.296  67.883  1.00  0.00    -0.169 C  
ENDROOT
BRANCH  12  22
HETATM   22  O   UNL     1      -8.498  11.476  68.829  1.00  0.00    -0.137 OA 
BRANCH  22  23
HETATM   23  C   UNL     1      -8.097  10.357  68.159  1.00  0.00    -0.111 C  
HETATM   24  O   UNL     1      -7.826  10.301  66.967  1.00  0.00    -0.105 OA 
BRANCH  23  25
HETATM   25  C   UNL     1      -7.913   9.202  69.109  1.00  0.00    -0.097 C  
BRANCH  25  26
HETATM   26  S   UNL     1      -9.019   7.825  68.690  1.00  0.00    -0.132 SA 
BRANCH  26  27
HETATM   27  C   UNL     1     -10.470   8.213  69.748  1.00  0.00    -0.227 C  
HETATM   28  C   UNL     1     -10.095   9.140  70.910  1.00  0.00    -0.356 C  
HETATM   29  C   UNL     1     -11.339   9.548  71.699  1.00  0.00    -0.411 C  
HETATM   30  C   UNL     1     -12.100   8.317  72.205  1.00  0.00    -0.367 C  
HETATM   31  N   UNL     1     -13.307   8.727  72.916  1.00  0.00    -0.837 NA 
HETATM   32  C   UNL     1     -12.466   7.378  71.051  1.00  0.00    -0.285 C  
HETATM   33  C   UNL     1     -11.226   6.965  70.252  1.00  0.00    -0.316 C  
HETATM   34  H2  UNL     1     -13.898   9.333  72.346  1.00  0.00     0.000 HD 
HETATM   35  H1  UNL     1     -13.813   7.908  73.252  1.00  0.00     0.000 HD 
HETATM   36  O   UNL     1     -11.644   6.123  69.179  1.00  0.00    -0.443 OA 
HETATM   37  H   UNL     1     -12.109   5.355  69.490  1.00  0.00     0.000 HD 
ENDBRANCH  26  27
ENDBRANCH  25  26
ENDBRANCH  23  25
ENDBRANCH  22  23
ENDBRANCH  12  22
BRANCH  17  38
HETATM   38  C   UNL     1      -7.677  16.101  66.615  1.00  0.00    -0.265 C  
HETATM   39  C   UNL     1      -6.990  17.028  65.964  1.00  0.00     0.031 C  
ENDBRANCH  17  38
TORSDOF 6
ENDMDL
MODEL       39
REMARK 921   NORMALIZED FREE ENERGY PREDICTED BY IDOCK:   -5.80 KCAL/MOL
REMARK 922        TOTAL FREE ENERGY PREDICTED BY IDOCK:   -9.06 KCAL/MOL
REMARK 923 INTER-LIGAND FREE ENERGY PREDICTED BY IDOCK:   -7.70 KCAL/MOL
REMARK 924 INTRA-LIGAND FREE ENERGY PREDICTED BY IDOCK:   -1.37 KCAL/MOL
REMARK 927      BINDING AFFINITY PREDICTED BY RF-SCORE:    0.00 PKD
ROOT
HETATM    1  C   UNL     1      -9.199   6.722  69.194  1.00  0.00    -0.137 C  
HETATM    2  C   UNL     1      -8.085   5.475  68.083  1.00  0.00    -0.096 C  
HETATM    3  C   UNL     1      -6.733   4.763  69.285  1.00  0.00    -0.048 C  
HETATM    4  O   UNL     1      -8.221   5.220  66.893  1.00  0.00    -0.108 OA 
HETATM    5  C   UNL     1      -6.963   5.704  71.024  1.00  0.00    -0.065 C  
HETATM    6  C   UNL     1      -8.636   6.598  70.882  1.00  0.00    -0.134 C  
HETATM    7  C   UNL     1      -9.845   6.329  71.799  1.00  0.00    -0.182 C  
HETATM    8  C   UNL     1     -11.241   6.652  71.141  1.00  0.00    -0.340 C  
HETATM    9  C   UNL     1     -11.286   7.869  70.184  1.00  0.00    -0.157 C  
HETATM   10  C   UNL     1     -11.009   9.092  71.092  1.00  0.00    -0.390 C  
HETATM   11  C   UNL     1     -10.396   7.663  68.875  1.00  0.00    -0.222 C  
HETATM   12  C   UNL     1      -9.831   9.112  68.438  1.00  0.00    -0.164 C  
HETATM   13  C   UNL     1     -11.151   7.018  67.701  1.00  0.00    -0.190 C  
HETATM   14  C   UNL     1      -8.316   9.211  68.187  1.00  0.00    -0.120 C  
HETATM   15  O   UNL     1      -5.564   6.874  69.205  1.00  0.00    -0.017 OA 
HETATM   16  C   UNL     1      -8.361   5.624  69.995  1.00  0.00    -0.121 C  
HETATM   17  C   UNL     1      -7.216   8.790  69.374  1.00  0.00    -0.061 C  
HETATM   18  C   UNL     1      -7.009   7.019  69.160  1.00  0.00    -0.078 C  
HETATM   19  H   UNL     1      -5.454   5.937  69.092  1.00  0.00     0.000 HD 
HETATM   20  C   UNL     1      -9.677   4.492  69.485  1.00  0.00    -0.282 C  
HETATM   21  C   UNL     1      -6.268  10.014  69.113  1.00  0.00    -0.040 C  
ENDROOT
BRANCH  12  22
HETATM   22  O   UNL     1     -10.477   9.594  67.242  1.00  0.00    -0.239 OA 
BRANCH  22  23
HETATM   23  C   UNL     1     -11.181  10.758  67.348  1.00  0.00    -0.241 C  
HETATM   24  O   UNL     1     -12.026  11.002  68.200  1.00  0.00    -0.610 OA 
BRANCH  23  25
HETATM   25  C   UNL     1     -10.700  11.768  66.340  1.00  0.00    -0.266 C  
BRANCH  25  26
HETATM   26  S   UNL     1     -12.081  12.744  65.678  1.00  0.00    -0.438 SA 
BRANCH  26  27
HETATM   27  C   UNL     1     -11.600  14.433  66.216  1.00  0.00    -0.372 C  
HETATM   28  C   UNL     1     -10.421  14.975  65.401  1.00  0.00    -0.406 C  
HETATM   29  C   UNL     1     -10.121  16.425  65.781  1.00  0.00    -0.352 C  
HETATM   30  C   UNL     1      -9.854  16.558  67.285  1.00  0.00    -0.254 C  
HETATM   31  N   UNL     1      -9.616  17.955  67.634  1.00  0.00    -0.266 NA 
HETATM   32  C   UNL     1     -11.022  16.004  68.108  1.00  0.00    -0.339 C  
HETATM   33  C   UNL     1     -11.331  14.552  67.732  1.00  0.00    -0.317 C  
HETATM   34  H2  UNL     1     -10.379  18.559  67.328  1.00  0.00     0.000 HD 
HETATM   35  H1  UNL     1      -9.439  18.043  68.634  1.00  0.00     0.000 HD 
HETATM   36  O   UNL     1     -12.445  14.115  68.509  1.00  0.00    -0.533 OA 
HETATM   37  H   UNL     1     -12.279  14.188  69.442  1.00  0.00     0.000 HD 
ENDBRANCH  26  27
ENDBRANCH  25  26
ENDBRANCH  23  25
ENDBRANCH  22  23
ENDBRANCH  12  22
BRANCH  17  38
HETATM   38  C   UNL     1      -6.824   8.764  70.838  1.00  0.00    -0.068 C  
HETATM   39  C   UNL     1      -5.991   9.320  71.706  1.00  0.00    -0.044 C  
ENDBRANCH  17  38
TORSDOF 6
ENDMDL
MODEL       40
REMARK 921   NORMALIZED FREE ENERGY PREDICTED BY IDOCK:   -5.78 KCAL/MOL
REMARK 922        TOTAL FREE ENERGY PREDICTED BY IDOCK:   -9.05 KCAL/MOL
REMARK 923 INTER-LIGAND FREE ENERGY PREDICTED BY IDOCK:   -8.05 KCAL/MOL
REMARK 924 INTRA-LIGAND FREE ENERGY PREDICTED BY IDOCK:   -1.00 KCAL/MOL
REMARK 927      BINDING AFFINITY PREDICTED BY RF-SCORE:    0.00 PKD
ROOT
HETATM    1  C   UNL     1      -9.157   7.790  68.221  1.00  0.00    -0.130 C  
HETATM    2  C   UNL     1      -9.974   6.078  67.563  1.00  0.00    -0.137 C  
HETATM    3  C   UNL     1      -8.501   5.037  66.837  1.00  0.00    -0.106 C  
HETATM    4  O   UNL     1     -11.155   5.756  67.602  1.00  0.00    -0.171 OA 
HETATM    5  C   UNL     1      -6.884   6.193  66.929  1.00  0.00    -0.062 C  
HETATM    6  C   UNL     1      -7.388   7.657  68.036  1.00  0.00    -0.099 C  
HETATM    7  C   UNL     1      -6.712   8.005  69.375  1.00  0.00    -0.039 C  
HETATM    8  C   UNL     1      -7.643   8.777  70.388  1.00  0.00    -0.082 C  
HETATM    9  C   UNL     1      -8.644   9.785  69.772  1.00  0.00    -0.215 C  
HETATM   10  C   UNL     1      -7.755  10.897  69.161  1.00  0.00    -0.127 C  
HETATM   11  C   UNL     1      -9.745   9.084  68.852  1.00  0.00    -0.166 C  
HETATM   12  C   UNL     1     -10.128  10.123  67.676  1.00  0.00    -0.190 C  
HETATM   13  C   UNL     1     -11.012   8.658  69.610  1.00  0.00    -0.099 C  
HETATM   14  C   UNL     1     -10.084   9.578  66.237  1.00  0.00    -0.327 C  
HETATM   15  O   UNL     1      -8.447   6.478  64.902  1.00  0.00    -0.296 OA 
HETATM   16  C   UNL     1      -8.160   6.555  68.052  1.00  0.00    -0.113 C  
HETATM   17  C   UNL     1      -8.689   8.900  65.614  1.00  0.00    -0.213 C  
HETATM   18  C   UNL     1      -8.778   7.182  66.130  1.00  0.00    -0.151 C  
HETATM   19  H   UNL     1      -8.494   5.569  65.174  1.00  0.00     0.000 HD 
HETATM   20  C   UNL     1      -8.865   5.989  69.619  1.00  0.00    -0.133 C  
HETATM   21  C   UNL     1      -8.815   9.602  64.216  1.00  0.00    -0.260 C  
ENDROOT
BRANCH  12  22
HETATM   22  O   UNL     1     -11.448  10.675  67.865  1.00  0.00    -0.432 OA 
BRANCH  22  23
HETATM   23  C   UNL     1     -11.659  11.939  67.399  1.00  0.00    -0.297 C  
HETATM   24  O   UNL     1     -12.333  12.233  66.420  1.00  0.00    -0.531 OA 
BRANCH  23  25
HETATM   25  C   UNL     1     -11.046  12.959  68.323  1.00  0.00    -0.264 C  
BRANCH  25  26
HETATM   26  S   UNL     1     -12.015  14.494  68.342  1.00  0.00    -0.223 SA 
BRANCH  26  27
HETATM   27  C   UNL     1     -12.310  14.695  70.144  1.00  0.00    -0.336 C  
HETATM   28  C   UNL     1     -13.730  15.195  70.435  1.00  0.00     0.260 C  
HETATM   29  C   UNL     1     -13.992  15.233  71.940  1.00  0.00    -0.644 C  
HETATM   30  C   UNL     1     -12.950  16.097  72.660  1.00  0.00    -0.291 C  
HETATM   31  N   UNL     1     -13.190  16.084  74.099  1.00  0.00    -0.868 NA 
HETATM   32  C   UNL     1     -11.527  15.613  72.363  1.00  0.00    -0.434 C  
HETATM   33  C   UNL     1     -11.256  15.569  70.856  1.00  0.00    -0.371 C  
HETATM   34  H2  UNL     1     -13.222  15.134  74.471  1.00  0.00     0.000 HD 
HETATM   35  H1  UNL     1     -12.497  16.658  74.578  1.00  0.00     0.000 HD 
HETATM   36  O   UNL     1      -9.931  15.079  70.653  1.00  0.00    -0.338 OA 
HETATM   37  H   UNL     1      -9.281  15.617  71.091  1.00  0.00     0.000 HD 
ENDBRANCH  26  27
ENDBRANCH  25  26
ENDBRANCH  23  25
ENDBRANCH  22  23
ENDBRANCH  12  22
BRANCH  17  38
HETATM   38  C   UNL     1      -7.176   8.897  65.506  1.00  0.00    -0.084 C  
HETATM   39  C   UNL     1      -6.166   9.571  64.977  1.00  0.00    -0.078 C  
ENDBRANCH  17  38
TORSDOF 6
ENDMDL
MODEL       41
REMARK 921   NORMALIZED FREE ENERGY PREDICTED BY IDOCK:   -5.73 KCAL/MOL
REMARK 922        TOTAL FREE ENERGY PREDICTED BY IDOCK:   -8.98 KCAL/MOL
REMARK 923 INTER-LIGAND FREE ENERGY PREDICTED BY IDOCK:   -7.57 KCAL/MOL
REMARK 924 INTRA-LIGAND FREE ENERGY PREDICTED BY IDOCK:   -1.41 KCAL/MOL
REMARK 927      BINDING AFFINITY PREDICTED BY RF-SCORE:    0.00 PKD
ROOT
HETATM    1  C   UNL     1      -9.461   6.896  69.858  1.00  0.00    -0.156 C  
HETATM    2  C   UNL     1      -9.410   4.921  70.207  1.00  0.00    -0.154 C  
HETATM    3  C   UNL     1      -8.613   4.716  71.968  1.00  0.00    -0.124 C  
HETATM    4  O   UNL     1      -9.795   4.026  69.463  1.00  0.00    -0.195 OA 
HETATM    5  C   UNL     1      -8.066   6.535  72.562  1.00  0.00    -0.104 C  
HETATM    6  C   UNL     1      -8.903   7.726  71.336  1.00  0.00    -0.149 C  
HETATM    7  C   UNL     1      -9.936   8.797  71.735  1.00  0.00    -0.396 C  
HETATM    8  C   UNL     1     -10.939   9.189  70.582  1.00  0.00    -0.319 C  
HETATM    9  C   UNL     1     -10.364   9.205  69.145  1.00  0.00    -0.223 C  
HETATM   10  C   UNL     1      -9.330  10.358  69.149  1.00  0.00    -0.211 C  
HETATM   11  C   UNL     1      -9.906   7.760  68.643  1.00  0.00    -0.174 C  
HETATM   12  C   UNL     1      -8.650   7.966  67.648  1.00  0.00    -0.127 C  
HETATM   13  C   UNL     1     -11.013   6.965  67.932  1.00  0.00    -0.260 C  
HETATM   14  C   UNL     1      -7.399   7.116  67.936  1.00  0.00    -0.097 C  
HETATM   15  O   UNL     1      -6.447   5.234  71.038  1.00  0.00    -0.032 OA 
HETATM   16  C   UNL     1      -9.345   6.455  71.387  1.00  0.00    -0.157 C  
HETATM   17  C   UNL     1      -6.637   7.179  69.423  1.00  0.00    -0.044 C  
HETATM   18  C   UNL     1      -7.529   5.978  70.416  1.00  0.00    -0.090 C  
HETATM   19  H   UNL     1      -6.919   4.599  71.564  1.00  0.00     0.000 HD 
HETATM   20  C   UNL     1     -11.119   6.127  71.252  1.00  0.00    -0.351 C  
HETATM   21  C   UNL     1      -5.186   7.201  68.824  1.00  0.00    -0.017 C  
ENDROOT
BRANCH  12  22
HETATM   22  O   UNL     1      -9.013   7.710  66.276  1.00  0.00    -0.158 OA 
BRANCH  22  23
HETATM   23  C   UNL     1      -8.426   8.497  65.327  1.00  0.00    -0.174 C  
HETATM   24  O   UNL     1      -7.898   8.095  64.299  1.00  0.00    -0.124 OA 
BRANCH  23  25
HETATM   25  C   UNL     1      -8.616   9.956  65.651  1.00  0.00    -0.145 C  
BRANCH  25  26
HETATM   26  S   UNL     1     -10.120  10.610  64.873  1.00  0.00    -0.329 SA 
BRANCH  26  27
HETATM   27  C   UNL     1     -10.451  12.072  65.935  1.00  0.00    -0.255 C  
HETATM   28  C   UNL     1     -11.482  11.761  67.025  1.00  0.00    -0.368 C  
HETATM   29  C   UNL     1     -11.647  12.951  67.970  1.00  0.00    -0.385 C  
HETATM   30  C   UNL     1     -12.032  14.218  67.199  1.00  0.00    -0.417 C  
HETATM   31  N   UNL     1     -12.139  15.352  68.112  1.00  0.00    -0.435 NA 
HETATM   32  C   UNL     1     -11.014  14.529  66.096  1.00  0.00    -0.322 C  
HETATM   33  C   UNL     1     -10.841  13.341  65.146  1.00  0.00    -0.310 C  
HETATM   34  H2  UNL     1     -11.288  15.482  68.659  1.00  0.00     0.000 HD 
HETATM   35  H1  UNL     1     -12.395  16.195  67.599  1.00  0.00     0.000 HD 
HETATM   36  O   UNL     1      -9.858  13.687  64.170  1.00  0.00    -0.693 OA 
HETATM   37  H   UNL     1     -10.098  14.468  63.685  1.00  0.00     0.000 HD 
ENDBRANCH  26  27
ENDBRANCH  25  26
ENDBRANCH  23  25
ENDBRANCH  22  23
ENDBRANCH  12  22
BRANCH  17  38
HETATM   38  C   UNL     1      -6.183   7.989  70.622  1.00  0.00    -0.036 C  
HETATM   39  C   UNL     1      -5.670   9.164  70.954  1.00  0.00    -0.043 C  
ENDBRANCH  17  38
TORSDOF 6
ENDMDL
MODEL       42
REMARK 921   NORMALIZED FREE ENERGY PREDICTED BY IDOCK:   -5.73 KCAL/MOL
REMARK 922        TOTAL FREE ENERGY PREDICTED BY IDOCK:   -8.98 KCAL/MOL
REMARK 923 INTER-LIGAND FREE ENERGY PREDICTED BY IDOCK:   -7.18 KCAL/MOL
REMARK 924 INTRA-LIGAND FREE ENERGY PREDICTED BY IDOCK:   -1.80 KCAL/MOL
REMARK 927      BINDING AFFINITY PREDICTED BY RF-SCORE:    0.00 PKD
ROOT
HETATM    1  C   UNL     1      -8.048   9.310  68.731  1.00  0.00    -0.104 C  
HETATM    2  C   UNL     1      -9.213   8.943  70.324  1.00  0.00    -0.185 C  
HETATM    3  C   UNL     1     -10.667   7.830  69.669  1.00  0.00    -0.223 C  
HETATM    4  O   UNL     1      -9.049   9.341  71.471  1.00  0.00    -0.315 OA 
HETATM    5  C   UNL     1     -10.433   7.688  67.698  1.00  0.00    -0.313 C  
HETATM    6  C   UNL     1      -8.688   8.367  67.359  1.00  0.00    -0.136 C  
HETATM    7  C   UNL     1      -7.544   7.547  66.732  1.00  0.00    -0.101 C  
HETATM    8  C   UNL     1      -6.100   8.041  67.132  1.00  0.00    -0.054 C  
HETATM    9  C   UNL     1      -5.918   9.570  67.301  1.00  0.00    -0.048 C  
HETATM   10  C   UNL     1      -6.131  10.150  65.881  1.00  0.00    -0.087 C  
HETATM   11  C   UNL     1      -6.767  10.166  68.514  1.00  0.00    -0.057 C  
HETATM   12  C   UNL     1      -7.195  11.672  68.115  1.00  0.00    -0.085 C  
HETATM   13  C   UNL     1      -6.020  10.171  69.857  1.00  0.00    -0.052 C  
HETATM   14  C   UNL     1      -8.686  12.024  68.263  1.00  0.00    -0.178 C  
HETATM   15  O   UNL     1     -11.657   9.761  68.612  1.00  0.00    -0.485 OA 
HETATM   16  C   UNL     1      -9.004   8.036  68.624  1.00  0.00    -0.134 C  
HETATM   17  C   UNL     1      -9.864  11.142  67.469  1.00  0.00    -0.197 C  
HETATM   18  C   UNL     1     -10.204   9.776  68.585  1.00  0.00    -0.190 C  
HETATM   19  H   UNL     1     -11.837   9.038  69.202  1.00  0.00     0.000 HD 
HETATM   20  C   UNL     1      -7.765   7.230  69.666  1.00  0.00    -0.105 C  
HETATM   21  C   UNL     1     -10.698  12.399  67.036  1.00  0.00    -0.268 C  
ENDROOT
BRANCH  12  22
HETATM   22  O   UNL     1      -6.464  12.651  68.881  1.00  0.00    -0.079 OA 
BRANCH  22  23
HETATM   23  C   UNL     1      -5.775  13.594  68.176  1.00  0.00    -0.116 C  
HETATM   24  O   UNL     1      -5.136  13.391  67.152  1.00  0.00    -0.312 OA 
BRANCH  23  25
HETATM   25  C   UNL     1      -5.996  14.965  68.761  1.00  0.00    -0.084 C  
BRANCH  25  26
HETATM   26  S   UNL     1      -6.732  16.088  67.539  1.00  0.00    -0.190 SA 
BRANCH  26  27
HETATM   27  C   UNL     1      -8.458  16.193  68.160  1.00  0.00    -0.175 C  
HETATM   28  C   UNL     1      -8.655  15.359  69.431  1.00  0.00    -0.249 C  
HETATM   29  C   UNL     1     -10.060  15.562  69.998  1.00  0.00    -0.241 C  
HETATM   30  C   UNL     1     -11.131  15.227  68.953  1.00  0.00    -0.266 C  
HETATM   31  N   UNL     1     -12.463  15.471  69.498  1.00  0.00    -0.594 NA 
HETATM   32  C   UNL     1     -10.932  16.046  67.673  1.00  0.00    -0.284 C  
HETATM   33  C   UNL     1      -9.525  15.851  67.099  1.00  0.00    -0.213 C  
HETATM   34  H2  UNL     1     -12.561  16.422  69.853  1.00  0.00     0.000 HD 
HETATM   35  H1  UNL     1     -13.174  15.249  68.803  1.00  0.00     0.000 HD 
HETATM   36  O   UNL     1      -9.400  16.665  65.933  1.00  0.00    -0.457 OA 
HETATM   37  H   UNL     1     -10.057  16.454  65.280  1.00  0.00     0.000 HD 
ENDBRANCH  26  27
ENDBRANCH  25  26
ENDBRANCH  23  25
ENDBRANCH  22  23
ENDBRANCH  12  22
BRANCH  17  38
HETATM   38  C   UNL     1     -10.316  10.384  66.237  1.00  0.00    -0.270 C  
HETATM   39  C   UNL     1     -10.244  10.404  64.914  1.00  0.00    -0.330 C  
ENDBRANCH  17  38
TORSDOF 6
ENDMDL
MODEL       43
REMARK 921   NORMALIZED FREE ENERGY PREDICTED BY IDOCK:   -5.73 KCAL/MOL
REMARK 922        TOTAL FREE ENERGY PREDICTED BY IDOCK:   -8.97 KCAL/MOL
REMARK 923 INTER-LIGAND FREE ENERGY PREDICTED BY IDOCK:   -7.30 KCAL/MOL
REMARK 924 INTRA-LIGAND FREE ENERGY PREDICTED BY IDOCK:   -1.67 KCAL/MOL
REMARK 927      BINDING AFFINITY PREDICTED BY RF-SCORE:    0.00 PKD
ROOT
HETATM    1  C   UNL     1      -7.778   7.756  70.338  1.00  0.00    -0.088 C  
HETATM    2  C   UNL     1      -6.114   8.142  71.392  1.00  0.00    -0.036 C  
HETATM    3  C   UNL     1      -5.444   6.411  71.971  1.00  0.00    -0.032 C  
HETATM    4  O   UNL     1      -5.623   9.239  71.629  1.00  0.00    -0.062 OA 
HETATM    5  C   UNL     1      -6.785   5.058  71.396  1.00  0.00    -0.040 C  
HETATM    6  C   UNL     1      -7.937   5.985  70.198  1.00  0.00    -0.106 C  
HETATM    7  C   UNL     1      -8.131   5.610  68.716  1.00  0.00    -0.100 C  
HETATM    8  C   UNL     1      -8.564   6.815  67.796  1.00  0.00    -0.121 C  
HETATM    9  C   UNL     1      -9.513   7.861  68.433  1.00  0.00    -0.150 C  
HETATM   10  C   UNL     1     -10.832   7.091  68.686  1.00  0.00    -0.191 C  
HETATM   11  C   UNL     1      -8.838   8.656  69.642  1.00  0.00    -0.137 C  
HETATM   12  C   UNL     1     -10.007   9.016  70.699  1.00  0.00    -0.233 C  
HETATM   13  C   UNL     1      -8.104   9.937  69.216  1.00  0.00    -0.128 C  
HETATM   14  C   UNL     1      -9.743   8.640  72.168  1.00  0.00    -0.383 C  
HETATM   15  O   UNL     1      -7.204   6.291  73.619  1.00  0.00    -0.083 OA 
HETATM   16  C   UNL     1      -6.750   6.545  70.498  1.00  0.00    -0.057 C  
HETATM   17  C   UNL     1      -9.396   7.065  72.607  1.00  0.00    -0.159 C  
HETATM   18  C   UNL     1      -7.618   6.937  72.385  1.00  0.00    -0.091 C  
HETATM   19  H   UNL     1      -6.263   6.223  73.501  1.00  0.00     0.000 HD 
HETATM   20  C   UNL     1      -5.815   7.389  69.199  1.00  0.00    -0.023 C  
HETATM   21  C   UNL     1     -10.314   7.080  73.880  1.00  0.00    -0.386 C  
ENDROOT
BRANCH  12  22
HETATM   22  O   UNL     1     -10.319  10.424  70.685  1.00  0.00     0.042 OA 
BRANCH  22  23
HETATM   23  C   UNL     1     -11.629  10.762  70.510  1.00  0.00    -0.330 C  
HETATM   24  O   UNL     1     -12.397  11.115  71.395  1.00  0.00    -0.314 OA 
BRANCH  23  25
HETATM   25  C   UNL     1     -11.990  10.760  69.047  1.00  0.00    -0.186 C  
BRANCH  25  26
HETATM   26  S   UNL     1     -11.361  12.246  68.215  1.00  0.00    -0.315 SA 
BRANCH  26  27
HETATM   27  C   UNL     1     -11.248  11.649  66.481  1.00  0.00    -0.294 C  
HETATM   28  C   UNL     1     -10.009  10.775  66.260  1.00  0.00    -0.272 C  
HETATM   29  C   UNL     1     -10.004  10.190  64.849  1.00  0.00    -0.358 C  
HETATM   30  C   UNL     1     -10.087  11.297  63.792  1.00  0.00    -0.361 C  
HETATM   31  N   UNL     1     -10.127  10.716  62.453  1.00  0.00    -0.744 NA 
HETATM   32  C   UNL     1     -11.316  12.185  64.013  1.00  0.00    -0.468 C  
HETATM   33  C   UNL     1     -11.331  12.774  65.427  1.00  0.00    -0.304 C  
HETATM   34  H2  UNL     1     -10.883  10.038  62.355  1.00  0.00     0.000 HD 
HETATM   35  H1  UNL     1     -10.183  11.453  61.751  1.00  0.00     0.000 HD 
HETATM   36  O   UNL     1     -12.515  13.558  65.573  1.00  0.00    -0.449 OA 
HETATM   37  H   UNL     1     -12.565  14.251  64.925  1.00  0.00     0.000 HD 
ENDBRANCH  26  27
ENDBRANCH  25  26
ENDBRANCH  23  25
ENDBRANCH  22  23
ENDBRANCH  12  22
BRANCH  17  38
HETATM   38  C   UNL     1      -9.631   5.578  72.422  1.00  0.00    -0.170 C  
HETATM   39  C   UNL     1     -10.583   4.697  72.152  1.00  0.00    -0.175 C  
ENDBRANCH  17  38
TORSDOF 6
ENDMDL
MODEL       44
REMARK 921   NORMALIZED FREE ENERGY PREDICTED BY IDOCK:   -5.72 KCAL/MOL
REMARK 922        TOTAL FREE ENERGY PREDICTED BY IDOCK:   -8.96 KCAL/MOL
REMARK 923 INTER-LIGAND FREE ENERGY PREDICTED BY IDOCK:   -7.72 KCAL/MOL
REMARK 924 INTRA-LIGAND FREE ENERGY PREDICTED BY IDOCK:   -1.24 KCAL/MOL
REMARK 927      BINDING AFFINITY PREDICTED BY RF-SCORE:    0.00 PKD
ROOT
HETATM    1  C   UNL     1      -8.296   6.803  67.417  1.00  0.00    -0.122 C  
HETATM    2  C   UNL     1      -6.535   7.160  66.523  1.00  0.00    -0.051 C  
HETATM    3  C   UNL     1      -5.555   5.482  66.601  1.00  0.00    -0.017 C  
HETATM    4  O   UNL     1      -6.151   8.215  66.035  1.00  0.00    -0.041 OA 
HETATM    5  C   UNL     1      -6.668   4.220  67.664  1.00  0.00    -0.047 C  
HETATM    6  C   UNL     1      -8.367   5.064  67.810  1.00  0.00    -0.105 C  
HETATM    7  C   UNL     1      -9.679   4.474  67.259  1.00  0.00    -0.221 C  
HETATM    8  C   UNL     1     -10.774   5.553  66.904  1.00  0.00    -0.310 C  
HETATM    9  C   UNL     1     -10.842   6.794  67.828  1.00  0.00    -0.339 C  
HETATM   10  C   UNL     1     -11.297   6.238  69.200  1.00  0.00    -0.358 C  
HETATM   11  C   UNL     1      -9.525   7.694  67.758  1.00  0.00    -0.160 C  
HETATM   12  C   UNL     1      -9.313   8.358  69.215  1.00  0.00    -0.154 C  
HETATM   13  C   UNL     1      -9.574   8.791  66.683  1.00  0.00    -0.283 C  
HETATM   14  C   UNL     1      -7.916   8.203  69.843  1.00  0.00    -0.109 C  
HETATM   15  O   UNL     1      -5.139   5.844  68.951  1.00  0.00    -0.003 OA 
HETATM   16  C   UNL     1      -7.509   5.523  66.879  1.00  0.00    -0.088 C  
HETATM   17  C   UNL     1      -7.242   6.692  70.086  1.00  0.00    -0.080 C  
HETATM   18  C   UNL     1      -6.443   6.321  68.521  1.00  0.00    -0.049 C  
HETATM   19  H   UNL     1      -4.716   5.648  68.123  1.00  0.00     0.000 HD 
HETATM   20  C   UNL     1      -8.142   6.024  65.260  1.00  0.00    -0.134 C  
HETATM   21  C   UNL     1      -6.686   7.026  71.515  1.00  0.00    -0.052 C  
ENDROOT
BRANCH  12  22
HETATM   22  O   UNL     1      -9.601   9.771  69.201  1.00  0.00    -0.170 OA 
BRANCH  22  23
HETATM   23  C   UNL     1     -10.840  10.151  69.627  1.00  0.00    -0.263 C  
HETATM   24  O   UNL     1     -11.438   9.680  70.586  1.00  0.00    -0.268 OA 
BRANCH  23  25
HETATM   25  C   UNL     1     -11.343  11.325  68.828  1.00  0.00    -0.270 C  
BRANCH  25  26
HETATM   26  S   UNL     1      -9.984  12.440  68.374  1.00  0.00    -0.179 SA 
BRANCH  26  27
HETATM   27  C   UNL     1     -10.596  13.099  66.773  1.00  0.00    -0.263 C  
HETATM   28  C   UNL     1     -12.093  13.423  66.827  1.00  0.00    -0.419 C  
HETATM   29  C   UNL     1     -12.551  14.085  65.527  1.00  0.00    -0.543 C  
HETATM   30  C   UNL     1     -12.226  13.204  64.315  1.00  0.00    -0.396 C  
HETATM   31  N   UNL     1     -12.628  13.873  63.082  1.00  0.00    -0.976 NA 
HETATM   32  C   UNL     1     -10.733  12.862  64.261  1.00  0.00    -0.430 C  
HETATM   33  C   UNL     1     -10.265  12.201  65.561  1.00  0.00    -0.265 C  
HETATM   34  H2  UNL     1     -12.215  14.802  63.000  1.00  0.00     0.000 HD 
HETATM   35  H1  UNL     1     -12.412  13.287  62.276  1.00  0.00     0.000 HD 
HETATM   36  O   UNL     1      -8.865  11.943  65.454  1.00  0.00    -0.401 OA 
HETATM   37  H   UNL     1      -8.662  11.390  64.708  1.00  0.00     0.000 HD 
ENDBRANCH  26  27
ENDBRANCH  25  26
ENDBRANCH  23  25
ENDBRANCH  22  23
ENDBRANCH  12  22
BRANCH  17  38
HETATM   38  C   UNL     1      -7.413   5.234  70.463  1.00  0.00    -0.071 C  
HETATM   39  C   UNL     1      -8.251   4.402  71.063  1.00  0.00    -0.082 C  
ENDBRANCH  17  38
TORSDOF 6
ENDMDL
MODEL       45
REMARK 921   NORMALIZED FREE ENERGY PREDICTED BY IDOCK:   -5.69 KCAL/MOL
REMARK 922        TOTAL FREE ENERGY PREDICTED BY IDOCK:   -8.92 KCAL/MOL
REMARK 923 INTER-LIGAND FREE ENERGY PREDICTED BY IDOCK:   -7.73 KCAL/MOL
REMARK 924 INTRA-LIGAND FREE ENERGY PREDICTED BY IDOCK:   -1.19 KCAL/MOL
REMARK 927      BINDING AFFINITY PREDICTED BY RF-SCORE:    0.00 PKD
ROOT
HETATM    1  C   UNL     1      -9.672   6.477  70.810  1.00  0.00    -0.194 C  
HETATM    2  C   UNL     1      -8.843   4.670  70.530  1.00  0.00    -0.103 C  
HETATM    3  C   UNL     1      -7.696   4.372  72.072  1.00  0.00    -0.081 C  
HETATM    4  O   UNL     1      -9.017   3.913  69.584  1.00  0.00    -0.085 OA 
HETATM    5  C   UNL     1      -7.737   6.047  73.146  1.00  0.00    -0.098 C  
HETATM    6  C   UNL     1      -9.172   7.063  72.419  1.00  0.00    -0.148 C  
HETATM    7  C   UNL     1     -10.422   7.491  73.212  1.00  0.00    -0.426 C  
HETATM    8  C   UNL     1     -11.705   7.719  72.323  1.00  0.00    -0.390 C  
HETATM    9  C   UNL     1     -11.469   8.323  70.917  1.00  0.00    -0.296 C  
HETATM   10  C   UNL     1     -10.943   9.755  71.188  1.00  0.00    -0.386 C  
HETATM   11  C   UNL     1     -10.629   7.361  69.960  1.00  0.00    -0.241 C  
HETATM   12  C   UNL     1      -9.754   8.297  68.975  1.00  0.00    -0.167 C  
HETATM   13  C   UNL     1     -11.491   6.392  69.134  1.00  0.00    -0.265 C  
HETATM   14  C   UNL     1      -8.251   7.980  68.883  1.00  0.00    -0.125 C  
HETATM   15  O   UNL     1      -6.092   5.933  71.168  1.00  0.00    -0.035 OA 
HETATM   16  C   UNL     1      -9.106   5.754  72.115  1.00  0.00    -0.147 C  
HETATM   17  C   UNL     1      -7.285   7.973  70.248  1.00  0.00    -0.053 C  
HETATM   18  C   UNL     1      -7.470   6.307  70.896  1.00  0.00    -0.088 C  
HETATM   19  H   UNL     1      -6.189   5.053  71.511  1.00  0.00     0.000 HD 
HETATM   20  C   UNL     1     -10.630   4.784  72.034  1.00  0.00    -0.176 C  
HETATM   21  C   UNL     1      -6.089   8.726  69.566  1.00  0.00    -0.036 C  
ENDROOT
BRANCH  12  22
HETATM   22  O   UNL     1     -10.263   8.267  67.626  1.00  0.00    -0.200 OA 
BRANCH  22  23
HETATM   23  C   UNL     1     -10.320   9.459  66.963  1.00  0.00    -0.252 C  
HETATM   24  O   UNL     1     -10.008   9.638  65.793  1.00  0.00    -0.293 OA 
BRANCH  23  25
HETATM   25  C   UNL     1     -10.937  10.524  67.832  1.00  0.00    -0.295 C  
BRANCH  25  26
HETATM   26  S   UNL     1     -11.245  12.044  66.887  1.00  0.00    -0.335 SA 
BRANCH  26  27
HETATM   27  C   UNL     1     -11.135  13.306  68.217  1.00  0.00    -0.266 C  
HETATM   28  C   UNL     1     -11.901  12.876  69.473  1.00  0.00    -0.383 C  
HETATM   29  C   UNL     1     -11.691  13.881  70.606  1.00  0.00    -0.194 C  
HETATM   30  C   UNL     1     -12.099  15.294  70.172  1.00  0.00    -0.358 C  
HETATM   31  N   UNL     1     -11.848  16.245  71.251  1.00  0.00    -0.636 NA 
HETATM   32  C   UNL     1     -11.348  15.726  68.909  1.00  0.00    -0.356 C  
HETATM   33  C   UNL     1     -11.551  14.723  67.769  1.00  0.00    -0.357 C  
HETATM   34  H2  UNL     1     -10.881  16.209  71.572  1.00  0.00     0.000 HD 
HETATM   35  H1  UNL     1     -12.119  17.185  70.962  1.00  0.00     0.000 HD 
HETATM   36  O   UNL     1     -10.799  15.169  66.640  1.00  0.00    -0.311 OA 
HETATM   37  H   UNL     1     -11.056  16.041  66.364  1.00  0.00     0.000 HD 
ENDBRANCH  26  27
ENDBRANCH  25  26
ENDBRANCH  23  25
ENDBRANCH  22  23
ENDBRANCH  12  22
BRANCH  17  38
HETATM   38  C   UNL     1      -6.928   8.569  71.596  1.00  0.00    -0.092 C  
HETATM   39  C   UNL     1      -6.094   9.422  72.172  1.00  0.00     0.133 C  
ENDBRANCH  17  38
TORSDOF 6
ENDMDL
MODEL       46
REMARK 921   NORMALIZED FREE ENERGY PREDICTED BY IDOCK:   -5.69 KCAL/MOL
REMARK 922        TOTAL FREE ENERGY PREDICTED BY IDOCK:   -8.92 KCAL/MOL
REMARK 923 INTER-LIGAND FREE ENERGY PREDICTED BY IDOCK:   -7.82 KCAL/MOL
REMARK 924 INTRA-LIGAND FREE ENERGY PREDICTED BY IDOCK:   -1.10 KCAL/MOL
REMARK 927      BINDING AFFINITY PREDICTED BY RF-SCORE:    0.00 PKD
ROOT
HETATM    1  C   UNL     1      -9.725  12.840  67.531  1.00  0.00    -0.201 C  
HETATM    2  C   UNL     1      -8.833  14.544  66.959  1.00  0.00    -0.237 C  
HETATM    3  C   UNL     1     -10.266  15.716  66.366  1.00  0.00    -0.300 C  
HETATM    4  O   UNL     1      -7.634  14.795  66.972  1.00  0.00    -0.145 OA 
HETATM    5  C   UNL     1     -11.945  14.650  66.444  1.00  0.00    -0.274 C  
HETATM    6  C   UNL     1     -11.489  13.086  67.427  1.00  0.00    -0.380 C  
HETATM    7  C   UNL     1     -12.136  12.684  68.767  1.00  0.00    -0.155 C  
HETATM    8  C   UNL     1     -11.216  11.791  69.686  1.00  0.00    -0.225 C  
HETATM    9  C   UNL     1     -10.300  10.773  68.963  1.00  0.00    -0.235 C  
HETATM   10  C   UNL     1     -11.275   9.760  68.314  1.00  0.00    -0.074 C  
HETATM   11  C   UNL     1      -9.193  11.473  68.049  1.00  0.00    -0.175 C  
HETATM   12  C   UNL     1      -8.915  10.499  66.790  1.00  0.00    -0.137 C  
HETATM   13  C   UNL     1      -7.876  11.772  68.782  1.00  0.00    -0.076 C  
HETATM   14  C   UNL     1      -8.980  11.145  65.395  1.00  0.00    -0.154 C  
HETATM   15  O   UNL     1     -10.477  14.420  64.341  1.00  0.00    -0.553 OA 
HETATM   16  C   UNL     1     -10.652  14.138  67.488  1.00  0.00    -0.257 C  
HETATM   17  C   UNL     1     -10.354  11.944  64.877  1.00  0.00    -0.328 C  
HETATM   18  C   UNL     1     -10.144  13.614  65.504  1.00  0.00    -0.275 C  
HETATM   19  H   UNL     1     -10.366  15.303  64.672  1.00  0.00     0.000 HD 
HETATM   20  C   UNL     1      -9.859  14.551  69.060  1.00  0.00    -0.142 C  
HETATM   21  C   UNL     1     -10.320  11.335  63.430  1.00  0.00    -0.449 C  
ENDROOT
BRANCH  12  22
HETATM   22  O   UNL     1      -7.625   9.862  66.888  1.00  0.00    -0.094 OA 
BRANCH  22  23
HETATM   23  C   UNL     1      -7.532   8.585  66.416  1.00  0.00    -0.087 C  
HETATM   24  O   UNL     1      -7.606   8.255  65.240  1.00  0.00    -0.086 OA 
BRANCH  23  25
HETATM   25  C   UNL     1      -7.203   7.626  67.531  1.00  0.00    -0.087 C  
BRANCH  25  26
HETATM   26  S   UNL     1      -8.691   7.180  68.471  1.00  0.00    -0.125 SA 
BRANCH  26  27
HETATM   27  C   UNL     1      -9.247   5.690  67.552  1.00  0.00    -0.109 C  
HETATM   28  C   UNL     1      -8.065   4.907  66.969  1.00  0.00    -0.107 C  
HETATM   29  C   UNL     1      -8.544   3.609  66.319  1.00  0.00    -0.115 C  
HETATM   30  C   UNL     1      -9.599   3.888  65.243  1.00  0.00    -0.185 C  
HETATM   31  N   UNL     1     -10.076   2.634  64.667  1.00  0.00    -0.361 NA 
HETATM   32  C   UNL     1     -10.778   4.683  65.813  1.00  0.00    -0.195 C  
HETATM   33  C   UNL     1     -10.308   5.985  66.470  1.00  0.00    -0.149 C  
HETATM   34  H2  UNL     1     -10.421   1.993  65.382  1.00  0.00     0.000 HD 
HETATM   35  H1  UNL     1     -10.778   2.820  63.951  1.00  0.00     0.000 HD 
HETATM   36  O   UNL     1     -11.449   6.654  67.007  1.00  0.00    -0.763 OA 
HETATM   37  H   UNL     1     -12.101   6.835  66.340  1.00  0.00     0.000 HD 
ENDBRANCH  26  27
ENDBRANCH  25  26
ENDBRANCH  23  25
ENDBRANCH  22  23
ENDBRANCH  12  22
BRANCH  17  38
HETATM   38  C   UNL     1     -11.866  12.041  64.830  1.00  0.00    -0.304 C  
HETATM   39  C   UNL     1     -12.895  11.924  64.004  1.00  0.00    -0.282 C  
ENDBRANCH  17  38
TORSDOF 6
ENDMDL
MODEL       47
REMARK 921   NORMALIZED FREE ENERGY PREDICTED BY IDOCK:   -5.68 KCAL/MOL
REMARK 922        TOTAL FREE ENERGY PREDICTED BY IDOCK:   -8.91 KCAL/MOL
REMARK 923 INTER-LIGAND FREE ENERGY PREDICTED BY IDOCK:   -7.73 KCAL/MOL
REMARK 924 INTRA-LIGAND FREE ENERGY PREDICTED BY IDOCK:   -1.18 KCAL/MOL
REMARK 927      BINDING AFFINITY PREDICTED BY RF-SCORE:    0.00 PKD
ROOT
HETATM    1  C   UNL     1      -8.718   8.433  67.832  1.00  0.00    -0.138 C  
HETATM    2  C   UNL     1      -7.336   9.627  66.998  1.00  0.00    -0.087 C  
HETATM    3  C   UNL     1      -5.853   8.463  66.520  1.00  0.00    -0.044 C  
HETATM    4  O   UNL     1      -7.406  10.838  66.830  1.00  0.00    -0.106 OA 
HETATM    5  C   UNL     1      -6.304   6.652  67.210  1.00  0.00    -0.037 C  
HETATM    6  C   UNL     1      -8.143   6.750  67.688  1.00  0.00    -0.116 C  
HETATM    7  C   UNL     1      -9.252   5.889  67.052  1.00  0.00    -0.120 C  
HETATM    8  C   UNL     1     -10.684   6.548  67.093  1.00  0.00    -0.438 C  
HETATM    9  C   UNL     1     -11.020   7.391  68.348  1.00  0.00     0.020 C  
HETATM   10  C   UNL     1     -11.046   6.369  69.512  1.00  0.00    -0.460 C  
HETATM   11  C   UNL     1     -10.105   8.692  68.485  1.00  0.00    -0.211 C  
HETATM   12  C   UNL     1      -9.905   8.982  70.062  1.00  0.00    -0.184 C  
HETATM   13  C   UNL     1     -10.682   9.937  67.792  1.00  0.00    -0.332 C  
HETATM   14  C   UNL     1      -8.457   9.187  70.543  1.00  0.00    -0.236 C  
HETATM   15  O   UNL     1      -5.225   8.323  68.846  1.00  0.00    -0.030 OA 
HETATM   16  C   UNL     1      -7.642   7.716  66.896  1.00  0.00    -0.102 C  
HETATM   17  C   UNL     1      -7.289   8.019  70.288  1.00  0.00    -0.060 C  
HETATM   18  C   UNL     1      -6.663   8.388  68.645  1.00  0.00    -0.059 C  
HETATM   19  H   UNL     1      -4.894   8.518  67.978  1.00  0.00     0.000 HD 
HETATM   20  C   UNL     1      -8.646   8.357  65.535  1.00  0.00    -0.201 C  
HETATM   21  C   UNL     1      -6.663   8.145  71.722  1.00  0.00    -0.063 C  
ENDROOT
BRANCH  12  22
HETATM   22  O   UNL     1     -10.646  10.144  70.486  1.00  0.00    -0.290 OA 
BRANCH  22  23
HETATM   23  C   UNL     1     -11.822   9.919  71.141  1.00  0.00    -0.386 C  
HETATM   24  O   UNL     1     -11.999   9.082  72.016  1.00  0.00    -0.356 OA 
BRANCH  23  25
HETATM   25  C   UNL     1     -12.864  10.925  70.728  1.00  0.00    -0.289 C  
BRANCH  25  26
HETATM   26  S   UNL     1     -13.213  12.096  72.071  1.00  0.00    -0.223 SA 
BRANCH  26  27
HETATM   27  C   UNL     1     -12.793  13.689  71.259  1.00  0.00    -0.344 C  
HETATM   28  C   UNL     1     -11.880  13.485  70.045  1.00  0.00    -0.371 C  
HETATM   29  C   UNL     1     -11.648  14.807  69.313  1.00  0.00    -0.331 C  
HETATM   30  C   UNL     1     -11.071  15.867  70.259  1.00  0.00    -0.373 C  
HETATM   31  N   UNL     1     -10.900  17.133  69.554  1.00  0.00    -0.345 NA 
HETATM   32  C   UNL     1     -11.970  16.067  71.484  1.00  0.00    -0.539 C  
HETATM   33  C   UNL     1     -12.211  14.747  72.221  1.00  0.00    -0.298 C  
HETATM   34  H2  UNL     1     -11.767  17.445  69.115  1.00  0.00     0.000 HD 
HETATM   35  H1  UNL     1     -10.517  17.838  70.183  1.00  0.00     0.000 HD 
HETATM   36  O   UNL     1     -13.080  15.001  73.324  1.00  0.00    -0.488 OA 
HETATM   37  H   UNL     1     -12.721  15.652  73.917  1.00  0.00     0.000 HD 
ENDBRANCH  26  27
ENDBRANCH  25  26
ENDBRANCH  23  25
ENDBRANCH  22  23
ENDBRANCH  12  22
BRANCH  17  38
HETATM   38  C   UNL     1      -6.904   6.554  70.219  1.00  0.00    -0.058 C  
HETATM   39  C   UNL     1      -6.398   5.572  70.950  1.00  0.00    -0.034 C  
ENDBRANCH  17  38
TORSDOF 6
ENDMDL
MODEL       48
REMARK 921   NORMALIZED FREE ENERGY PREDICTED BY IDOCK:   -5.67 KCAL/MOL
REMARK 922        TOTAL FREE ENERGY PREDICTED BY IDOCK:   -8.90 KCAL/MOL
REMARK 923 INTER-LIGAND FREE ENERGY PREDICTED BY IDOCK:   -6.62 KCAL/MOL
REMARK 924 INTRA-LIGAND FREE ENERGY PREDICTED BY IDOCK:   -2.28 KCAL/MOL
REMARK 927      BINDING AFFINITY PREDICTED BY RF-SCORE:    0.00 PKD
ROOT
HETATM    1  C   UNL     1      -9.595  11.190  66.691  1.00  0.00    -0.215 C  
HETATM    2  C   UNL     1     -11.410  11.896  66.207  1.00  0.00    -0.334 C  
HETATM    3  C   UNL     1     -12.033  12.867  67.772  1.00  0.00    -0.336 C  
HETATM    4  O   UNL     1     -12.007  11.744  65.148  1.00  0.00    -0.228 OA 
HETATM    5  C   UNL     1     -10.669  12.591  69.195  1.00  0.00    -0.069 C  
HETATM    6  C   UNL     1      -9.170  11.834  68.300  1.00  0.00    -0.188 C  
HETATM    7  C   UNL     1      -7.778  12.490  68.230  1.00  0.00    -0.141 C  
HETATM    8  C   UNL     1      -6.929  12.072  66.968  1.00  0.00    -0.095 C  
HETATM    9  C   UNL     1      -7.091  10.610  66.483  1.00  0.00    -0.133 C  
HETATM   10  C   UNL     1      -6.506   9.749  67.630  1.00  0.00    -0.067 C  
HETATM   11  C   UNL     1      -8.562  10.291  65.952  1.00  0.00    -0.160 C  
HETATM   12  C   UNL     1      -8.873   8.741  66.283  1.00  0.00    -0.157 C  
HETATM   13  C   UNL     1      -8.756  10.556  64.451  1.00  0.00    -0.187 C  
HETATM   14  C   UNL     1     -10.197   8.446  67.010  1.00  0.00    -0.377 C  
HETATM   15  O   UNL     1     -12.465  10.771  68.889  1.00  0.00    -0.782 OA 
HETATM   16  C   UNL     1     -10.121  12.425  67.553  1.00  0.00    -0.205 C  
HETATM   17  C   UNL     1     -10.551   9.158  68.481  1.00  0.00    -0.209 C  
HETATM   18  C   UNL     1     -11.292  10.731  68.031  1.00  0.00    -0.307 C  
HETATM   19  H   UNL     1     -12.857  11.603  68.651  1.00  0.00     0.000 HD 
HETATM   20  C   UNL     1      -9.635  13.416  66.120  1.00  0.00    -0.216 C  
HETATM   21  C   UNL     1     -11.132   7.849  69.123  1.00  0.00     0.162 C  
ENDROOT
BRANCH  12  22
HETATM   22  O   UNL     1      -8.873   7.933  65.088  1.00  0.00    -0.027 OA 
BRANCH  22  23
HETATM   23  C   UNL     1      -7.795   7.120  64.894  1.00  0.00    -0.126 C  
HETATM   24  O   UNL     1      -6.625   7.476  64.901  1.00  0.00    -0.046 OA 
BRANCH  23  25
HETATM   25  C   UNL     1      -8.226   5.680  64.785  1.00  0.00    -0.134 C  
BRANCH  25  26
HETATM   26  S   UNL     1      -7.337   4.638  65.977  1.00  0.00    -0.078 SA 
BRANCH  26  27
HETATM   27  C   UNL     1      -8.225   5.055  67.530  1.00  0.00    -0.106 C  
HETATM   28  C   UNL     1      -7.345   5.866  68.488  1.00  0.00    -0.085 C  
HETATM   29  C   UNL     1      -8.143   6.308  69.714  1.00  0.00    -0.120 C  
HETATM   30  C   UNL     1      -8.765   5.103  70.431  1.00  0.00    -0.114 C  
HETATM   31  N   UNL     1      -9.560   5.549  71.571  1.00  0.00    -0.148 NA 
HETATM   32  C   UNL     1      -9.635   4.278  69.477  1.00  0.00    -0.274 C  
HETATM   33  C   UNL     1      -8.844   3.833  68.243  1.00  0.00    -0.112 C  
HETATM   34  H2  UNL     1     -10.263   6.236  71.299  1.00  0.00     0.000 HD 
HETATM   35  H1  UNL     1      -9.974   4.748  72.047  1.00  0.00     0.000 HD 
HETATM   36  O   UNL     1      -9.722   3.103  67.387  1.00  0.00    -0.350 OA 
HETATM   37  H   UNL     1     -10.102   2.351  67.826  1.00  0.00     0.000 HD 
ENDBRANCH  26  27
ENDBRANCH  25  26
ENDBRANCH  23  25
ENDBRANCH  22  23
ENDBRANCH  12  22
BRANCH  17  38
HETATM   38  C   UNL     1     -10.084   9.648  69.838  1.00  0.00    -0.279 C  
HETATM   39  C   UNL     1     -10.050   9.305  71.117  1.00  0.00    -0.374 C  
ENDBRANCH  17  38
TORSDOF 6
ENDMDL
MODEL       49
REMARK 921   NORMALIZED FREE ENERGY PREDICTED BY IDOCK:   -5.67 KCAL/MOL
REMARK 922        TOTAL FREE ENERGY PREDICTED BY IDOCK:   -8.89 KCAL/MOL
REMARK 923 INTER-LIGAND FREE ENERGY PREDICTED BY IDOCK:   -7.09 KCAL/MOL
REMARK 924 INTRA-LIGAND FREE ENERGY PREDICTED BY IDOCK:   -1.80 KCAL/MOL
REMARK 927      BINDING AFFINITY PREDICTED BY RF-SCORE:    0.00 PKD
ROOT
HETATM    1  C   UNL     1      -8.735  15.204  67.706  1.00  0.00    -0.169 C  
HETATM    2  C   UNL     1      -9.882  15.817  66.178  1.00  0.00    -0.315 C  
HETATM    3  C   UNL     1     -10.659  17.507  66.746  1.00  0.00    -0.201 C  
HETATM    4  O   UNL     1     -10.064  15.244  65.111  1.00  0.00    -0.345 OA 
HETATM    5  C   UNL     1     -10.095  17.788  68.634  1.00  0.00    -0.384 C  
HETATM    6  C   UNL     1      -8.734  16.494  68.939  1.00  0.00    -0.247 C  
HETATM    7  C   UNL     1      -7.278  16.836  69.311  1.00  0.00    -0.181 C  
HETATM    8  C   UNL     1      -6.227  15.740  68.885  1.00  0.00    -0.114 C  
HETATM    9  C   UNL     1      -6.695  14.266  68.975  1.00  0.00    -0.106 C  
HETATM   10  C   UNL     1      -6.906  14.013  70.488  1.00  0.00     0.428 C  
HETATM   11  C   UNL     1      -7.882  13.929  67.962  1.00  0.00    -0.154 C  
HETATM   12  C   UNL     1      -8.807  12.801  68.657  1.00  0.00     0.060 C  
HETATM   13  C   UNL     1      -7.409  13.442  66.583  1.00  0.00     1.200 C  
HETATM   14  C   UNL     1     -10.319  13.085  68.701  1.00  0.00    -0.203 C  
HETATM   15  O   UNL     1     -12.164  16.314  68.208  1.00  0.00    -0.009 OA 
HETATM   16  C   UNL     1      -9.078  16.762  67.666  1.00  0.00    -0.218 C  
HETATM   17  C   UNL     1     -10.917  14.469  69.422  1.00  0.00    -0.275 C  
HETATM   18  C   UNL     1     -10.850  15.699  68.115  1.00  0.00    -0.301 C  
HETATM   19  H   UNL     1     -12.128  16.965  67.517  1.00  0.00     0.000 HD 
HETATM   20  C   UNL     1      -7.792  16.841  66.397  1.00  0.00    -0.353 C  
HETATM   21  C   UNL     1     -12.107  13.739  70.140  1.00  0.00    -0.429 C  
ENDROOT
BRANCH  12  22
HETATM   22  O   UNL     1      -8.649  11.518  68.018  1.00  0.00    -0.137 OA 
BRANCH  22  23
HETATM   23  C   UNL     1      -9.106  10.429  68.702  1.00  0.00    -0.157 C  
HETATM   24  O   UNL     1      -8.884  10.184  69.880  1.00  0.00    -0.174 OA 
BRANCH  23  25
HETATM   25  C   UNL     1     -10.032   9.608  67.841  1.00  0.00    -0.166 C  
BRANCH  25  26
HETATM   26  S   UNL     1      -9.411   9.489  66.139  1.00  0.00    -0.242 SA 
BRANCH  26  27
HETATM   27  C   UNL     1     -10.105  11.026  65.410  1.00  0.00    -0.269 C  
HETATM   28  C   UNL     1     -11.535  11.289  65.893  1.00  0.00     0.149 C  
HETATM   29  C   UNL     1     -12.044  12.634  65.374  1.00  0.00    -0.516 C  
HETATM   30  C   UNL     1     -11.962  12.701  63.845  1.00  0.00    -0.479 C  
HETATM   31  N   UNL     1     -12.408  14.008  63.372  1.00  0.00    -1.154 NA 
HETATM   32  C   UNL     1     -10.538  12.424  63.351  1.00  0.00    -0.375 C  
HETATM   33  C   UNL     1     -10.019  11.080  63.870  1.00  0.00    -0.341 C  
HETATM   34  H2  UNL     1     -11.893  14.769  63.815  1.00  0.00     0.000 HD 
HETATM   35  H1  UNL     1     -12.353  14.053  62.355  1.00  0.00     0.000 HD 
HETATM   36  O   UNL     1      -8.682  10.905  63.402  1.00  0.00    -0.300 OA 
HETATM   37  H   UNL     1      -8.630  10.938  62.454  1.00  0.00     0.000 HD 
ENDBRANCH  26  27
ENDBRANCH  25  26
ENDBRANCH  23  25
ENDBRANCH  22  23
ENDBRANCH  12  22
BRANCH  17  38
HETATM   38  C   UNL     1     -10.841  15.496  70.534  1.00  0.00    -0.353 C  
HETATM   39  C   UNL     1     -11.248  15.725  71.774  1.00  0.00    -0.254 C  
ENDBRANCH  17  38
TORSDOF 6
ENDMDL
MODEL       50
REMARK 921   NORMALIZED FREE ENERGY PREDICTED BY IDOCK:   -5.62 KCAL/MOL
REMARK 922        TOTAL FREE ENERGY PREDICTED BY IDOCK:   -8.83 KCAL/MOL
REMARK 923 INTER-LIGAND FREE ENERGY PREDICTED BY IDOCK:   -7.61 KCAL/MOL
REMARK 924 INTRA-LIGAND FREE ENERGY PREDICTED BY IDOCK:   -1.22 KCAL/MOL
REMARK 927      BINDING AFFINITY PREDICTED BY RF-SCORE:    0.00 PKD
ROOT
HETATM    1  C   UNL     1      -9.360   5.669  72.022  1.00  0.00    -0.165 C  
HETATM    2  C   UNL     1      -9.930   3.753  72.197  1.00  0.00    -0.169 C  
HETATM    3  C   UNL     1      -8.680   2.730  71.115  1.00  0.00    -0.117 C  
HETATM    4  O   UNL     1     -10.874   3.316  72.844  1.00  0.00    -0.128 OA 
HETATM    5  C   UNL     1      -7.503   4.049  70.202  1.00  0.00    -0.045 C  
HETATM    6  C   UNL     1      -7.848   5.704  71.075  1.00  0.00    -0.105 C  
HETATM    7  C   UNL     1      -6.789   6.518  71.843  1.00  0.00    -0.068 C  
HETATM    8  C   UNL     1      -7.380   7.438  72.980  1.00  0.00    -0.084 C  
HETATM    9  C   UNL     1      -8.758   8.085  72.695  1.00  0.00    -0.250 C  
HETATM   10  C   UNL     1      -8.498   9.062  71.522  1.00  0.00    -0.092 C  
HETATM   11  C   UNL     1      -9.932   7.012  72.560  1.00  0.00    -0.191 C  
HETATM   12  C   UNL     1     -11.005   7.596  71.502  1.00  0.00    -0.233 C  
HETATM   13  C   UNL     1     -10.632   6.681  73.888  1.00  0.00    -0.267 C  
HETATM   14  C   UNL     1     -11.423   6.654  70.359  1.00  0.00    -0.444 C  
HETATM   15  O   UNL     1      -9.778   3.520  69.116  1.00  0.00    -0.139 OA 
HETATM   16  C   UNL     1      -8.252   4.573  71.680  1.00  0.00    -0.102 C  
HETATM   17  C   UNL     1     -10.287   5.996  69.324  1.00  0.00    -0.294 C  
HETATM   18  C   UNL     1      -9.736   4.514  70.176  1.00  0.00    -0.217 C  
HETATM   19  H   UNL     1      -9.486   2.736  69.566  1.00  0.00     0.000 HD 
HETATM   20  C   UNL     1      -8.091   4.421  73.476  1.00  0.00    -0.094 C  
HETATM   21  C   UNL     1     -11.143   6.226  68.028  1.00  0.00    -0.365 C  
ENDROOT
BRANCH  12  22
HETATM   22  O   UNL     1     -12.221   8.012  72.156  1.00  0.00    -0.314 OA 
BRANCH  22  23
HETATM   23  C   UNL     1     -12.938   9.002  71.549  1.00  0.00    -0.337 C  
HETATM   24  O   UNL     1     -14.116   8.930  71.225  1.00  0.00    -0.314 OA 
BRANCH  23  25
HETATM   25  C   UNL     1     -12.118  10.260  71.429  1.00  0.00    -0.362 C  
BRANCH  25  26
HETATM   26  S   UNL     1     -12.178  10.924  69.740  1.00  0.00    -0.255 SA 
BRANCH  26  27
HETATM   27  C   UNL     1     -11.614  12.648  70.026  1.00  0.00    -0.123 C  
HETATM   28  C   UNL     1     -12.670  13.476  70.767  1.00  0.00    -0.316 C  
HETATM   29  C   UNL     1     -12.130  14.866  71.103  1.00  0.00    -0.384 C  
HETATM   30  C   UNL     1     -11.651  15.593  69.841  1.00  0.00    -0.347 C  
HETATM   31  N   UNL     1     -11.098  16.897  70.189  1.00  0.00    -0.326 NA 
HETATM   32  C   UNL     1     -10.606  14.765  69.086  1.00  0.00    -0.251 C  
HETATM   33  C   UNL     1     -11.138  13.369  68.747  1.00  0.00    -0.262 C  
HETATM   34  H2  UNL     1     -10.359  16.824  70.889  1.00  0.00     0.000 HD 
HETATM   35  H1  UNL     1     -10.779  17.380  69.349  1.00  0.00     0.000 HD 
HETATM   36  O   UNL     1     -10.105  12.646  68.078  1.00  0.00    -0.215 OA 
HETATM   37  H   UNL     1      -9.812  13.090  67.291  1.00  0.00     0.000 HD 
ENDBRANCH  26  27
ENDBRANCH  25  26
ENDBRANCH  23  25
ENDBRANCH  22  23
ENDBRANCH  12  22
BRANCH  17  38
HETATM   38  C   UNL     1      -9.002   6.145  68.534  1.00  0.00    -0.115 C  
HETATM   39  C   UNL     1      -8.408   6.927  67.645  1.00  0.00    -0.123 C  
ENDBRANCH  17  38
TORSDOF 6
ENDMDL
MODEL       51
REMARK 921   NORMALIZED FREE ENERGY PREDICTED BY IDOCK:   -5.62 KCAL/MOL
REMARK 922        TOTAL FREE ENERGY PREDICTED BY IDOCK:   -8.83 KCAL/MOL
REMARK 923 INTER-LIGAND FREE ENERGY PREDICTED BY IDOCK:   -7.30 KCAL/MOL
REMARK 924 INTRA-LIGAND FREE ENERGY PREDICTED BY IDOCK:   -1.53 KCAL/MOL
REMARK 927      BINDING AFFINITY PREDICTED BY RF-SCORE:    0.00 PKD
ROOT
HETATM    1  C   UNL     1      -8.253  10.328  67.498  1.00  0.00    -0.114 C  
HETATM    2  C   UNL     1      -9.356   9.271  66.196  1.00  0.00    -0.212 C  
HETATM    3  C   UNL     1     -10.314  10.585  65.130  1.00  0.00    -0.310 C  
HETATM    4  O   UNL     1      -9.419   8.053  66.096  1.00  0.00    -0.190 OA 
HETATM    5  C   UNL     1      -9.894  12.368  65.908  1.00  0.00    -0.265 C  
HETATM    6  C   UNL     1      -8.443  12.057  67.098  1.00  0.00    -0.180 C  
HETATM    7  C   UNL     1      -7.050  12.699  66.956  1.00  0.00     0.074 C  
HETATM    8  C   UNL     1      -5.881  11.854  67.593  1.00  0.00    -0.083 C  
HETATM    9  C   UNL     1      -6.217  11.081  68.892  1.00  0.00    -0.042 C  
HETATM   10  C   UNL     1      -6.497  12.184  69.943  1.00  0.00    -0.009 C  
HETATM   11  C   UNL     1      -7.306   9.935  68.668  1.00  0.00    -0.074 C  
HETATM   12  C   UNL     1      -8.166   9.809  70.030  1.00  0.00    -0.191 C  
HETATM   13  C   UNL     1      -6.707   8.568  68.297  1.00  0.00    -0.065 C  
HETATM   14  C   UNL     1      -9.697   9.847  69.880  1.00  0.00    -0.274 C  
HETATM   15  O   UNL     1     -11.792  11.005  66.992  1.00  0.00    -0.322 OA 
HETATM   16  C   UNL     1      -8.733  11.106  66.190  1.00  0.00    -0.188 C  
HETATM   17  C   UNL     1     -10.461  11.140  69.145  1.00  0.00    -0.211 C  
HETATM   18  C   UNL     1     -10.425  10.725  67.398  1.00  0.00    -0.225 C  
HETATM   19  H   UNL     1     -11.773  10.786  66.067  1.00  0.00     0.000 HD 
HETATM   20  C   UNL     1      -7.383  10.220  65.374  1.00  0.00    -0.144 C  
HETATM   21  C   UNL     1     -11.621  11.223  70.199  1.00  0.00    -0.393 C  
ENDROOT
BRANCH  12  22
HETATM   22  O   UNL     1      -7.854   8.595  70.743  1.00  0.00    -0.084 OA 
BRANCH  22  23
HETATM   23  C   UNL     1      -7.112   8.723  71.881  1.00  0.00    -0.030 C  
HETATM   24  O   UNL     1      -6.068   9.353  71.982  1.00  0.00    -0.245 OA 
BRANCH  23  25
HETATM   25  C   UNL     1      -7.810   8.077  73.050  1.00  0.00    -0.149 C  
BRANCH  25  26
HETATM   26  S   UNL     1      -8.582   6.507  72.566  1.00  0.00    -0.121 SA 
BRANCH  26  27
HETATM   27  C   UNL     1     -10.182   7.102  71.889  1.00  0.00    -0.190 C  
HETATM   28  C   UNL     1     -11.040   7.776  72.965  1.00  0.00    -0.419 C  
HETATM   29  C   UNL     1     -12.307   8.373  72.353  1.00  0.00    -0.412 C  
HETATM   30  C   UNL     1     -13.112   7.306  71.601  1.00  0.00    -0.369 C  
HETATM   31  N   UNL     1     -14.292   7.904  70.986  1.00  0.00    -0.661 NA 
HETATM   32  C   UNL     1     -12.257   6.616  70.532  1.00  0.00    -0.209 C  
HETATM   33  C   UNL     1     -10.984   6.018  71.137  1.00  0.00    -0.278 C  
HETATM   34  H2  UNL     1     -14.051   8.693  70.386  1.00  0.00     0.000 HD 
HETATM   35  H1  UNL     1     -14.827   7.195  70.486  1.00  0.00     0.000 HD 
HETATM   36  O   UNL     1     -10.224   5.425  70.084  1.00  0.00    -0.226 OA 
HETATM   37  H   UNL     1     -10.717   4.757  69.621  1.00  0.00     0.000 HD 
ENDBRANCH  26  27
ENDBRANCH  25  26
ENDBRANCH  23  25
ENDBRANCH  22  23
ENDBRANCH  12  22
BRANCH  17  38
HETATM   38  C   UNL     1     -10.545  12.633  68.895  1.00  0.00    -0.157 C  
HETATM   39  C   UNL     1     -11.304  13.691  69.139  1.00  0.00    -0.335 C  
ENDBRANCH  17  38
TORSDOF 6
ENDMDL
MODEL       52
REMARK 921   NORMALIZED FREE ENERGY PREDICTED BY IDOCK:   -5.62 KCAL/MOL
REMARK 922        TOTAL FREE ENERGY PREDICTED BY IDOCK:   -8.82 KCAL/MOL
REMARK 923 INTER-LIGAND FREE ENERGY PREDICTED BY IDOCK:   -7.52 KCAL/MOL
REMARK 924 INTRA-LIGAND FREE ENERGY PREDICTED BY IDOCK:   -1.30 KCAL/MOL
REMARK 927      BINDING AFFINITY PREDICTED BY RF-SCORE:    0.00 PKD
ROOT
HETATM    1  C   UNL     1      -7.889   9.575  68.334  1.00  0.00    -0.086 C  
HETATM    2  C   UNL     1      -9.271   8.852  69.597  1.00  0.00    -0.152 C  
HETATM    3  C   UNL     1     -10.075   7.334  68.686  1.00  0.00    -0.182 C  
HETATM    4  O   UNL     1      -9.557   9.280  70.708  1.00  0.00    -0.245 OA 
HETATM    5  C   UNL     1      -9.282   7.278  66.861  1.00  0.00    -0.180 C  
HETATM    6  C   UNL     1      -7.808   8.480  66.928  1.00  0.00    -0.092 C  
HETATM    7  C   UNL     1      -6.342   8.070  66.690  1.00  0.00    -0.054 C  
HETATM    8  C   UNL     1      -5.287   8.999  67.406  1.00  0.00    -0.037 C  
HETATM    9  C   UNL     1      -5.638  10.505  67.485  1.00  0.00    -0.044 C  
HETATM   10  C   UNL     1      -5.626  10.990  66.014  1.00  0.00    -0.143 C  
HETATM   11  C   UNL     1      -6.926  10.796  68.383  1.00  0.00    -0.070 C  
HETATM   12  C   UNL     1      -7.671  12.087  67.759  1.00  0.00    -0.139 C  
HETATM   13  C   UNL     1      -6.612  11.038  69.868  1.00  0.00    -0.142 C  
HETATM   14  C   UNL     1      -9.179  11.944  67.487  1.00  0.00    -0.177 C  
HETATM   15  O   UNL     1     -11.286   8.849  67.248  1.00  0.00    -0.276 OA 
HETATM   16  C   UNL     1      -8.339   8.063  68.092  1.00  0.00    -0.127 C  
HETATM   17  C   UNL     1      -9.766  10.733  66.494  1.00  0.00    -0.236 C  
HETATM   18  C   UNL     1      -9.958   9.328  67.596  1.00  0.00    -0.196 C  
HETATM   19  H   UNL     1     -11.388   8.105  67.831  1.00  0.00     0.000 HD 
HETATM   20  C   UNL     1      -7.244   7.693  69.484  1.00  0.00    -0.080 C  
HETATM   21  C   UNL     1     -10.796  11.659  65.755  1.00  0.00    -0.334 C  
ENDROOT
BRANCH  12  22
HETATM   22  O   UNL     1      -7.515  13.247  68.602  1.00  0.00    -0.114 OA 
BRANCH  22  23
HETATM   23  C   UNL     1      -7.839  14.454  68.054  1.00  0.00    -0.140 C  
HETATM   24  O   UNL     1      -7.472  14.859  66.958  1.00  0.00    -0.145 OA 
BRANCH  23  25
HETATM   25  C   UNL     1      -8.817  15.193  68.929  1.00  0.00    -0.205 C  
BRANCH  25  26
HETATM   26  S   UNL     1     -10.381  15.493  68.057  1.00  0.00    -0.252 SA 
BRANCH  26  27
HETATM   27  C   UNL     1     -11.591  15.210  69.410  1.00  0.00    -0.323 C  
HETATM   28  C   UNL     1     -11.304  16.100  70.624  1.00  0.00    -0.394 C  
HETATM   29  C   UNL     1     -12.394  15.938  71.684  1.00  0.00    -0.519 C  
HETATM   30  C   UNL     1     -12.542  14.471  72.103  1.00  0.00    -0.314 C  
HETATM   31  N   UNL     1     -13.618  14.331  73.079  1.00  0.00    -0.600 NA 
HETATM   32  C   UNL     1     -12.815  13.572  70.892  1.00  0.00    -0.298 C  
HETATM   33  C   UNL     1     -11.729  13.729  69.824  1.00  0.00    -0.302 C  
HETATM   34  H2  UNL     1     -14.496  14.721  72.737  1.00  0.00     0.000 HD 
HETATM   35  H1  UNL     1     -13.717  13.355  73.358  1.00  0.00     0.000 HD 
HETATM   36  O   UNL     1     -12.064  12.893  68.717  1.00  0.00    -0.280 OA 
HETATM   37  H   UNL     1     -12.149  11.982  68.972  1.00  0.00     0.000 HD 
ENDBRANCH  26  27
ENDBRANCH  25  26
ENDBRANCH  23  25
ENDBRANCH  22  23
ENDBRANCH  12  22
BRANCH  17  38
HETATM   38  C   UNL     1      -9.609   9.873  65.256  1.00  0.00    -0.361 C  
HETATM   39  C   UNL     1      -9.289   9.939  63.972  1.00  0.00    -0.280 C  
ENDBRANCH  17  38
TORSDOF 6
ENDMDL
MODEL       53
REMARK 921   NORMALIZED FREE ENERGY PREDICTED BY IDOCK:   -5.61 KCAL/MOL
REMARK 922        TOTAL FREE ENERGY PREDICTED BY IDOCK:   -8.81 KCAL/MOL
REMARK 923 INTER-LIGAND FREE ENERGY PREDICTED BY IDOCK:   -6.95 KCAL/MOL
REMARK 924 INTRA-LIGAND FREE ENERGY PREDICTED BY IDOCK:   -1.87 KCAL/MOL
REMARK 927      BINDING AFFINITY PREDICTED BY RF-SCORE:    0.00 PKD
ROOT
HETATM    1  C   UNL     1      -8.619  10.370  67.277  1.00  0.00    -0.126 C  
HETATM    2  C   UNL     1      -9.838   9.646  65.857  1.00  0.00    -0.288 C  
HETATM    3  C   UNL     1     -10.521  11.198  64.906  1.00  0.00    -0.372 C  
HETATM    4  O   UNL     1     -10.105   8.471  65.637  1.00  0.00     0.254 OA 
HETATM    5  C   UNL     1      -9.832  12.802  65.863  1.00  0.00    -0.243 C  
HETATM    6  C   UNL     1      -8.498  12.135  67.045  1.00  0.00    -0.183 C  
HETATM    7  C   UNL     1      -7.012  12.538  66.992  1.00  0.00     0.034 C  
HETATM    8  C   UNL     1      -6.027  11.448  67.565  1.00  0.00    -0.064 C  
HETATM    9  C   UNL     1      -6.536  10.627  68.776  1.00  0.00    -0.051 C  
HETATM   10  C   UNL     1      -6.661  11.659  69.924  1.00  0.00    -0.030 C  
HETATM   11  C   UNL     1      -7.795   9.712  68.420  1.00  0.00    -0.085 C  
HETATM   12  C   UNL     1      -8.712   9.610  69.747  1.00  0.00    -0.208 C  
HETATM   13  C   UNL     1      -7.424   8.303  67.929  1.00  0.00    -0.098 C  
HETATM   14  C   UNL     1     -10.208   9.926  69.572  1.00  0.00    -0.243 C  
HETATM   15  O   UNL     1     -11.971  11.692  66.772  1.00  0.00    -0.536 OA 
HETATM   16  C   UNL     1      -8.912  11.338  66.042  1.00  0.00    -0.209 C  
HETATM   17  C   UNL     1     -10.714  11.394  68.953  1.00  0.00    -0.248 C  
HETATM   18  C   UNL     1     -10.687  11.144  67.175  1.00  0.00    -0.259 C  
HETATM   19  H   UNL     1     -11.957  11.560  65.831  1.00  0.00     0.000 HD 
HETATM   20  C   UNL     1      -7.705  10.312  65.169  1.00  0.00    -0.136 C  
HETATM   21  C   UNL     1     -11.880  11.577  69.988  1.00  0.00    -0.435 C  
ENDROOT
BRANCH  12  22
HETATM   22  O   UNL     1      -8.636   8.300  70.344  1.00  0.00    -0.128 OA 
BRANCH  22  23
HETATM   23  C   UNL     1      -8.966   8.205  71.665  1.00  0.00    -0.163 C  
HETATM   24  O   UNL     1      -8.801   9.081  72.503  1.00  0.00    -0.305 OA 
BRANCH  23  25
HETATM   25  C   UNL     1      -9.678   6.908  71.945  1.00  0.00    -0.161 C  
BRANCH  25  26
HETATM   26  S   UNL     1     -11.233   6.799  71.015  1.00  0.00    -0.309 SA 
BRANCH  26  27
HETATM   27  C   UNL     1     -10.777   5.578  69.720  1.00  0.00    -0.285 C  
HETATM   28  C   UNL     1      -9.725   4.583  70.223  1.00  0.00    -0.287 C  
HETATM   29  C   UNL     1      -9.455   3.504  69.174  1.00  0.00    -0.224 C  
HETATM   30  C   UNL     1      -9.026   4.127  67.841  1.00  0.00    -0.121 C  
HETATM   31  N   UNL     1      -8.818   3.085  66.840  1.00  0.00    -0.134 NA 
HETATM   32  C   UNL     1     -10.065   5.135  67.338  1.00  0.00    -0.222 C  
HETATM   33  C   UNL     1     -10.344   6.218  68.384  1.00  0.00    -0.200 C  
HETATM   34  H2  UNL     1      -9.638   2.488  66.735  1.00  0.00     0.000 HD 
HETATM   35  H1  UNL     1      -8.532   3.499  65.954  1.00  0.00     0.000 HD 
HETATM   36  O   UNL     1     -11.340   7.097  67.864  1.00  0.00    -0.500 OA 
HETATM   37  H   UNL     1     -11.073   7.491  67.041  1.00  0.00     0.000 HD 
ENDBRANCH  26  27
ENDBRANCH  25  26
ENDBRANCH  23  25
ENDBRANCH  22  23
ENDBRANCH  12  22
BRANCH  17  38
HETATM   38  C   UNL     1     -10.534  12.896  68.849  1.00  0.00    -0.109 C  
HETATM   39  C   UNL     1     -11.066  14.041  69.250  1.00  0.00    -0.271 C  
ENDBRANCH  17  38
TORSDOF 6
ENDMDL
MODEL       54
REMARK 921   NORMALIZED FREE ENERGY PREDICTED BY IDOCK:   -5.57 KCAL/MOL
REMARK 922        TOTAL FREE ENERGY PREDICTED BY IDOCK:   -8.76 KCAL/MOL
REMARK 923 INTER-LIGAND FREE ENERGY PREDICTED BY IDOCK:   -8.24 KCAL/MOL
REMARK 924 INTRA-LIGAND FREE ENERGY PREDICTED BY IDOCK:   -0.53 KCAL/MOL
REMARK 927      BINDING AFFINITY PREDICTED BY RF-SCORE:    0.00 PKD
ROOT
HETATM    1  C   UNL     1      -9.226   7.675  69.398  1.00  0.00    -0.149 C  
HETATM    2  C   UNL     1     -10.657   6.292  69.140  1.00  0.00    -0.268 C  
HETATM    3  C   UNL     1      -9.840   4.880  68.081  1.00  0.00    -0.198 C  
HETATM    4  O   UNL     1     -11.808   6.329  69.555  1.00  0.00    -0.234 OA 
HETATM    5  C   UNL     1      -8.014   5.510  67.601  1.00  0.00    -0.101 C  
HETATM    6  C   UNL     1      -7.714   7.034  68.700  1.00  0.00    -0.120 C  
HETATM    7  C   UNL     1      -6.589   7.141  69.747  1.00  0.00    -0.044 C  
HETATM    8  C   UNL     1      -6.903   8.130  70.935  1.00  0.00    -0.042 C  
HETATM    9  C   UNL     1      -7.714   9.400  70.577  1.00  0.00    -0.177 C  
HETATM   10  C   UNL     1      -6.779  10.215  69.650  1.00  0.00    -0.076 C  
HETATM   11  C   UNL     1      -9.196   9.072  70.083  1.00  0.00    -0.212 C  
HETATM   12  C   UNL     1      -9.610  10.202  69.005  1.00  0.00    -0.196 C  
HETATM   13  C   UNL     1     -10.235   9.020  71.215  1.00  0.00    -0.384 C  
HETATM   14  C   UNL     1     -10.168   9.697  67.662  1.00  0.00    -0.267 C  
HETATM   15  O   UNL     1      -9.976   6.282  66.122  1.00  0.00    -0.388 OA 
HETATM   16  C   UNL     1      -8.724   6.206  69.027  1.00  0.00    -0.124 C  
HETATM   17  C   UNL     1      -9.286   8.653  66.699  1.00  0.00    -0.246 C  
HETATM   18  C   UNL     1      -9.698   7.026  67.339  1.00  0.00    -0.141 C  
HETATM   19  H   UNL     1     -10.193   5.421  66.460  1.00  0.00     0.000 HD 
HETATM   20  C   UNL     1      -9.042   5.840  70.769  1.00  0.00    -0.161 C  
HETATM   21  C   UNL     1      -9.632   9.391  65.357  1.00  0.00    -0.296 C  
ENDROOT
BRANCH  12  22
HETATM   22  O   UNL     1     -10.593  11.111  69.542  1.00  0.00    -0.194 OA 
BRANCH  22  23
HETATM   23  C   UNL     1     -11.300  11.854  68.642  1.00  0.00    -0.276 C  
HETATM   24  O   UNL     1     -12.404  11.570  68.196  1.00  0.00    -0.473 OA 
BRANCH  23  25
HETATM   25  C   UNL     1     -10.593  13.152  68.348  1.00  0.00    -0.251 C  
BRANCH  25  26
HETATM   26  S   UNL     1     -11.635  14.256  67.353  1.00  0.00    -0.386 SA 
BRANCH  26  27
HETATM   27  C   UNL     1     -10.679  15.821  67.457  1.00  0.00    -0.317 C  
HETATM   28  C   UNL     1     -11.075  16.648  68.685  1.00  0.00    -0.294 C  
HETATM   29  C   UNL     1     -10.181  17.881  68.819  1.00  0.00    -0.362 C  
HETATM   30  C   UNL     1     -10.225  18.735  67.546  1.00  0.00    -0.393 C  
HETATM   31  N   UNL     1      -9.331  19.881  67.676  1.00  0.00    -0.341 NA 
HETATM   32  C   UNL     1      -9.845  17.912  66.311  1.00  0.00    -0.307 C  
HETATM   33  C   UNL     1     -10.735  16.673  66.171  1.00  0.00    -0.132 C  
HETATM   34  H2  UNL     1      -8.380  19.597  67.911  1.00  0.00     0.000 HD 
HETATM   35  H1  UNL     1      -9.360  20.448  66.829  1.00  0.00     0.000 HD 
HETATM   36  O   UNL     1     -10.304  15.939  65.025  1.00  0.00    -0.508 OA 
HETATM   37  H   UNL     1     -10.338  16.464  64.233  1.00  0.00     0.000 HD 
ENDBRANCH  26  27
ENDBRANCH  25  26
ENDBRANCH  23  25
ENDBRANCH  22  23
ENDBRANCH  12  22
BRANCH  17  38
HETATM   38  C   UNL     1      -7.948   8.210  66.143  1.00  0.00    -0.102 C  
HETATM   39  C   UNL     1      -6.845   8.679  65.578  1.00  0.00    -0.075 C  
ENDBRANCH  17  38
TORSDOF 6
ENDMDL
MODEL       55
REMARK 921   NORMALIZED FREE ENERGY PREDICTED BY IDOCK:   -5.57 KCAL/MOL
REMARK 922        TOTAL FREE ENERGY PREDICTED BY IDOCK:   -8.76 KCAL/MOL
REMARK 923 INTER-LIGAND FREE ENERGY PREDICTED BY IDOCK:   -7.65 KCAL/MOL
REMARK 924 INTRA-LIGAND FREE ENERGY PREDICTED BY IDOCK:   -1.10 KCAL/MOL
REMARK 927      BINDING AFFINITY PREDICTED BY RF-SCORE:    0.00 PKD
ROOT
HETATM    1  C   UNL     1      -9.572   7.206  69.676  1.00  0.00    -0.154 C  
HETATM    2  C   UNL     1     -10.505   6.414  68.085  1.00  0.00    -0.218 C  
HETATM    3  C   UNL     1     -10.089   4.515  68.121  1.00  0.00    -0.031 C  
HETATM    4  O   UNL     1     -11.189   7.003  67.258  1.00  0.00    -0.281 OA 
HETATM    5  C   UNL     1      -8.805   4.240  69.617  1.00  0.00    -0.134 C  
HETATM    6  C   UNL     1      -8.843   5.867  70.603  1.00  0.00    -0.144 C  
HETATM    7  C   UNL     1      -9.276   5.978  72.078  1.00  0.00    -0.151 C  
HETATM    8  C   UNL     1      -9.846   7.393  72.479  1.00  0.00    -0.213 C  
HETATM    9  C   UNL     1      -9.187   8.619  71.799  1.00  0.00    -0.338 C  
HETATM   10  C   UNL     1      -7.736   8.634  72.339  1.00  0.00    -0.031 C  
HETATM   11  C   UNL     1      -9.423   8.655  70.220  1.00  0.00    -0.182 C  
HETATM   12  C   UNL     1      -8.125   9.345  69.550  1.00  0.00    -0.114 C  
HETATM   13  C   UNL     1     -10.695   9.408  69.796  1.00  0.00    -0.250 C  
HETATM   14  C   UNL     1      -7.468   8.584  68.385  1.00  0.00    -0.095 C  
HETATM   15  O   UNL     1      -7.854   5.000  67.347  1.00  0.00    -0.094 OA 
HETATM   16  C   UNL     1      -9.839   5.633  69.729  1.00  0.00    -0.245 C  
HETATM   17  C   UNL     1      -6.926   7.014  68.577  1.00  0.00    -0.075 C  
HETATM   18  C   UNL     1      -8.380   6.013  68.247  1.00  0.00    -0.113 C  
HETATM   19  H   UNL     1      -8.623   4.470  67.173  1.00  0.00     0.000 HD 
HETATM   20  C   UNL     1     -11.530   6.106  70.164  1.00  0.00    -0.365 C  
HETATM   21  C   UNL     1      -5.587   7.242  67.790  1.00  0.00    -0.025 C  
ENDROOT
BRANCH  12  22
HETATM   22  O   UNL     1      -8.422  10.669  69.060  1.00  0.00    -0.143 OA 
BRANCH  22  23
HETATM   23  C   UNL     1      -7.409  11.582  69.103  1.00  0.00    -0.057 C  
HETATM   24  O   UNL     1      -6.349  11.442  69.698  1.00  0.00    -0.099 OA 
BRANCH  23  25
HETATM   25  C   UNL     1      -7.715  12.760  68.214  1.00  0.00    -0.136 C  
BRANCH  25  26
HETATM   26  S   UNL     1      -9.385  13.400  68.524  1.00  0.00    -0.029 SA 
BRANCH  26  27
HETATM   27  C   UNL     1     -10.134  13.236  66.855  1.00  0.00    -0.250 C  
HETATM   28  C   UNL     1      -9.951  14.509  66.022  1.00  0.00    -0.343 C  
HETATM   29  C   UNL     1     -10.470  14.304  64.599  1.00  0.00    -0.325 C  
HETATM   30  C   UNL     1     -11.937  13.861  64.605  1.00  0.00    -0.419 C  
HETATM   31  N   UNL     1     -12.399  13.627  63.241  1.00  0.00    -1.080 NA 
HETATM   32  C   UNL     1     -12.132  12.596  65.448  1.00  0.00    -0.516 C  
HETATM   33  C   UNL     1     -11.613  12.792  66.875  1.00  0.00    -0.366 C  
HETATM   34  H2  UNL     1     -11.803  12.964  62.745  1.00  0.00     0.000 HD 
HETATM   35  H1  UNL     1     -13.375  13.331  63.245  1.00  0.00     0.000 HD 
HETATM   36  O   UNL     1     -11.794  11.569  67.589  1.00  0.00    -0.595 OA 
HETATM   37  H   UNL     1     -12.704  11.296  67.602  1.00  0.00     0.000 HD 
ENDBRANCH  26  27
ENDBRANCH  25  26
ENDBRANCH  23  25
ENDBRANCH  22  23
ENDBRANCH  12  22
BRANCH  17  38
HETATM   38  C   UNL     1      -6.269   5.959  69.444  1.00  0.00    -0.033 C  
HETATM   39  C   UNL     1      -5.284   5.787  70.314  1.00  0.00    -0.009 C  
ENDBRANCH  17  38
TORSDOF 6
ENDMDL
MODEL       56
REMARK 921   NORMALIZED FREE ENERGY PREDICTED BY IDOCK:   -5.55 KCAL/MOL
REMARK 922        TOTAL FREE ENERGY PREDICTED BY IDOCK:   -8.73 KCAL/MOL
REMARK 923 INTER-LIGAND FREE ENERGY PREDICTED BY IDOCK:   -7.19 KCAL/MOL
REMARK 924 INTRA-LIGAND FREE ENERGY PREDICTED BY IDOCK:   -1.54 KCAL/MOL
REMARK 927      BINDING AFFINITY PREDICTED BY RF-SCORE:    0.00 PKD
ROOT
HETATM    1  C   UNL     1      -9.438   7.481  70.936  1.00  0.00    -0.165 C  
HETATM    2  C   UNL     1      -8.697   7.882  72.758  1.00  0.00    -0.174 C  
HETATM    3  C   UNL     1      -9.607   6.669  73.975  1.00  0.00    -0.257 C  
HETATM    4  O   UNL     1      -7.853   8.720  73.047  1.00  0.00    -0.387 OA 
HETATM    5  C   UNL     1     -10.966   5.693  72.898  1.00  0.00    -0.323 C  
HETATM    6  C   UNL     1     -10.529   6.077  71.087  1.00  0.00    -0.284 C  
HETATM    7  C   UNL     1     -10.131   5.014  70.045  1.00  0.00    -0.342 C  
HETATM    8  C   UNL     1      -9.218   5.560  68.881  1.00  0.00    -0.141 C  
HETATM    9  C   UNL     1      -9.502   7.005  68.402  1.00  0.00    -0.133 C  
HETATM   10  C   UNL     1     -10.913   6.938  67.769  1.00  0.00    -0.280 C  
HETATM   11  C   UNL     1      -9.211   8.100  69.527  1.00  0.00    -0.158 C  
HETATM   12  C   UNL     1     -10.255   9.313  69.304  1.00  0.00    -0.206 C  
HETATM   13  C   UNL     1      -7.771   8.638  69.518  1.00  0.00    -0.090 C  
HETATM   14  C   UNL     1     -11.052   9.768  70.540  1.00  0.00    -0.384 C  
HETATM   15  O   UNL     1     -11.603   8.016  73.811  1.00  0.00     0.115 OA 
HETATM   16  C   UNL     1      -9.602   6.331  72.030  1.00  0.00    -0.161 C  
HETATM   17  C   UNL     1     -12.000   8.692  71.399  1.00  0.00    -0.355 C  
HETATM   18  C   UNL     1     -10.856   7.947  72.566  1.00  0.00    -0.341 C  
HETATM   19  H   UNL     1     -10.998   7.621  74.428  1.00  0.00     0.000 HD 
HETATM   20  C   UNL     1      -7.862   5.982  71.680  1.00  0.00    -0.102 C  
HETATM   21  C   UNL     1     -13.202   9.686  71.571  1.00  0.00    -0.484 C  
ENDROOT
BRANCH  12  22
HETATM   22  O   UNL     1      -9.599  10.488  68.784  1.00  0.00    -0.163 OA 
BRANCH  22  23
HETATM   23  C   UNL     1     -10.213  11.128  67.748  1.00  0.00    -0.180 C  
HETATM   24  O   UNL     1     -11.361  10.932  67.371  1.00  0.00    -0.412 OA 
BRANCH  23  25
HETATM   25  C   UNL     1      -9.327  12.211  67.189  1.00  0.00    -0.193 C  
BRANCH  25  26
HETATM   26  S   UNL     1      -8.807  11.822  65.493  1.00  0.00     0.312 SA 
BRANCH  26  27
HETATM   27  C   UNL     1      -7.779  10.327  65.781  1.00  0.00    -0.143 C  
HETATM   28  C   UNL     1      -6.325  10.546  65.349  1.00  0.00    -0.098 C  
HETATM   29  C   UNL     1      -5.464   9.336  65.714  1.00  0.00    -0.040 C  
HETATM   30  C   UNL     1      -6.030   8.051  65.099  1.00  0.00    -0.045 C  
HETATM   31  N   UNL     1      -5.221   6.903  65.496  1.00  0.00    -0.022 NA 
HETATM   32  C   UNL     1      -7.489   7.832  65.513  1.00  0.00    -0.076 C  
HETATM   33  C   UNL     1      -8.358   9.041  65.154  1.00  0.00    -0.158 C  
HETATM   34  H2  UNL     1      -5.131   6.832  66.509  1.00  0.00     0.000 HD 
HETATM   35  H1  UNL     1      -5.598   6.048  65.087  1.00  0.00     0.000 HD 
HETATM   36  O   UNL     1      -9.690   8.783  65.598  1.00  0.00    -0.457 OA 
HETATM   37  H   UNL     1     -10.047   7.991  65.212  1.00  0.00     0.000 HD 
ENDBRANCH  26  27
ENDBRANCH  25  26
ENDBRANCH  23  25
ENDBRANCH  22  23
ENDBRANCH  12  22
BRANCH  17  38
HETATM   38  C   UNL     1     -12.944   7.506  71.408  1.00  0.00    -0.379 C  
HETATM   39  C   UNL     1     -14.226   7.193  71.524  1.00  0.00    -0.486 C  
ENDBRANCH  17  38
TORSDOF 6
ENDMDL
MODEL       57
REMARK 921   NORMALIZED FREE ENERGY PREDICTED BY IDOCK:   -5.54 KCAL/MOL
REMARK 922        TOTAL FREE ENERGY PREDICTED BY IDOCK:   -8.73 KCAL/MOL
REMARK 923 INTER-LIGAND FREE ENERGY PREDICTED BY IDOCK:   -7.64 KCAL/MOL
REMARK 924 INTRA-LIGAND FREE ENERGY PREDICTED BY IDOCK:   -1.08 KCAL/MOL
REMARK 927      BINDING AFFINITY PREDICTED BY RF-SCORE:    0.00 PKD
ROOT
HETATM    1  C   UNL     1      -8.153   9.817  68.477  1.00  0.00    -0.104 C  
HETATM    2  C   UNL     1      -9.407   9.222  69.926  1.00  0.00    -0.198 C  
HETATM    3  C   UNL     1     -10.695   8.050  69.060  1.00  0.00    -0.107 C  
HETATM    4  O   UNL     1      -9.375   9.535  71.109  1.00  0.00    -0.222 OA 
HETATM    5  C   UNL     1     -10.287   8.094  67.113  1.00  0.00    -0.391 C  
HETATM    6  C   UNL     1      -8.589   8.942  66.984  1.00  0.00    -0.120 C  
HETATM    7  C   UNL     1      -7.328   8.276  66.402  1.00  0.00    -0.080 C  
HETATM    8  C   UNL     1      -5.973   8.854  66.966  1.00  0.00    -0.057 C  
HETATM    9  C   UNL     1      -5.944  10.373  67.267  1.00  0.00    -0.053 C  
HETATM   10  C   UNL     1      -6.092  11.050  65.882  1.00  0.00    -0.057 C  
HETATM   11  C   UNL     1      -6.941  10.792  68.441  1.00  0.00    -0.070 C  
HETATM   12  C   UNL     1      -7.469  12.285  68.121  1.00  0.00    -0.112 C  
HETATM   13  C   UNL     1      -6.310  10.747  69.842  1.00  0.00    -0.118 C  
HETATM   14  C   UNL     1      -8.992  12.498  68.161  1.00  0.00    -0.199 C  
HETATM   15  O   UNL     1     -11.765   9.973  68.070  1.00  0.00    -0.645 OA 
HETATM   16  C   UNL     1      -8.977   8.482  68.188  1.00  0.00    -0.142 C  
HETATM   17  C   UNL     1     -10.017  11.591  67.201  1.00  0.00    -0.222 C  
HETATM   18  C   UNL     1     -10.322  10.112  68.174  1.00  0.00    -0.185 C  
HETATM   19  H   UNL     1     -11.928   9.191  68.584  1.00  0.00     0.000 HD 
HETATM   20  C   UNL     1      -7.760   7.697  69.271  1.00  0.00    -0.104 C  
HETATM   21  C   UNL     1     -10.922  12.806  66.792  1.00  0.00    -0.301 C  
ENDROOT
BRANCH  12  22
HETATM   22  O   UNL     1      -6.895  13.254  69.022  1.00  0.00    -0.105 OA 
BRANCH  22  23
HETATM   23  C   UNL     1      -6.662  14.501  68.518  1.00  0.00    -0.096 C  
HETATM   24  O   UNL     1      -6.111  14.745  67.453  1.00  0.00    -0.338 OA 
BRANCH  23  25
HETATM   25  C   UNL     1      -7.282  15.557  69.396  1.00  0.00    -0.204 C  
BRANCH  25  26
HETATM   26  S   UNL     1      -6.267  17.062  69.427  1.00  0.00    -0.238 SA 
BRANCH  26  27
HETATM   27  C   UNL     1      -7.448  18.289  68.737  1.00  0.00    -0.283 C  
HETATM   28  C   UNL     1      -8.800  17.649  68.400  1.00  0.00    -0.281 C  
HETATM   29  C   UNL     1      -9.803  18.710  67.948  1.00  0.00    -0.363 C  
HETATM   30  C   UNL     1      -9.263  19.507  66.755  1.00  0.00    -0.349 C  
HETATM   31  N   UNL     1     -10.214  20.544  66.368  1.00  0.00    -0.439 NA 
HETATM   32  C   UNL     1      -7.904  20.138  67.078  1.00  0.00    -0.354 C  
HETATM   33  C   UNL     1      -6.893  19.082  67.535  1.00  0.00    -0.204 C  
HETATM   34  H2  UNL     1     -10.458  21.149  67.152  1.00  0.00     0.000 HD 
HETATM   35  H1  UNL     1      -9.855  21.074  65.575  1.00  0.00     0.000 HD 
HETATM   36  O   UNL     1      -5.667  19.742  67.850  1.00  0.00    -0.195 OA 
HETATM   37  H   UNL     1      -5.326  20.230  67.110  1.00  0.00     0.000 HD 
ENDBRANCH  26  27
ENDBRANCH  25  26
ENDBRANCH  23  25
ENDBRANCH  22  23
ENDBRANCH  12  22
BRANCH  17  38
HETATM   38  C   UNL     1     -10.295  10.904  65.878  1.00  0.00    -0.310 C  
HETATM   39  C   UNL     1     -10.446  11.150  64.585  1.00  0.00    -0.400 C  
ENDBRANCH  17  38
TORSDOF 6
ENDMDL
MODEL       58
REMARK 921   NORMALIZED FREE ENERGY PREDICTED BY IDOCK:   -5.53 KCAL/MOL
REMARK 922        TOTAL FREE ENERGY PREDICTED BY IDOCK:   -8.70 KCAL/MOL
REMARK 923 INTER-LIGAND FREE ENERGY PREDICTED BY IDOCK:   -7.05 KCAL/MOL
REMARK 924 INTRA-LIGAND FREE ENERGY PREDICTED BY IDOCK:   -1.65 KCAL/MOL
REMARK 927      BINDING AFFINITY PREDICTED BY RF-SCORE:    0.00 PKD
ROOT
HETATM    1  C   UNL     1      -8.185   9.428  67.162  1.00  0.00    -0.113 C  
HETATM    2  C   UNL     1      -7.662  11.335  66.814  1.00  0.00    -0.155 C  
HETATM    3  C   UNL     1      -5.757  11.297  66.429  1.00  0.00    -0.145 C  
HETATM    4  O   UNL     1      -8.388  12.320  66.845  1.00  0.00    -0.181 OA 
HETATM    5  C   UNL     1      -5.155   9.420  66.705  1.00  0.00    -0.034 C  
HETATM    6  C   UNL     1      -6.758   8.405  66.843  1.00  0.00    -0.062 C  
HETATM    7  C   UNL     1      -7.155   7.273  65.876  1.00  0.00    -0.066 C  
HETATM    8  C   UNL     1      -8.710   7.035  65.762  1.00  0.00    -0.116 C  
HETATM    9  C   UNL     1      -9.534   7.233  67.058  1.00  0.00    -0.196 C  
HETATM   10  C   UNL     1      -9.052   6.106  68.006  1.00  0.00    -0.114 C  
HETATM   11  C   UNL     1      -9.515   8.741  67.582  1.00  0.00    -0.168 C  
HETATM   12  C   UNL     1      -9.606   8.697  69.194  1.00  0.00    -0.163 C  
HETATM   13  C   UNL     1     -10.648   9.612  67.016  1.00  0.00    -0.267 C  
HETATM   14  C   UNL     1      -8.554   9.516  69.963  1.00  0.00    -0.234 C  
HETATM   15  O   UNL     1      -5.298  10.950  68.773  1.00  0.00    -0.041 OA 
HETATM   16  C   UNL     1      -6.838   9.648  66.334  1.00  0.00    -0.084 C  
HETATM   17  C   UNL     1      -6.919   9.253  69.734  1.00  0.00    -0.058 C  
HETATM   18  C   UNL     1      -6.511  10.286  68.323  1.00  0.00    -0.056 C  
HETATM   19  H   UNL     1      -5.082  11.496  68.027  1.00  0.00     0.000 HD 
HETATM   20  C   UNL     1      -7.946   9.966  64.940  1.00  0.00    -0.138 C  
HETATM   21  C   UNL     1      -6.558   9.338  71.259  1.00  0.00    -0.057 C  
ENDROOT
BRANCH  12  22
HETATM   22  O   UNL     1     -10.895   9.141  69.665  1.00  0.00    -0.231 OA 
BRANCH  22  23
HETATM   23  C   UNL     1     -11.437   8.458  70.714  1.00  0.00    -0.255 C  
HETATM   24  O   UNL     1     -11.441   7.241  70.844  1.00  0.00    -0.275 OA 
BRANCH  23  25
HETATM   25  C   UNL     1     -11.934   9.410  71.771  1.00  0.00    -0.382 C  
BRANCH  25  26
HETATM   26  S   UNL     1     -13.350  10.375  71.170  1.00  0.00    -0.094 SA 
BRANCH  26  27
HETATM   27  C   UNL     1     -12.780  12.084  71.529  1.00  0.00    -0.255 C  
HETATM   28  C   UNL     1     -13.845  12.893  72.277  1.00  0.00    -0.464 C  
HETATM   29  C   UNL     1     -13.302  14.266  72.674  1.00  0.00    -0.619 C  
HETATM   30  C   UNL     1     -12.794  15.033  71.447  1.00  0.00    -0.359 C  
HETATM   31  N   UNL     1     -12.239  16.321  71.852  1.00  0.00    -0.604 NA 
HETATM   32  C   UNL     1     -11.739  14.225  70.684  1.00  0.00    -0.287 C  
HETATM   33  C   UNL     1     -12.274  12.846  70.285  1.00  0.00    -0.289 C  
HETATM   34  H2  UNL     1     -11.515  16.217  72.564  1.00  0.00     0.000 HD 
HETATM   35  H1  UNL     1     -11.901  16.831  71.037  1.00  0.00     0.000 HD 
HETATM   36  O   UNL     1     -11.232  12.140  69.612  1.00  0.00    -0.438 OA 
HETATM   37  H   UNL     1     -10.921  12.609  68.847  1.00  0.00     0.000 HD 
ENDBRANCH  26  27
ENDBRANCH  25  26
ENDBRANCH  23  25
ENDBRANCH  22  23
ENDBRANCH  12  22
BRANCH  17  38
HETATM   38  C   UNL     1      -5.776   8.287  69.489  1.00  0.00    -0.030 C  
HETATM   39  C   UNL     1      -5.193   7.211  69.995  1.00  0.00    -0.019 C  
ENDBRANCH  17  38
TORSDOF 6
ENDMDL
MODEL       59
REMARK 921   NORMALIZED FREE ENERGY PREDICTED BY IDOCK:   -5.51 KCAL/MOL
REMARK 922        TOTAL FREE ENERGY PREDICTED BY IDOCK:   -8.68 KCAL/MOL
REMARK 923 INTER-LIGAND FREE ENERGY PREDICTED BY IDOCK:   -7.89 KCAL/MOL
REMARK 924 INTRA-LIGAND FREE ENERGY PREDICTED BY IDOCK:   -0.79 KCAL/MOL
REMARK 927      BINDING AFFINITY PREDICTED BY RF-SCORE:    0.00 PKD
ROOT
HETATM    1  C   UNL     1      -7.710   9.769  68.634  1.00  0.00    -0.080 C  
HETATM    2  C   UNL     1      -6.506   9.822  70.239  1.00  0.00    -0.093 C  
HETATM    3  C   UNL     1      -6.131   7.966  70.679  1.00  0.00    -0.033 C  
HETATM    4  O   UNL     1      -6.096  10.816  70.826  1.00  0.00    -0.278 OA 
HETATM    5  C   UNL     1      -7.229   6.854  69.445  1.00  0.00    -0.089 C  
HETATM    6  C   UNL     1      -7.864   8.066  68.123  1.00  0.00    -0.126 C  
HETATM    7  C   UNL     1      -7.541   7.959  66.620  1.00  0.00    -0.093 C  
HETATM    8  C   UNL     1      -7.592   9.333  65.848  1.00  0.00    -0.098 C  
HETATM    9  C   UNL     1      -8.670  10.344  66.310  1.00  0.00    -0.163 C  
HETATM   10  C   UNL     1     -10.018   9.667  65.957  1.00  0.00    -0.344 C  
HETATM   11  C   UNL     1      -8.436  10.864  67.801  1.00  0.00    -0.124 C  
HETATM   12  C   UNL     1      -9.887  11.152  68.450  1.00  0.00    -0.185 C  
HETATM   13  C   UNL     1      -7.561  12.125  67.892  1.00  0.00    -0.123 C  
HETATM   14  C   UNL     1     -10.162  10.519  69.825  1.00  0.00    -0.168 C  
HETATM   15  O   UNL     1      -8.357   7.740  71.584  1.00  0.00    -0.103 OA 
HETATM   16  C   UNL     1      -6.839   8.459  68.903  1.00  0.00    -0.061 C  
HETATM   17  C   UNL     1     -10.037   8.867  70.056  1.00  0.00    -0.207 C  
HETATM   18  C   UNL     1      -8.297   8.615  70.425  1.00  0.00    -0.130 C  
HETATM   19  H   UNL     1      -7.437   7.606  71.780  1.00  0.00     0.000 HD 
HETATM   20  C   UNL     1      -5.486   9.414  68.175  1.00  0.00    -0.037 C  
HETATM   21  C   UNL     1     -11.339   8.758  70.925  1.00  0.00    -0.322 C  
ENDROOT
BRANCH  12  22
HETATM   22  O   UNL     1     -10.133  12.566  68.593  1.00  0.00    -0.210 OA 
BRANCH  22  23
HETATM   23  C   UNL     1     -11.434  12.954  68.733  1.00  0.00    -0.303 C  
HETATM   24  O   UNL     1     -12.145  12.719  69.701  1.00  0.00    -0.289 OA 
BRANCH  23  25
HETATM   25  C   UNL     1     -11.859  13.823  67.579  1.00  0.00    -0.387 C  
BRANCH  25  26
HETATM   26  S   UNL     1     -10.521  14.001  66.364  1.00  0.00    -0.289 SA 
BRANCH  26  27
HETATM   27  C   UNL     1     -10.034  15.751  66.640  1.00  0.00    -0.257 C  
HETATM   28  C   UNL     1     -10.052  16.118  68.128  1.00  0.00    -0.237 C  
HETATM   29  C   UNL     1      -9.524  17.536  68.342  1.00  0.00    -0.292 C  
HETATM   30  C   UNL     1     -10.323  18.552  67.518  1.00  0.00    -0.409 C  
HETATM   31  N   UNL     1      -9.775  19.893  67.701  1.00  0.00    -0.364 NA 
HETATM   32  C   UNL     1     -10.323  18.185  66.031  1.00  0.00    -0.360 C  
HETATM   33  C   UNL     1     -10.848  16.764  65.807  1.00  0.00    -0.087 C  
HETATM   34  H2  UNL     1      -8.778  19.929  67.487  1.00  0.00     0.000 HD 
HETATM   35  H1  UNL     1     -10.306  20.568  67.152  1.00  0.00     0.000 HD 
HETATM   36  O   UNL     1     -10.788  16.478  64.410  1.00  0.00    -1.027 OA 
HETATM   37  H   UNL     1     -11.289  17.102  63.897  1.00  0.00     0.000 HD 
ENDBRANCH  26  27
ENDBRANCH  25  26
ENDBRANCH  23  25
ENDBRANCH  22  23
ENDBRANCH  12  22
BRANCH  17  38
HETATM   38  C   UNL     1     -10.236   7.459  69.530  1.00  0.00    -0.204 C  
HETATM   39  C   UNL     1     -11.090   6.711  68.847  1.00  0.00    -0.312 C  
ENDBRANCH  17  38
TORSDOF 6
ENDMDL
MODEL       60
REMARK 921   NORMALIZED FREE ENERGY PREDICTED BY IDOCK:   -5.49 KCAL/MOL
REMARK 922        TOTAL FREE ENERGY PREDICTED BY IDOCK:   -8.66 KCAL/MOL
REMARK 923 INTER-LIGAND FREE ENERGY PREDICTED BY IDOCK:   -7.61 KCAL/MOL
REMARK 924 INTRA-LIGAND FREE ENERGY PREDICTED BY IDOCK:   -1.05 KCAL/MOL
REMARK 927      BINDING AFFINITY PREDICTED BY RF-SCORE:    0.00 PKD
ROOT
HETATM    1  C   UNL     1      -8.586   6.167  67.024  1.00  0.00    -0.108 C  
HETATM    2  C   UNL     1      -9.570   4.920  65.796  1.00  0.00    -0.170 C  
HETATM    3  C   UNL     1      -8.259   4.326  64.488  1.00  0.00    -0.101 C  
HETATM    4  O   UNL     1     -10.751   4.603  65.852  1.00  0.00    -0.307 OA 
HETATM    5  C   UNL     1      -6.585   5.336  64.859  1.00  0.00    -0.043 C  
HETATM    6  C   UNL     1      -6.864   6.147  66.557  1.00  0.00    -0.062 C  
HETATM    7  C   UNL     1      -6.005   5.868  67.804  1.00  0.00    -0.017 C  
HETATM    8  C   UNL     1      -6.757   6.098  69.172  1.00  0.00    -0.060 C  
HETATM    9  C   UNL     1      -7.773   7.266  69.211  1.00  0.00    -0.107 C  
HETATM   10  C   UNL     1      -6.912   8.542  69.039  1.00  0.00    -0.064 C  
HETATM   11  C   UNL     1      -9.018   7.038  68.238  1.00  0.00    -0.128 C  
HETATM   12  C   UNL     1      -9.493   8.489  67.709  1.00  0.00    -0.145 C  
HETATM   13  C   UNL     1     -10.199   6.307  68.896  1.00  0.00    -0.219 C  
HETATM   14  C   UNL     1      -9.662   8.643  66.187  1.00  0.00    -0.292 C  
HETATM   15  O   UNL     1      -8.377   6.480  63.405  1.00  0.00    -0.314 OA 
HETATM   16  C   UNL     1      -7.686   5.146  66.190  1.00  0.00    -0.091 C  
HETATM   17  C   UNL     1      -8.396   8.327  65.142  1.00  0.00    -0.167 C  
HETATM   18  C   UNL     1      -8.510   6.558  64.850  1.00  0.00     0.024 C  
HETATM   19  H   UNL     1      -8.437   5.544  63.250  1.00  0.00     0.000 HD 
HETATM   20  C   UNL     1      -8.213   3.935  67.425  1.00  0.00    -0.094 C  
HETATM   21  C   UNL     1      -8.663   9.578  64.232  1.00  0.00    -0.232 C  
ENDROOT
BRANCH  12  22
HETATM   22  O   UNL     1     -10.746   8.885  68.303  1.00  0.00    -0.180 OA 
BRANCH  22  23
HETATM   23  C   UNL     1     -10.716   9.957  69.148  1.00  0.00    -0.224 C  
HETATM   24  O   UNL     1     -10.853   9.908  70.363  1.00  0.00    -0.275 OA 
BRANCH  23  25
HETATM   25  C   UNL     1     -10.370  11.217  68.399  1.00  0.00    -0.192 C  
BRANCH  25  26
HETATM   26  S   UNL     1     -11.703  12.444  68.529  1.00  0.00    -0.316 SA 
BRANCH  26  27
HETATM   27  C   UNL     1     -11.353  13.492  67.062  1.00  0.00    -0.324 C  
HETATM   28  C   UNL     1     -11.308  14.981  67.424  1.00  0.00    -0.338 C  
HETATM   29  C   UNL     1     -10.892  15.820  66.216  1.00  0.00    -0.232 C  
HETATM   30  C   UNL     1     -11.827  15.574  65.026  1.00  0.00     0.058 C  
HETATM   31  N   UNL     1     -11.387  16.348  63.870  1.00  0.00    -1.535 NA 
HETATM   32  C   UNL     1     -11.890  14.086  64.666  1.00  0.00    -0.433 C  
HETATM   33  C   UNL     1     -12.303  13.237  65.872  1.00  0.00    -0.418 C  
HETATM   34  H2  UNL     1     -10.412  16.160  63.634  1.00  0.00     0.000 HD 
HETATM   35  H1  UNL     1     -12.008  16.185  63.078  1.00  0.00     0.000 HD 
HETATM   36  O   UNL     1     -12.307  11.866  65.475  1.00  0.00    -0.352 OA 
HETATM   37  H   UNL     1     -12.892  11.710  64.742  1.00  0.00     0.000 HD 
ENDBRANCH  26  27
ENDBRANCH  25  26
ENDBRANCH  23  25
ENDBRANCH  22  23
ENDBRANCH  12  22
BRANCH  17  38
HETATM   38  C   UNL     1      -6.913   8.387  64.836  1.00  0.00    -0.075 C  
HETATM   39  C   UNL     1      -5.962   9.218  64.434  1.00  0.00    -0.071 C  
ENDBRANCH  17  38
TORSDOF 6
ENDMDL
MODEL       61
REMARK 921   NORMALIZED FREE ENERGY PREDICTED BY IDOCK:   -5.49 KCAL/MOL
REMARK 922        TOTAL FREE ENERGY PREDICTED BY IDOCK:   -8.65 KCAL/MOL
REMARK 923 INTER-LIGAND FREE ENERGY PREDICTED BY IDOCK:   -6.33 KCAL/MOL
REMARK 924 INTRA-LIGAND FREE ENERGY PREDICTED BY IDOCK:   -2.32 KCAL/MOL
REMARK 927      BINDING AFFINITY PREDICTED BY RF-SCORE:    0.00 PKD
ROOT
HETATM    1  C   UNL     1      -8.958   9.535  67.966  1.00  0.00    -0.123 C  
HETATM    2  C   UNL     1      -9.107  11.508  67.629  1.00  0.00    -0.168 C  
HETATM    3  C   UNL     1      -9.746  11.684  65.801  1.00  0.00    -0.262 C  
HETATM    4  O   UNL     1      -8.844  12.415  68.408  1.00  0.00    -0.182 OA 
HETATM    5  C   UNL     1      -9.813   9.846  65.040  1.00  0.00    -0.323 C  
HETATM    6  C   UNL     1      -9.603   8.687  66.534  1.00  0.00    -0.303 C  
HETATM    7  C   UNL     1     -10.655   7.657  66.988  1.00  0.00    -0.406 C  
HETATM    8  C   UNL     1     -10.591   7.302  68.524  1.00  0.00    -0.207 C  
HETATM    9  C   UNL     1      -9.181   7.262  69.164  1.00  0.00    -0.139 C  
HETATM   10  C   UNL     1      -8.471   6.070  68.476  1.00  0.00    -0.113 C  
HETATM   11  C   UNL     1      -8.463   8.688  69.173  1.00  0.00    -0.124 C  
HETATM   12  C   UNL     1      -6.874   8.432  69.027  1.00  0.00    -0.056 C  
HETATM   13  C   UNL     1      -8.747   9.523  70.432  1.00  0.00    -0.265 C  
HETATM   14  C   UNL     1      -6.148   9.234  67.933  1.00  0.00    -0.050 C  
HETATM   15  O   UNL     1      -7.554  11.083  64.987  1.00  0.00    -0.342 OA 
HETATM   16  C   UNL     1      -9.921   9.973  66.771  1.00  0.00    -0.267 C  
HETATM   17  C   UNL     1      -6.628   9.144  66.334  1.00  0.00    -0.067 C  
HETATM   18  C   UNL     1      -7.925  10.380  66.204  1.00  0.00    -0.138 C  
HETATM   19  H   UNL     1      -8.241  11.736  64.918  1.00  0.00     0.000 HD 
HETATM   20  C   UNL     1     -11.097  10.369  68.087  1.00  0.00    -0.344 C  
HETATM   21  C   UNL     1      -5.168   9.066  65.763  1.00  0.00    -0.040 C  
ENDROOT
BRANCH  12  22
HETATM   22  O   UNL     1      -6.179   8.700  70.262  1.00  0.00    -0.036 OA 
BRANCH  22  23
HETATM   23  C   UNL     1      -5.800   7.618  71.002  1.00  0.00    -0.034 C  
HETATM   24  O   UNL     1      -5.540   6.508  70.558  1.00  0.00    -0.018 OA 
BRANCH  23  25
HETATM   25  C   UNL     1      -5.624   7.997  72.450  1.00  0.00    -0.037 C  
BRANCH  25  26
HETATM   26  S   UNL     1      -6.411   6.782  73.546  1.00  0.00    -0.064 SA 
BRANCH  26  27
HETATM   27  C   UNL     1      -8.124   6.777  72.883  1.00  0.00    -0.105 C  
HETATM   28  C   UNL     1      -9.088   7.543  73.794  1.00  0.00    -0.311 C  
HETATM   29  C   UNL     1     -10.477   7.632  73.160  1.00  0.00    -0.433 C  
HETATM   30  C   UNL     1     -11.024   6.237  72.834  1.00  0.00    -0.254 C  
HETATM   31  N   UNL     1     -12.328   6.345  72.189  1.00  0.00    -0.513 NA 
HETATM   32  C   UNL     1     -10.058   5.457  71.935  1.00  0.00    -0.246 C  
HETATM   33  C   UNL     1      -8.664   5.366  72.561  1.00  0.00    -0.124 C  
HETATM   34  H2  UNL     1     -12.297   6.944  71.364  1.00  0.00     0.000 HD 
HETATM   35  H1  UNL     1     -12.692   5.417  71.972  1.00  0.00     0.000 HD 
HETATM   36  O   UNL     1      -7.812   4.661  71.659  1.00  0.00    -0.091 OA 
HETATM   37  H   UNL     1      -8.145   3.793  71.461  1.00  0.00     0.000 HD 
ENDBRANCH  26  27
ENDBRANCH  25  26
ENDBRANCH  23  25
ENDBRANCH  22  23
ENDBRANCH  12  22
BRANCH  17  38
HETATM   38  C   UNL     1      -7.154   8.320  65.175  1.00  0.00    -0.075 C  
HETATM   39  C   UNL     1      -7.183   7.082  64.703  1.00  0.00    -0.073 C  
ENDBRANCH  17  38
TORSDOF 6
ENDMDL
MODEL       62
REMARK 921   NORMALIZED FREE ENERGY PREDICTED BY IDOCK:   -5.44 KCAL/MOL
REMARK 922        TOTAL FREE ENERGY PREDICTED BY IDOCK:   -8.59 KCAL/MOL
REMARK 923 INTER-LIGAND FREE ENERGY PREDICTED BY IDOCK:   -7.24 KCAL/MOL
REMARK 924 INTRA-LIGAND FREE ENERGY PREDICTED BY IDOCK:   -1.35 KCAL/MOL
REMARK 927      BINDING AFFINITY PREDICTED BY RF-SCORE:    0.00 PKD
ROOT
HETATM    1  C   UNL     1     -10.616  12.996  67.379  1.00  0.00    -0.239 C  
HETATM    2  C   UNL     1     -11.665  14.087  68.698  1.00  0.00    -0.354 C  
HETATM    3  C   UNL     1     -11.314  15.944  68.243  1.00  0.00    -0.342 C  
HETATM    4  O   UNL     1     -12.374  13.672  69.607  1.00  0.00    -0.296 OA 
HETATM    5  C   UNL     1      -9.959  15.928  66.785  1.00  0.00    -0.255 C  
HETATM    6  C   UNL     1      -9.884  14.118  66.202  1.00  0.00    -0.326 C  
HETATM    7  C   UNL     1     -10.229  13.651  64.775  1.00  0.00    -0.363 C  
HETATM    8  C   UNL     1     -10.726  12.156  64.687  1.00  0.00    -0.346 C  
HETATM    9  C   UNL     1     -10.064  11.152  65.663  1.00  0.00    -0.304 C  
HETATM   10  C   UNL     1      -8.585  11.081  65.209  1.00  0.00    -0.048 C  
HETATM   11  C   UNL     1     -10.387  11.468  67.194  1.00  0.00    -0.248 C  
HETATM   12  C   UNL     1      -9.105  11.013  68.065  1.00  0.00    -0.152 C  
HETATM   13  C   UNL     1     -11.654  10.775  67.721  1.00  0.00    -0.155 C  
HETATM   14  C   UNL     1      -8.542  12.051  69.052  1.00  0.00     0.326 C  
HETATM   15  O   UNL     1      -9.111  15.756  69.211  1.00  0.00    -0.238 OA 
HETATM   16  C   UNL     1     -10.935  14.499  66.951  1.00  0.00    -0.316 C  
HETATM   17  C   UNL     1      -8.045  13.559  68.527  1.00  0.00    -0.108 C  
HETATM   18  C   UNL     1      -9.550  14.539  68.547  1.00  0.00    -0.220 C  
HETATM   19  H   UNL     1      -9.906  16.275  69.221  1.00  0.00     0.000 HD 
HETATM   20  C   UNL     1     -12.581  13.861  66.559  1.00  0.00    -0.245 C  
HETATM   21  C   UNL     1      -6.745  13.581  69.406  1.00  0.00    -0.051 C  
ENDROOT
BRANCH  12  22
HETATM   22  O   UNL     1      -9.383   9.825  68.835  1.00  0.00    -0.148 OA 
BRANCH  22  23
HETATM   23  C   UNL     1      -8.585   8.742  68.605  1.00  0.00    -0.134 C  
HETATM   24  O   UNL     1      -7.674   8.363  69.330  1.00  0.00    -0.094 OA 
BRANCH  23  25
HETATM   25  C   UNL     1      -9.047   7.988  67.385  1.00  0.00    -0.134 C  
BRANCH  25  26
HETATM   26  S   UNL     1     -10.636   7.163  67.687  1.00  0.00    -0.249 SA 
BRANCH  26  27
HETATM   27  C   UNL     1     -10.466   6.725  69.463  1.00  0.00    -0.220 C  
HETATM   28  C   UNL     1     -10.099   5.249  69.652  1.00  0.00    -0.327 C  
HETATM   29  C   UNL     1      -9.841   4.940  71.126  1.00  0.00    -0.261 C  
HETATM   30  C   UNL     1     -11.051   5.317  71.989  1.00  0.00    -0.081 C  
HETATM   31  N   UNL     1     -10.768   5.058  73.397  1.00  0.00    -0.245 NA 
HETATM   32  C   UNL     1     -11.435   6.788  71.795  1.00  0.00    -0.320 C  
HETATM   33  C   UNL     1     -11.692   7.108  70.320  1.00  0.00    -0.182 C  
HETATM   34  H2  UNL     1      -9.917   5.527  73.707  1.00  0.00     0.000 HD 
HETATM   35  H1  UNL     1     -11.572   5.309  73.971  1.00  0.00     0.000 HD 
HETATM   36  O   UNL     1     -12.009   8.495  70.210  1.00  0.00    -0.470 OA 
HETATM   37  H   UNL     1     -12.764   8.730  70.738  1.00  0.00     0.000 HD 
ENDBRANCH  26  27
ENDBRANCH  25  26
ENDBRANCH  23  25
ENDBRANCH  22  23
ENDBRANCH  12  22
BRANCH  17  38
HETATM   38  C   UNL     1      -7.377  14.416  67.470  1.00  0.00    -0.208 C  
HETATM   39  C   UNL     1      -6.355  15.238  67.285  1.00  0.00     0.104 C  
ENDBRANCH  17  38
TORSDOF 6
ENDMDL
MODEL       63
REMARK 921   NORMALIZED FREE ENERGY PREDICTED BY IDOCK:   -5.42 KCAL/MOL
REMARK 922        TOTAL FREE ENERGY PREDICTED BY IDOCK:   -8.56 KCAL/MOL
REMARK 923 INTER-LIGAND FREE ENERGY PREDICTED BY IDOCK:   -6.76 KCAL/MOL
REMARK 924 INTRA-LIGAND FREE ENERGY PREDICTED BY IDOCK:   -1.80 KCAL/MOL
REMARK 927      BINDING AFFINITY PREDICTED BY RF-SCORE:    0.00 PKD
ROOT
HETATM    1  C   UNL     1      -8.187   5.079  66.810  1.00  0.00    -0.107 C  
HETATM    2  C   UNL     1      -8.864   4.411  65.042  1.00  0.00    -0.141 C  
HETATM    3  C   UNL     1      -7.648   5.131  63.706  1.00  0.00    -0.069 C  
HETATM    4  O   UNL     1      -9.843   3.703  64.841  1.00  0.00    -0.175 OA 
HETATM    5  C   UNL     1      -6.382   6.326  64.672  1.00  0.00    -0.034 C  
HETATM    6  C   UNL     1      -6.656   5.946  66.516  1.00  0.00    -0.055 C  
HETATM    7  C   UNL     1      -5.572   5.391  67.459  1.00  0.00    -0.013 C  
HETATM    8  C   UNL     1      -6.136   4.567  68.679  1.00  0.00    -0.031 C  
HETATM    9  C   UNL     1      -7.471   5.064  69.287  1.00  0.00    -0.057 C  
HETATM   10  C   UNL     1      -7.134   6.448  69.895  1.00  0.00    -0.072 C  
HETATM   11  C   UNL     1      -8.698   4.944  68.273  1.00  0.00    -0.109 C  
HETATM   12  C   UNL     1      -9.715   6.157  68.595  1.00  0.00    -0.128 C  
HETATM   13  C   UNL     1      -9.443   3.601  68.348  1.00  0.00    -0.214 C  
HETATM   14  C   UNL     1     -10.159   7.017  67.398  1.00  0.00    -0.252 C  
HETATM   15  O   UNL     1      -8.659   7.307  63.972  1.00  0.00    -0.342 OA 
HETATM   16  C   UNL     1      -7.133   5.071  65.612  1.00  0.00    -0.067 C  
HETATM   17  C   UNL     1      -9.039   7.795  66.431  1.00  0.00    -0.216 C  
HETATM   18  C   UNL     1      -8.586   6.555  65.214  1.00  0.00    -0.028 C  
HETATM   19  H   UNL     1      -8.419   6.651  63.328  1.00  0.00     0.000 HD 
HETATM   20  C   UNL     1      -7.018   3.298  65.947  1.00  0.00    -0.057 C  
HETATM   21  C   UNL     1      -9.853   9.133  66.339  1.00  0.00    -0.350 C  
ENDROOT
BRANCH  12  22
HETATM   22  O   UNL     1     -10.921   5.684  69.230  1.00  0.00    -0.304 OA 
BRANCH  22  23
HETATM   23  C   UNL     1     -11.017   5.862  70.579  1.00  0.00    -0.292 C  
HETATM   24  O   UNL     1     -10.340   5.289  71.422  1.00  0.00    -0.213 OA 
BRANCH  23  25
HETATM   25  C   UNL     1     -11.998   6.959  70.904  1.00  0.00    -0.381 C  
BRANCH  25  26
HETATM   26  S   UNL     1     -11.412   7.971  72.293  1.00  0.00    -0.386 SA 
BRANCH  26  27
HETATM   27  C   UNL     1     -11.374   9.635  71.515  1.00  0.00    -0.350 C  
HETATM   28  C   UNL     1     -12.764  10.280  71.485  1.00  0.00    -0.557 C  
HETATM   29  C   UNL     1     -12.685  11.710  70.950  1.00  0.00    -0.351 C  
HETATM   30  C   UNL     1     -12.036  11.745  69.562  1.00  0.00    -0.300 C  
HETATM   31  N   UNL     1     -11.928  13.121  69.089  1.00  0.00    -0.302 NA 
HETATM   32  C   UNL     1     -10.651  11.088  69.579  1.00  0.00    -0.182 C  
HETATM   33  C   UNL     1     -10.720   9.656  70.117  1.00  0.00    -0.275 C  
HETATM   34  H2  UNL     1     -11.435  13.716  69.755  1.00  0.00     0.000 HD 
HETATM   35  H1  UNL     1     -11.496  13.144  68.166  1.00  0.00     0.000 HD 
HETATM   36  O   UNL     1      -9.397   9.121  70.138  1.00  0.00    -0.178 OA 
HETATM   37  H   UNL     1      -8.995   9.133  69.277  1.00  0.00     0.000 HD 
ENDBRANCH  26  27
ENDBRANCH  25  26
ENDBRANCH  23  25
ENDBRANCH  22  23
ENDBRANCH  12  22
BRANCH  17  38
HETATM   38  C   UNL     1      -7.731   8.550  66.301  1.00  0.00    -0.094 C  
HETATM   39  C   UNL     1      -6.964   9.426  66.933  1.00  0.00    -0.081 C  
ENDBRANCH  17  38
TORSDOF 6
ENDMDL
MODEL       64
REMARK 921   NORMALIZED FREE ENERGY PREDICTED BY IDOCK:   -5.41 KCAL/MOL
REMARK 922        TOTAL FREE ENERGY PREDICTED BY IDOCK:   -8.55 KCAL/MOL
REMARK 923 INTER-LIGAND FREE ENERGY PREDICTED BY IDOCK:   -7.30 KCAL/MOL
REMARK 924 INTRA-LIGAND FREE ENERGY PREDICTED BY IDOCK:   -1.25 KCAL/MOL
REMARK 927      BINDING AFFINITY PREDICTED BY RF-SCORE:    0.00 PKD
ROOT
HETATM    1  C   UNL     1     -10.454  12.070  66.907  1.00  0.00    -0.251 C  
HETATM    2  C   UNL     1     -11.928  12.609  65.656  1.00  0.00    -0.452 C  
HETATM    3  C   UNL     1     -11.632  14.492  65.273  1.00  0.00    -0.359 C  
HETATM    4  O   UNL     1     -12.832  11.903  65.227  1.00  0.00     0.101 OA 
HETATM    5  C   UNL     1     -10.104  15.072  66.409  1.00  0.00    -0.289 C  
HETATM    6  C   UNL     1      -9.349  13.460  67.079  1.00  0.00    -0.243 C  
HETATM    7  C   UNL     1      -7.906  12.996  66.802  1.00  0.00     0.300 C  
HETATM    8  C   UNL     1      -7.704  11.433  66.871  1.00  0.00    -0.155 C  
HETATM    9  C   UNL     1      -8.540  10.678  67.933  1.00  0.00    -0.124 C  
HETATM   10  C   UNL     1      -7.999  11.185  69.293  1.00  0.00     0.018 C  
HETATM   11  C   UNL     1     -10.111  10.749  67.653  1.00  0.00    -0.205 C  
HETATM   12  C   UNL     1     -10.860  10.736  69.085  1.00  0.00    -0.237 C  
HETATM   13  C   UNL     1     -10.641   9.606  66.773  1.00  0.00    -0.209 C  
HETATM   14  C   UNL     1     -11.907  11.840  69.320  1.00  0.00    -0.389 C  
HETATM   15  O   UNL     1     -12.450  15.059  67.472  1.00  0.00    -0.310 OA 
HETATM   16  C   UNL     1     -10.189  13.378  66.032  1.00  0.00    -0.301 C  
HETATM   17  C   UNL     1     -11.501  13.456  69.193  1.00  0.00    -0.351 C  
HETATM   18  C   UNL     1     -11.700  13.814  67.444  1.00  0.00    -0.382 C  
HETATM   19  H   UNL     1     -12.556  15.248  66.547  1.00  0.00     0.000 HD 
HETATM   20  C   UNL     1      -9.833  12.209  64.698  1.00  0.00    -0.153 C  
HETATM   21  C   UNL     1     -12.303  13.893  70.470  1.00  0.00    -0.439 C  
ENDROOT
BRANCH  12  22
HETATM   22  O   UNL     1     -11.528   9.480  69.322  1.00  0.00     0.008 OA 
BRANCH  22  23
HETATM   23  C   UNL     1     -11.161   8.790  70.440  1.00  0.00    -0.236 C  
HETATM   24  O   UNL     1     -11.725   8.841  71.525  1.00  0.00    -0.271 OA 
BRANCH  23  25
HETATM   25  C   UNL     1     -10.024   7.849  70.138  1.00  0.00    -0.190 C  
BRANCH  25  26
HETATM   26  S   UNL     1      -8.848   7.774  71.519  1.00  0.00    -0.133 SA 
BRANCH  26  27
HETATM   27  C   UNL     1      -9.329   6.182  72.297  1.00  0.00    -0.146 C  
HETATM   28  C   UNL     1      -9.771   5.150  71.254  1.00  0.00    -0.228 C  
HETATM   29  C   UNL     1     -10.045   3.797  71.911  1.00  0.00    -0.194 C  
HETATM   30  C   UNL     1     -11.088   3.928  73.027  1.00  0.00    -0.048 C  
HETATM   31  N   UNL     1     -11.302   2.637  73.672  1.00  0.00    -0.225 NA 
HETATM   32  C   UNL     1     -10.662   4.969  74.068  1.00  0.00    -0.341 C  
HETATM   33  C   UNL     1     -10.382   6.327  73.417  1.00  0.00    -0.242 C  
HETATM   34  H2  UNL     1     -10.429   2.232  74.012  1.00  0.00     0.000 HD 
HETATM   35  H1  UNL     1     -11.995   2.724  74.415  1.00  0.00     0.000 HD 
HETATM   36  O   UNL     1      -9.959   7.233  74.435  1.00  0.00    -0.428 OA 
HETATM   37  H   UNL     1     -10.608   7.323  75.124  1.00  0.00     0.000 HD 
ENDBRANCH  26  27
ENDBRANCH  25  26
ENDBRANCH  23  25
ENDBRANCH  22  23
ENDBRANCH  12  22
BRANCH  17  38
HETATM   38  C   UNL     1     -10.494  14.568  69.412  1.00  0.00    -0.139 C  
HETATM   39  C   UNL     1     -10.087  15.445  70.317  1.00  0.00    -0.053 C  
ENDBRANCH  17  38
TORSDOF 6
ENDMDL
MODEL       65
REMARK 921   NORMALIZED FREE ENERGY PREDICTED BY IDOCK:   -5.40 KCAL/MOL
REMARK 922        TOTAL FREE ENERGY PREDICTED BY IDOCK:   -8.53 KCAL/MOL
REMARK 923 INTER-LIGAND FREE ENERGY PREDICTED BY IDOCK:   -7.70 KCAL/MOL
REMARK 924 INTRA-LIGAND FREE ENERGY PREDICTED BY IDOCK:   -0.83 KCAL/MOL
REMARK 927      BINDING AFFINITY PREDICTED BY RF-SCORE:    0.00 PKD
ROOT
HETATM    1  C   UNL     1      -8.134   9.584  68.461  1.00  0.00    -0.101 C  
HETATM    2  C   UNL     1      -9.334   9.096  69.994  1.00  0.00    -0.199 C  
HETATM    3  C   UNL     1     -10.701   7.933  69.244  1.00  0.00    -0.145 C  
HETATM    4  O   UNL     1      -9.234   9.458  71.160  1.00  0.00    -0.230 OA 
HETATM    5  C   UNL     1     -10.388   7.878  67.279  1.00  0.00    -0.377 C  
HETATM    6  C   UNL     1      -8.671   8.661  67.032  1.00  0.00    -0.135 C  
HETATM    7  C   UNL     1      -7.462   7.927  66.421  1.00  0.00    -0.087 C  
HETATM    8  C   UNL     1      -6.063   8.481  66.893  1.00  0.00    -0.054 C  
HETATM    9  C   UNL     1      -5.970  10.010  67.124  1.00  0.00    -0.051 C  
HETATM   10  C   UNL     1      -6.163  10.631  65.719  1.00  0.00    -0.126 C  
HETATM   11  C   UNL     1      -6.894  10.513  68.325  1.00  0.00    -0.068 C  
HETATM   12  C   UNL     1      -7.388  12.009  67.963  1.00  0.00    -0.102 C  
HETATM   13  C   UNL     1      -6.197  10.508  69.695  1.00  0.00    -0.063 C  
HETATM   14  C   UNL     1      -8.900  12.276  68.067  1.00  0.00    -0.182 C  
HETATM   15  O   UNL     1     -11.755   9.848  68.221  1.00  0.00    -0.558 OA 
HETATM   16  C   UNL     1      -9.015   8.267  68.272  1.00  0.00    -0.136 C  
HETATM   17  C   UNL     1      -9.999  11.364  67.198  1.00  0.00    -0.217 C  
HETATM   18  C   UNL     1     -10.305   9.941  68.249  1.00  0.00    -0.201 C  
HETATM   19  H   UNL     1     -11.917   9.095  68.777  1.00  0.00     0.000 HD 
HETATM   20  C   UNL     1      -7.772   7.487  69.331  1.00  0.00    -0.111 C  
HETATM   21  C   UNL     1     -10.884  12.591  66.779  1.00  0.00    -0.281 C  
ENDROOT
BRANCH  12  22
HETATM   22  O   UNL     1      -6.739  12.996  68.791  1.00  0.00    -0.089 OA 
BRANCH  22  23
HETATM   23  C   UNL     1      -6.354  14.154  68.182  1.00  0.00    -0.132 C  
HETATM   24  O   UNL     1      -5.387  14.280  67.442  1.00  0.00    -0.336 OA 
BRANCH  23  25
HETATM   25  C   UNL     1      -7.351  15.253  68.443  1.00  0.00    -0.114 C  
BRANCH  25  26
HETATM   26  S   UNL     1      -8.444  15.500  67.014  1.00  0.00    -0.255 SA 
BRANCH  26  27
HETATM   27  C   UNL     1      -8.100  17.260  66.617  1.00  0.00    -0.265 C  
HETATM   28  C   UNL     1      -6.602  17.576  66.684  1.00  0.00    -0.252 C  
HETATM   29  C   UNL     1      -6.330  19.010  66.229  1.00  0.00    -0.206 C  
HETATM   30  C   UNL     1      -7.138  20.015  67.058  1.00  0.00    -0.228 C  
HETATM   31  N   UNL     1      -6.900  21.372  66.579  1.00  0.00    -0.748 NA 
HETATM   32  C   UNL     1      -8.637  19.698  67.009  1.00  0.00    -0.358 C  
HETATM   33  C   UNL     1      -8.918  18.262  67.461  1.00  0.00    -0.253 C  
HETATM   34  H2  UNL     1      -7.090  21.462  65.580  1.00  0.00     0.000 HD 
HETATM   35  H1  UNL     1      -7.438  22.040  67.130  1.00  0.00     0.000 HD 
HETATM   36  O   UNL     1     -10.322  18.026  67.357  1.00  0.00    -0.350 OA 
HETATM   37  H   UNL     1     -10.826  18.642  67.877  1.00  0.00     0.000 HD 
ENDBRANCH  26  27
ENDBRANCH  25  26
ENDBRANCH  23  25
ENDBRANCH  22  23
ENDBRANCH  12  22
BRANCH  17  38
HETATM   38  C   UNL     1     -10.364  10.631  65.922  1.00  0.00    -0.291 C  
HETATM   39  C   UNL     1     -10.206  10.679  64.608  1.00  0.00    -0.404 C  
ENDBRANCH  17  38
TORSDOF 6
ENDMDL
MODEL       66
REMARK 921   NORMALIZED FREE ENERGY PREDICTED BY IDOCK:   -5.40 KCAL/MOL
REMARK 922        TOTAL FREE ENERGY PREDICTED BY IDOCK:   -8.53 KCAL/MOL
REMARK 923 INTER-LIGAND FREE ENERGY PREDICTED BY IDOCK:   -7.15 KCAL/MOL
REMARK 924 INTRA-LIGAND FREE ENERGY PREDICTED BY IDOCK:   -1.38 KCAL/MOL
REMARK 927      BINDING AFFINITY PREDICTED BY RF-SCORE:    0.00 PKD
ROOT
HETATM    1  C   UNL     1      -8.922   6.288  68.821  1.00  0.00    -0.125 C  
HETATM    2  C   UNL     1      -9.341   5.056  67.294  1.00  0.00    -0.126 C  
HETATM    3  C   UNL     1      -7.635   4.312  66.733  1.00  0.00    -0.085 C  
HETATM    4  O   UNL     1     -10.441   4.825  66.808  1.00  0.00    -0.224 OA 
HETATM    5  C   UNL     1      -6.233   5.220  67.815  1.00  0.00    -0.038 C  
HETATM    6  C   UNL     1      -7.183   6.128  69.190  1.00  0.00    -0.083 C  
HETATM    7  C   UNL     1      -7.010   5.849  70.696  1.00  0.00    -0.062 C  
HETATM    8  C   UNL     1      -8.278   6.195  71.568  1.00  0.00    -0.118 C  
HETATM    9  C   UNL     1      -9.101   7.431  71.127  1.00  0.00    -0.148 C  
HETATM   10  C   UNL     1      -8.153   8.634  71.353  1.00  0.00    -0.192 C  
HETATM   11  C   UNL     1      -9.783   7.244  69.696  1.00  0.00    -0.159 C  
HETATM   12  C   UNL     1      -9.845   8.698  68.993  1.00  0.00    -0.182 C  
HETATM   13  C   UNL     1     -11.191   6.628  69.750  1.00  0.00    -0.413 C  
HETATM   14  C   UNL     1      -9.292   8.791  67.560  1.00  0.00    -0.161 C  
HETATM   15  O   UNL     1      -7.069   6.415  65.692  1.00  0.00    -0.062 OA 
HETATM   16  C   UNL     1      -7.829   5.170  68.500  1.00  0.00    -0.079 C  
HETATM   17  C   UNL     1      -7.721   8.339  67.210  1.00  0.00    -0.101 C  
HETATM   18  C   UNL     1      -7.836   6.571  66.917  1.00  0.00    -0.107 C  
HETATM   19  H   UNL     1      -7.130   5.480  65.537  1.00  0.00     0.000 HD 
HETATM   20  C   UNL     1      -8.958   4.057  69.372  1.00  0.00    -0.167 C  
HETATM   21  C   UNL     1      -7.441   9.561  66.265  1.00  0.00    -0.097 C  
ENDROOT
BRANCH  12  22
HETATM   22  O   UNL     1     -11.193   9.207  68.946  1.00  0.00     0.042 OA 
BRANCH  22  23
HETATM   23  C   UNL     1     -11.502  10.212  69.816  1.00  0.00    -0.228 C  
HETATM   24  O   UNL     1     -11.414  10.149  71.035  1.00  0.00    -0.354 OA 
BRANCH  23  25
HETATM   25  C   UNL     1     -11.862  11.471  69.071  1.00  0.00    -0.343 C  
BRANCH  25  26
HETATM   26  S   UNL     1     -10.378  12.427  68.645  1.00  0.00    -0.133 SA 
BRANCH  26  27
HETATM   27  C   UNL     1     -10.920  13.229  67.084  1.00  0.00    -0.272 C  
HETATM   28  C   UNL     1     -12.401  12.965  66.794  1.00  0.00    -0.010 C  
HETATM   29  C   UNL     1     -12.859  13.744  65.561  1.00  0.00    -0.464 C  
HETATM   30  C   UNL     1     -11.994  13.403  64.341  1.00  0.00    -0.411 C  
HETATM   31  N   UNL     1     -12.417  14.190  63.187  1.00  0.00    -1.037 NA 
HETATM   32  C   UNL     1     -10.509  13.650  64.627  1.00  0.00    -0.442 C  
HETATM   33  C   UNL     1     -10.043  12.875  65.864  1.00  0.00    -0.289 C  
HETATM   34  H2  UNL     1     -12.416  15.190  63.387  1.00  0.00     0.000 HD 
HETATM   35  H1  UNL     1     -11.841  13.964  62.376  1.00  0.00     0.000 HD 
HETATM   36  O   UNL     1      -8.666  13.178  66.089  1.00  0.00    -0.390 OA 
HETATM   37  H   UNL     1      -8.126  12.960  65.338  1.00  0.00     0.000 HD 
ENDBRANCH  26  27
ENDBRANCH  25  26
ENDBRANCH  23  25
ENDBRANCH  22  23
ENDBRANCH  12  22
BRANCH  17  38
HETATM   38  C   UNL     1      -6.260   8.282  67.613  1.00  0.00    -0.052 C  
HETATM   39  C   UNL     1      -5.339   8.947  68.295  1.00  0.00    -0.034 C  
ENDBRANCH  17  38
TORSDOF 6
ENDMDL
MODEL       67
REMARK 921   NORMALIZED FREE ENERGY PREDICTED BY IDOCK:   -5.32 KCAL/MOL
REMARK 922        TOTAL FREE ENERGY PREDICTED BY IDOCK:   -8.42 KCAL/MOL
REMARK 923 INTER-LIGAND FREE ENERGY PREDICTED BY IDOCK:   -6.57 KCAL/MOL
REMARK 924 INTRA-LIGAND FREE ENERGY PREDICTED BY IDOCK:   -1.84 KCAL/MOL
REMARK 927      BINDING AFFINITY PREDICTED BY RF-SCORE:    0.00 PKD
ROOT
HETATM    1  C   UNL     1      -7.014  17.374  67.585  1.00  0.00    -0.175 C  
HETATM    2  C   UNL     1      -7.296  18.413  65.892  1.00  0.00    -0.203 C  
HETATM    3  C   UNL     1      -8.365  19.958  66.393  1.00  0.00    -0.368 C  
HETATM    4  O   UNL     1      -6.888  18.132  64.772  1.00  0.00     0.148 OA 
HETATM    5  C   UNL     1      -8.827  19.732  68.316  1.00  0.00    -0.329 C  
HETATM    6  C   UNL     1      -7.709  18.320  68.929  1.00  0.00    -0.223 C  
HETATM    7  C   UNL     1      -6.654  18.468  70.042  1.00  0.00     0.168 C  
HETATM    8  C   UNL     1      -5.458  17.446  69.938  1.00  0.00    -0.226 C  
HETATM    9  C   UNL     1      -5.806  16.027  69.423  1.00  0.00    -0.131 C  
HETATM   10  C   UNL     1      -6.718  15.425  70.520  1.00  0.00     0.318 C  
HETATM   11  C   UNL     1      -6.313  16.024  67.910  1.00  0.00    -0.155 C  
HETATM   12  C   UNL     1      -7.381  14.821  67.758  1.00  0.00    -0.170 C  
HETATM   13  C   UNL     1      -5.189  15.861  66.874  1.00  0.00     0.538 C  
HETATM   14  C   UNL     1      -8.733  15.180  67.116  1.00  0.00    -0.238 C  
HETATM   15  O   UNL     1     -10.310  18.541  66.580  1.00  0.00    -0.375 OA 
HETATM   16  C   UNL     1      -7.398  18.913  67.761  1.00  0.00    -0.254 C  
HETATM   17  C   UNL     1      -9.702  16.380  67.760  1.00  0.00    -0.235 C  
HETATM   18  C   UNL     1      -9.083  17.886  67.001  1.00  0.00    -0.253 C  
HETATM   19  H   UNL     1      -9.983  19.338  66.179  1.00  0.00     0.000 HD 
HETATM   20  C   UNL     1      -5.662  19.219  67.357  1.00  0.00    -0.171 C  
HETATM   21  C   UNL     1     -11.038  15.573  67.593  1.00  0.00    -0.311 C  
ENDROOT
BRANCH  12  22
HETATM   22  O   UNL     1      -6.841  13.726  66.990  1.00  0.00    -0.018 OA 
BRANCH  22  23
HETATM   23  C   UNL     1      -6.811  12.504  67.597  1.00  0.00    -0.136 C  
HETATM   24  O   UNL     1      -6.494  12.295  68.760  1.00  0.00    -0.070 OA 
BRANCH  23  25
HETATM   25  C   UNL     1      -7.340  11.437  66.674  1.00  0.00    -0.107 C  
BRANCH  25  26
HETATM   26  S   UNL     1      -8.900  10.746  67.295  1.00  0.00    -0.133 SA 
BRANCH  26  27
HETATM   27  C   UNL     1     -10.085  11.394  66.051  1.00  0.00    -0.234 C  
HETATM   28  C   UNL     1      -9.368  12.115  64.904  1.00  0.00     0.243 C  
HETATM   29  C   UNL     1     -10.362  12.533  63.821  1.00  0.00    -0.418 C  
HETATM   30  C   UNL     1     -11.477  13.409  64.405  1.00  0.00    -0.384 C  
HETATM   31  N   UNL     1     -12.440  13.760  63.366  1.00  0.00    -1.072 NA 
HETATM   32  C   UNL     1     -12.190  12.702  65.563  1.00  0.00    -0.501 C  
HETATM   33  C   UNL     1     -11.201  12.276  66.651  1.00  0.00    -0.316 C  
HETATM   34  H2  UNL     1     -12.811  12.934  62.896  1.00  0.00     0.000 HD 
HETATM   35  H1  UNL     1     -13.182  14.342  63.755  1.00  0.00     0.000 HD 
HETATM   36  O   UNL     1     -11.926  11.597  67.676  1.00  0.00    -0.618 OA 
HETATM   37  H   UNL     1     -12.613  12.140  68.046  1.00  0.00     0.000 HD 
ENDBRANCH  26  27
ENDBRANCH  25  26
ENDBRANCH  23  25
ENDBRANCH  22  23
ENDBRANCH  12  22
BRANCH  17  38
HETATM   38  C   UNL     1     -10.255  17.097  68.976  1.00  0.00    -0.315 C  
HETATM   39  C   UNL     1     -10.870  16.875  70.128  1.00  0.00     0.150 C  
ENDBRANCH  17  38
TORSDOF 6
ENDMDL
MODEL       68
REMARK 921   NORMALIZED FREE ENERGY PREDICTED BY IDOCK:   -5.29 KCAL/MOL
REMARK 922        TOTAL FREE ENERGY PREDICTED BY IDOCK:   -8.39 KCAL/MOL
REMARK 923 INTER-LIGAND FREE ENERGY PREDICTED BY IDOCK:   -6.99 KCAL/MOL
REMARK 924 INTRA-LIGAND FREE ENERGY PREDICTED BY IDOCK:   -1.40 KCAL/MOL
REMARK 927      BINDING AFFINITY PREDICTED BY RF-SCORE:    0.00 PKD
ROOT
HETATM    1  C   UNL     1      -8.710   9.762  67.567  1.00  0.00    -0.125 C  
HETATM    2  C   UNL     1     -10.019   9.036  66.230  1.00  0.00    -0.281 C  
HETATM    3  C   UNL     1     -10.351  10.485  64.977  1.00  0.00    -0.310 C  
HETATM    4  O   UNL     1     -10.513   7.915  66.208  1.00  0.00     0.043 OA 
HETATM    5  C   UNL     1      -9.374  12.074  65.670  1.00  0.00    -0.086 C  
HETATM    6  C   UNL     1      -8.230  11.394  67.030  1.00  0.00    -0.160 C  
HETATM    7  C   UNL     1      -6.692  11.482  66.995  1.00  0.00    -0.143 C  
HETATM    8  C   UNL     1      -5.961  10.348  67.812  1.00  0.00    -0.044 C  
HETATM    9  C   UNL     1      -6.653   9.885  69.118  1.00  0.00    -0.052 C  
HETATM   10  C   UNL     1      -6.592  11.118  70.053  1.00  0.00    -0.105 C  
HETATM   11  C   UNL     1      -8.063   9.182  68.857  1.00  0.00    -0.100 C  
HETATM   12  C   UNL     1      -9.011   9.512  70.123  1.00  0.00    -0.236 C  
HETATM   13  C   UNL     1      -7.974   7.662  68.650  1.00  0.00    -0.122 C  
HETATM   14  C   UNL     1     -10.408  10.075  69.806  1.00  0.00    -0.290 C  
HETATM   15  O   UNL     1     -11.713  11.593  66.634  1.00  0.00    -0.523 OA 
HETATM   16  C   UNL     1      -8.774  10.519  66.164  1.00  0.00    -0.167 C  
HETATM   17  C   UNL     1     -10.591  11.471  68.905  1.00  0.00    -0.236 C  
HETATM   18  C   UNL     1     -10.576  10.890  67.205  1.00  0.00    -0.255 C  
HETATM   19  H   UNL     1     -11.705  11.286  65.734  1.00  0.00     0.000 HD 
HETATM   20  C   UNL     1      -7.780   9.132  65.562  1.00  0.00    -0.094 C  
HETATM   21  C   UNL     1     -11.720  12.068  69.818  1.00  0.00    -0.390 C  
ENDROOT
BRANCH  12  22
HETATM   22  O   UNL     1      -9.216   8.347  70.949  1.00  0.00    -0.144 OA 
BRANCH  22  23
HETATM   23  C   UNL     1      -8.850   8.450  72.260  1.00  0.00    -0.220 C  
HETATM   24  O   UNL     1      -7.807   8.941  72.670  1.00  0.00    -0.372 OA 
BRANCH  23  25
HETATM   25  C   UNL     1      -9.961   7.981  73.163  1.00  0.00    -0.246 C  
BRANCH  25  26
HETATM   26  S   UNL     1     -11.402   7.437  72.201  1.00  0.00    -0.284 SA 
BRANCH  26  27
HETATM   27  C   UNL     1     -11.153   5.617  72.205  1.00  0.00    -0.261 C  
HETATM   28  C   UNL     1     -10.759   5.100  73.593  1.00  0.00    -0.345 C  
HETATM   29  C   UNL     1     -10.681   3.574  73.601  1.00  0.00    -0.306 C  
HETATM   30  C   UNL     1      -9.707   3.066  72.531  1.00  0.00    -0.141 C  
HETATM   31  N   UNL     1      -9.681   1.607  72.524  1.00  0.00    -0.082 NA 
HETATM   32  C   UNL     1     -10.085   3.590  71.142  1.00  0.00     0.053 C  
HETATM   33  C   UNL     1     -10.168   5.119  71.126  1.00  0.00    -0.221 C  
HETATM   34  H2  UNL     1     -10.614   1.210  72.409  1.00  0.00     0.000 HD 
HETATM   35  H1  UNL     1      -9.033   1.269  71.812  1.00  0.00     0.000 HD 
HETATM   36  O   UNL     1     -10.557   5.533  69.816  1.00  0.00    -0.297 OA 
HETATM   37  H   UNL     1      -9.950   5.227  69.152  1.00  0.00     0.000 HD 
ENDBRANCH  26  27
ENDBRANCH  25  26
ENDBRANCH  23  25
ENDBRANCH  22  23
ENDBRANCH  12  22
BRANCH  17  38
HETATM   38  C   UNL     1     -10.109  12.862  68.544  1.00  0.00    -0.193 C  
HETATM   39  C   UNL     1     -10.494  14.129  68.531  1.00  0.00    -0.252 C  
ENDBRANCH  17  38
TORSDOF 6
ENDMDL
MODEL       69
REMARK 921   NORMALIZED FREE ENERGY PREDICTED BY IDOCK:   -5.23 KCAL/MOL
REMARK 922        TOTAL FREE ENERGY PREDICTED BY IDOCK:   -8.31 KCAL/MOL
REMARK 923 INTER-LIGAND FREE ENERGY PREDICTED BY IDOCK:   -7.36 KCAL/MOL
REMARK 924 INTRA-LIGAND FREE ENERGY PREDICTED BY IDOCK:   -0.94 KCAL/MOL
REMARK 927      BINDING AFFINITY PREDICTED BY RF-SCORE:    0.00 PKD
ROOT
HETATM    1  C   UNL     1      -9.446  15.320  67.079  1.00  0.00    -0.235 C  
HETATM    2  C   UNL     1     -10.253  16.905  66.147  1.00  0.00    -0.341 C  
HETATM    3  C   UNL     1      -9.929  18.425  67.316  1.00  0.00    -0.347 C  
HETATM    4  O   UNL     1     -10.835  16.915  65.070  1.00  0.00    -0.666 OA 
HETATM    5  C   UNL     1      -9.088  17.704  68.970  1.00  0.00    -0.034 C  
HETATM    6  C   UNL     1      -8.610  15.913  68.539  1.00  0.00    -0.190 C  
HETATM    7  C   UNL     1      -7.167  15.373  68.550  1.00  0.00    -0.114 C  
HETATM    8  C   UNL     1      -6.927  14.152  67.581  1.00  0.00    -0.200 C  
HETATM    9  C   UNL     1      -8.098  13.150  67.432  1.00  0.00    -0.181 C  
HETATM   10  C   UNL     1      -8.235  12.497  68.829  1.00  0.00     0.116 C  
HETATM   11  C   UNL     1      -9.389  13.800  66.753  1.00  0.00    -0.276 C  
HETATM   12  C   UNL     1     -10.687  13.072  67.382  1.00  0.00    -0.245 C  
HETATM   13  C   UNL     1      -9.414  13.686  65.221  1.00  0.00     0.314 C  
HETATM   14  C   UNL     1     -11.793  13.993  67.927  1.00  0.00    -0.411 C  
HETATM   15  O   UNL     1     -11.658  17.637  68.805  1.00  0.00     0.434 OA 
HETATM   16  C   UNL     1      -8.902  16.752  67.528  1.00  0.00    -0.205 C  
HETATM   17  C   UNL     1     -11.466  15.127  69.111  1.00  0.00    -0.322 C  
HETATM   18  C   UNL     1     -10.901  16.561  68.188  1.00  0.00    -0.345 C  
HETATM   19  H   UNL     1     -11.359  18.396  68.317  1.00  0.00     0.000 HD 
HETATM   20  C   UNL     1      -7.931  16.673  66.003  1.00  0.00    -0.052 C  
HETATM   21  C   UNL     1     -12.769  14.835  69.935  1.00  0.00    -0.127 C  
ENDROOT
BRANCH  12  22
HETATM   22  O   UNL     1     -11.317  12.195  66.426  1.00  0.00    -0.321 OA 
BRANCH  22  23
HETATM   23  C   UNL     1     -10.901  10.896  66.414  1.00  0.00    -0.145 C  
HETATM   24  O   UNL     1     -10.280  10.357  65.507  1.00  0.00    -0.278 OA 
BRANCH  23  25
HETATM   25  C   UNL     1     -11.202  10.226  67.730  1.00  0.00    -0.190 C  
BRANCH  25  26
HETATM   26  S   UNL     1      -9.778   9.266  68.318  1.00  0.00    -0.154 SA 
BRANCH  26  27
HETATM   27  C   UNL     1     -10.505   8.431  69.783  1.00  0.00    -0.220 C  
HETATM   28  C   UNL     1      -9.669   8.669  71.046  1.00  0.00    -0.266 C  
HETATM   29  C   UNL     1     -10.359   8.073  72.273  1.00  0.00    -0.336 C  
HETATM   30  C   UNL     1     -10.638   6.578  72.076  1.00  0.00    -0.217 C  
HETATM   31  N   UNL     1     -11.338   6.038  73.237  1.00  0.00    -0.467 NA 
HETATM   32  C   UNL     1     -11.461   6.329  70.807  1.00  0.00    -0.383 C  
HETATM   33  C   UNL     1     -10.778   6.926  69.573  1.00  0.00    -0.246 C  
HETATM   34  H2  UNL     1     -12.189   6.560  73.446  1.00  0.00     0.000 HD 
HETATM   35  H1  UNL     1     -11.524   5.044  73.106  1.00  0.00     0.000 HD 
HETATM   36  O   UNL     1     -11.613   6.688  68.440  1.00  0.00    -0.534 OA 
HETATM   37  H   UNL     1     -11.781   5.762  68.310  1.00  0.00     0.000 HD 
ENDBRANCH  26  27
ENDBRANCH  25  26
ENDBRANCH  23  25
ENDBRANCH  22  23
ENDBRANCH  12  22
BRANCH  17  38
HETATM   38  C   UNL     1     -10.722  15.517  70.373  1.00  0.00    -0.342 C  
HETATM   39  C   UNL     1     -10.920  15.915  71.621  1.00  0.00     0.162 C  
ENDBRANCH  17  38
TORSDOF 6
ENDMDL
MODEL       70
REMARK 921   NORMALIZED FREE ENERGY PREDICTED BY IDOCK:   -5.23 KCAL/MOL
REMARK 922        TOTAL FREE ENERGY PREDICTED BY IDOCK:   -8.30 KCAL/MOL
REMARK 923 INTER-LIGAND FREE ENERGY PREDICTED BY IDOCK:   -7.17 KCAL/MOL
REMARK 924 INTRA-LIGAND FREE ENERGY PREDICTED BY IDOCK:   -1.13 KCAL/MOL
REMARK 927      BINDING AFFINITY PREDICTED BY RF-SCORE:    0.00 PKD
ROOT
HETATM    1  C   UNL     1      -8.444   6.667  71.183  1.00  0.00    -0.126 C  
HETATM    2  C   UNL     1      -9.132   4.967  71.998  1.00  0.00    -0.135 C  
HETATM    3  C   UNL     1      -8.308   3.526  70.986  1.00  0.00    -0.088 C  
HETATM    4  O   UNL     1      -9.914   4.856  72.934  1.00  0.00    -0.151 OA 
HETATM    5  C   UNL     1      -7.284   4.380  69.508  1.00  0.00    -0.051 C  
HETATM    6  C   UNL     1      -7.232   6.230  69.950  1.00  0.00    -0.074 C  
HETATM    7  C   UNL     1      -5.937   7.024  70.209  1.00  0.00    -0.024 C  
HETATM    8  C   UNL     1      -6.124   8.273  71.154  1.00  0.00    -0.035 C  
HETATM    9  C   UNL     1      -7.460   9.045  71.019  1.00  0.00    -0.132 C  
HETATM   10  C   UNL     1      -7.418   9.656  69.596  1.00  0.00    -0.102 C  
HETATM   11  C   UNL     1      -8.726   8.174  71.449  1.00  0.00    -0.179 C  
HETATM   12  C   UNL     1      -9.974   8.649  70.539  1.00  0.00    -0.189 C  
HETATM   13  C   UNL     1      -9.088   8.289  72.938  1.00  0.00    -0.332 C  
HETATM   14  C   UNL     1     -10.762   7.539  69.820  1.00  0.00    -0.249 C  
HETATM   15  O   UNL     1      -9.802   3.976  69.145  1.00  0.00    -0.153 OA 
HETATM   16  C   UNL     1      -7.573   5.357  70.916  1.00  0.00    -0.089 C  
HETATM   17  C   UNL     1     -10.000   6.478  68.778  1.00  0.00    -0.155 C  
HETATM   18  C   UNL     1      -9.393   5.176  69.856  1.00  0.00    -0.143 C  
HETATM   19  H   UNL     1      -9.481   3.288  69.715  1.00  0.00     0.000 HD 
HETATM   20  C   UNL     1      -6.969   5.619  72.601  1.00  0.00    -0.080 C  
HETATM   21  C   UNL     1     -11.135   6.523  67.694  1.00  0.00    -0.380 C  
ENDROOT
BRANCH  12  22
HETATM   22  O   UNL     1     -10.935   9.401  71.309  1.00  0.00    -0.317 OA 
BRANCH  22  23
HETATM   23  C   UNL     1     -11.814  10.175  70.609  1.00  0.00    -0.342 C  
HETATM   24  O   UNL     1     -13.034  10.083  70.653  1.00  0.00    -0.289 OA 
BRANCH  23  25
HETATM   25  C   UNL     1     -11.088  11.256  69.851  1.00  0.00    -0.109 C  
BRANCH  25  26
HETATM   26  S   UNL     1     -11.343  11.086  68.061  1.00  0.00    -0.294 SA 
BRANCH  26  27
HETATM   27  C   UNL     1     -10.847  12.756  67.481  1.00  0.00    -0.239 C  
HETATM   28  C   UNL     1     -11.990  13.768  67.620  1.00  0.00    -0.392 C  
HETATM   29  C   UNL     1     -11.516  15.174  67.250  1.00  0.00    -0.284 C  
HETATM   30  C   UNL     1     -10.929  15.203  65.834  1.00  0.00    -0.339 C  
HETATM   31  N   UNL     1     -10.441  16.542  65.518  1.00  0.00    -0.546 NA 
HETATM   32  C   UNL     1      -9.795  14.184  65.682  1.00  0.00    -0.278 C  
HETATM   33  C   UNL     1     -10.260  12.772  66.053  1.00  0.00    -0.278 C  
HETATM   34  H2  UNL     1      -9.776  16.879  66.213  1.00  0.00     0.000 HD 
HETATM   35  H1  UNL     1     -10.050  16.561  64.576  1.00  0.00     0.000 HD 
HETATM   36  O   UNL     1      -9.150  11.885  65.922  1.00  0.00    -0.352 OA 
HETATM   37  H   UNL     1      -8.789  11.895  65.043  1.00  0.00     0.000 HD 
ENDBRANCH  26  27
ENDBRANCH  25  26
ENDBRANCH  23  25
ENDBRANCH  22  23
ENDBRANCH  12  22
BRANCH  17  38
HETATM   38  C   UNL     1      -8.954   6.224  67.710  1.00  0.00    -0.112 C  
HETATM   39  C   UNL     1      -8.812   6.078  66.401  1.00  0.00    -0.137 C  
ENDBRANCH  17  38
TORSDOF 6
ENDMDL
MODEL       71
REMARK 921   NORMALIZED FREE ENERGY PREDICTED BY IDOCK:   -5.22 KCAL/MOL
REMARK 922        TOTAL FREE ENERGY PREDICTED BY IDOCK:   -8.29 KCAL/MOL
REMARK 923 INTER-LIGAND FREE ENERGY PREDICTED BY IDOCK:   -7.45 KCAL/MOL
REMARK 924 INTRA-LIGAND FREE ENERGY PREDICTED BY IDOCK:   -0.84 KCAL/MOL
REMARK 927      BINDING AFFINITY PREDICTED BY RF-SCORE:    0.00 PKD
ROOT
HETATM    1  C   UNL     1      -8.849   7.710  69.824  1.00  0.00    -0.140 C  
HETATM    2  C   UNL     1      -7.736   8.230  71.411  1.00  0.00    -0.097 C  
HETATM    3  C   UNL     1      -8.240   7.002  72.833  1.00  0.00    -0.119 C  
HETATM    4  O   UNL     1      -6.915   9.135  71.476  1.00  0.00    -0.236 OA 
HETATM    5  C   UNL     1      -9.735   5.894  72.126  1.00  0.00    -0.175 C  
HETATM    6  C   UNL     1      -9.764   6.240  70.256  1.00  0.00    -0.189 C  
HETATM    7  C   UNL     1      -9.540   5.169  69.171  1.00  0.00    -0.207 C  
HETATM    8  C   UNL     1      -8.969   5.733  67.813  1.00  0.00    -0.107 C  
HETATM    9  C   UNL     1      -9.467   7.135  67.386  1.00  0.00    -0.156 C  
HETATM   10  C   UNL     1     -10.978   6.946  67.106  1.00  0.00    -0.427 C  
HETATM   11  C   UNL     1      -9.007   8.290  68.389  1.00  0.00    -0.136 C  
HETATM   12  C   UNL     1     -10.163   9.418  68.395  1.00  0.00    -0.197 C  
HETATM   13  C   UNL     1      -7.655   8.926  68.030  1.00  0.00    -0.093 C  
HETATM   14  C   UNL     1     -10.682   9.862  69.774  1.00  0.00    -0.298 C  
HETATM   15  O   UNL     1     -10.317   8.199  73.117  1.00  0.00    -0.289 OA 
HETATM   16  C   UNL     1      -8.665   6.593  70.948  1.00  0.00    -0.138 C  
HETATM   17  C   UNL     1     -11.318   8.755  70.854  1.00  0.00    -0.322 C  
HETATM   18  C   UNL     1      -9.879   8.136  71.733  1.00  0.00    -0.194 C  
HETATM   19  H   UNL     1      -9.557   7.871  73.582  1.00  0.00     0.000 HD 
HETATM   20  C   UNL     1      -7.033   6.354  70.205  1.00  0.00    -0.063 C  
HETATM   21  C   UNL     1     -12.519   9.668  71.285  1.00  0.00    -0.445 C  
ENDROOT
BRANCH  12  22
HETATM   22  O   UNL     1      -9.739  10.615  67.711  1.00  0.00    -0.158 OA 
BRANCH  22  23
HETATM   23  C   UNL     1     -10.681  11.586  67.529  1.00  0.00    -0.223 C  
HETATM   24  O   UNL     1     -11.841  11.397  67.190  1.00  0.00    -0.566 OA 
BRANCH  23  25
HETATM   25  C   UNL     1     -10.137  12.936  67.917  1.00  0.00    -0.232 C  
BRANCH  25  26
HETATM   26  S   UNL     1      -8.346  13.028  67.636  1.00  0.00    -0.195 SA 
BRANCH  26  27
HETATM   27  C   UNL     1      -8.069  14.840  67.754  1.00  0.00    -0.152 C  
HETATM   28  C   UNL     1      -8.222  15.528  66.393  1.00  0.00    -0.055 C  
HETATM   29  C   UNL     1      -8.112  17.046  66.539  1.00  0.00    -0.320 C  
HETATM   30  C   UNL     1      -6.790  17.441  67.206  1.00  0.00    -0.168 C  
HETATM   31  N   UNL     1      -6.724  18.889  67.377  1.00  0.00    -0.199 NA 
HETATM   32  C   UNL     1      -6.621  16.746  68.561  1.00  0.00    -0.161 C  
HETATM   33  C   UNL     1      -6.733  15.225  68.426  1.00  0.00    -0.113 C  
HETATM   34  H2  UNL     1      -7.531  19.250  67.887  1.00  0.00     0.000 HD 
HETATM   35  H1  UNL     1      -5.845  19.152  67.822  1.00  0.00     0.000 HD 
HETATM   36  O   UNL     1      -6.602  14.648  69.725  1.00  0.00    -0.144 OA 
HETATM   37  H   UNL     1      -5.779  14.885  70.138  1.00  0.00     0.000 HD 
ENDBRANCH  26  27
ENDBRANCH  25  26
ENDBRANCH  23  25
ENDBRANCH  22  23
ENDBRANCH  12  22
BRANCH  17  38
HETATM   38  C   UNL     1     -12.140   7.507  71.109  1.00  0.00    -0.335 C  
HETATM   39  C   UNL     1     -13.299   7.104  71.608  1.00  0.00    -0.397 C  
ENDBRANCH  17  38
TORSDOF 6
ENDMDL
MODEL       72
REMARK 921   NORMALIZED FREE ENERGY PREDICTED BY IDOCK:   -5.22 KCAL/MOL
REMARK 922        TOTAL FREE ENERGY PREDICTED BY IDOCK:   -8.28 KCAL/MOL
REMARK 923 INTER-LIGAND FREE ENERGY PREDICTED BY IDOCK:   -6.76 KCAL/MOL
REMARK 924 INTRA-LIGAND FREE ENERGY PREDICTED BY IDOCK:   -1.52 KCAL/MOL
REMARK 927      BINDING AFFINITY PREDICTED BY RF-SCORE:    0.00 PKD
ROOT
HETATM    1  C   UNL     1      -8.571  10.303  67.355  1.00  0.00    -0.125 C  
HETATM    2  C   UNL     1      -9.740   9.467  65.954  1.00  0.00    -0.285 C  
HETATM    3  C   UNL     1     -10.502  10.948  64.950  1.00  0.00    -0.352 C  
HETATM    4  O   UNL     1      -9.940   8.273  65.772  1.00  0.00     0.128 OA 
HETATM    5  C   UNL     1      -9.907  12.617  65.856  1.00  0.00    -0.251 C  
HETATM    6  C   UNL     1      -8.546  12.064  67.065  1.00  0.00    -0.185 C  
HETATM    7  C   UNL     1      -7.084  12.546  67.005  1.00  0.00     0.031 C  
HETATM    8  C   UNL     1      -6.043  11.531  67.618  1.00  0.00    -0.062 C  
HETATM    9  C   UNL     1      -6.514  10.724  68.853  1.00  0.00    -0.047 C  
HETATM   10  C   UNL     1      -6.702  11.784  69.966  1.00  0.00     0.193 C  
HETATM   11  C   UNL     1      -7.718   9.729  68.522  1.00  0.00    -0.081 C  
HETATM   12  C   UNL     1      -8.636   9.620  69.847  1.00  0.00    -0.203 C  
HETATM   13  C   UNL     1      -7.268   8.328  68.079  1.00  0.00    -0.094 C  
HETATM   14  C   UNL     1     -10.146   9.847  69.657  1.00  0.00    -0.254 C  
HETATM   15  O   UNL     1     -11.987  11.421  66.792  1.00  0.00    -0.383 OA 
HETATM   16  C   UNL     1      -8.910  11.213  66.088  1.00  0.00    -0.195 C  
HETATM   17  C   UNL     1     -10.728  11.265  68.988  1.00  0.00    -0.257 C  
HETATM   18  C   UNL     1     -10.677  10.958  67.219  1.00  0.00    -0.268 C  
HETATM   19  H   UNL     1     -11.961  11.259  65.857  1.00  0.00     0.000 HD 
HETATM   20  C   UNL     1      -7.643  10.227  65.253  1.00  0.00    -0.143 C  
HETATM   21  C   UNL     1     -11.909  11.417  70.011  1.00  0.00    -0.440 C  
ENDROOT
BRANCH  12  22
HETATM   22  O   UNL     1      -8.492   8.336  70.488  1.00  0.00    -0.121 OA 
BRANCH  22  23
HETATM   23  C   UNL     1      -8.692   8.295  71.837  1.00  0.00    -0.171 C  
HETATM   24  O   UNL     1      -8.076   8.949  72.667  1.00  0.00    -0.383 OA 
BRANCH  23  25
HETATM   25  C   UNL     1      -9.867   7.414  72.176  1.00  0.00    -0.172 C  
BRANCH  25  26
HETATM   26  S   UNL     1      -9.537   5.683  71.737  1.00  0.00    -0.158 SA 
BRANCH  26  27
HETATM   27  C   UNL     1      -9.698   5.753  69.909  1.00  0.00    -0.164 C  
HETATM   28  C   UNL     1     -11.089   6.235  69.479  1.00  0.00    -0.476 C  
HETATM   29  C   UNL     1     -11.158   6.404  67.962  1.00  0.00    -0.365 C  
HETATM   30  C   UNL     1     -10.784   5.103  67.243  1.00  0.00     0.048 C  
HETATM   31  N   UNL     1     -10.811   5.298  65.797  1.00  0.00    -0.682 NA 
HETATM   32  C   UNL     1      -9.401   4.606  67.678  1.00  0.00    -0.170 C  
HETATM   33  C   UNL     1      -9.322   4.435  69.198  1.00  0.00    -0.155 C  
HETATM   34  H2  UNL     1     -10.220   6.077  65.507  1.00  0.00     0.000 HD 
HETATM   35  H1  UNL     1     -10.562   4.432  65.320  1.00  0.00     0.000 HD 
HETATM   36  O   UNL     1      -8.003   4.006  69.533  1.00  0.00    -0.056 OA 
HETATM   37  H   UNL     1      -7.771   3.194  69.095  1.00  0.00     0.000 HD 
ENDBRANCH  26  27
ENDBRANCH  25  26
ENDBRANCH  23  25
ENDBRANCH  22  23
ENDBRANCH  12  22
BRANCH  17  38
HETATM   38  C   UNL     1     -10.631  12.770  68.835  1.00  0.00    -0.154 C  
HETATM   39  C   UNL     1     -11.254  13.894  69.155  1.00  0.00    -0.311 C  
ENDBRANCH  17  38
TORSDOF 6
ENDMDL
MODEL       73
REMARK 921   NORMALIZED FREE ENERGY PREDICTED BY IDOCK:   -5.07 KCAL/MOL
REMARK 922        TOTAL FREE ENERGY PREDICTED BY IDOCK:   -8.09 KCAL/MOL
REMARK 923 INTER-LIGAND FREE ENERGY PREDICTED BY IDOCK:   -7.23 KCAL/MOL
REMARK 924 INTRA-LIGAND FREE ENERGY PREDICTED BY IDOCK:   -0.86 KCAL/MOL
REMARK 927      BINDING AFFINITY PREDICTED BY RF-SCORE:    0.00 PKD
ROOT
HETATM    1  C   UNL     1     -10.495  13.219  67.566  1.00  0.00    -0.237 C  
HETATM    2  C   UNL     1     -11.616  14.316  68.817  1.00  0.00    -0.322 C  
HETATM    3  C   UNL     1     -11.422  16.157  68.222  1.00  0.00    -0.259 C  
HETATM    4  O   UNL     1     -12.281  13.914  69.764  1.00  0.00    -0.330 OA 
HETATM    5  C   UNL     1     -10.083  16.143  66.749  1.00  0.00    -0.275 C  
HETATM    6  C   UNL     1      -9.867  14.307  66.299  1.00  0.00    -0.323 C  
HETATM    7  C   UNL     1     -10.186  13.709  64.915  1.00  0.00    -0.363 C  
HETATM    8  C   UNL     1     -10.560  12.177  64.944  1.00  0.00    -0.332 C  
HETATM    9  C   UNL     1      -9.810  11.304  65.980  1.00  0.00    -0.267 C  
HETATM   10  C   UNL     1      -8.334  11.319  65.510  1.00  0.00     0.140 C  
HETATM   11  C   UNL     1     -10.144  11.705  67.488  1.00  0.00    -0.209 C  
HETATM   12  C   UNL     1      -8.821  11.420  68.371  1.00  0.00    -0.167 C  
HETATM   13  C   UNL     1     -11.345  10.953  68.084  1.00  0.00    -0.383 C  
HETATM   14  C   UNL     1      -8.335  12.570  69.271  1.00  0.00     0.804 C  
HETATM   15  O   UNL     1      -9.202  16.218  69.168  1.00  0.00    -0.251 OA 
HETATM   16  C   UNL     1     -10.939  14.656  67.034  1.00  0.00    -0.317 C  
HETATM   17  C   UNL     1      -7.967  14.070  68.630  1.00  0.00    -0.122 C  
HETATM   18  C   UNL     1      -9.547  14.925  68.602  1.00  0.00    -0.222 C  
HETATM   19  H   UNL     1     -10.037  16.671  69.153  1.00  0.00     0.000 HD 
HETATM   20  C   UNL     1     -12.531  13.860  66.714  1.00  0.00    -0.254 C  
HETATM   21  C   UNL     1      -6.665  14.261  69.486  1.00  0.00    -0.130 C  
ENDROOT
BRANCH  12  22
HETATM   22  O   UNL     1      -8.994  10.273  69.229  1.00  0.00    -0.168 OA 
BRANCH  22  23
HETATM   23  C   UNL     1      -7.863   9.727  69.763  1.00  0.00    -0.156 C  
HETATM   24  O   UNL     1      -7.341  10.063  70.818  1.00  0.00    -0.323 OA 
BRANCH  23  25
HETATM   25  C   UNL     1      -7.392   8.560  68.935  1.00  0.00    -0.086 C  
BRANCH  25  26
HETATM   26  S   UNL     1      -7.610   6.994  69.827  1.00  0.00    -0.106 SA 
BRANCH  26  27
HETATM   27  C   UNL     1      -8.897   6.184  68.796  1.00  0.00    -0.121 C  
HETATM   28  C   UNL     1      -8.279   5.319  67.692  1.00  0.00    -0.099 C  
HETATM   29  C   UNL     1      -9.364   4.559  66.929  1.00  0.00    -0.156 C  
HETATM   30  C   UNL     1     -10.408   5.521  66.350  1.00  0.00    -0.219 C  
HETATM   31  N   UNL     1     -11.458   4.774  65.666  1.00  0.00    -0.733 NA 
HETATM   32  C   UNL     1     -11.020   6.401  67.445  1.00  0.00    -0.463 C  
HETATM   33  C   UNL     1      -9.940   7.164  68.217  1.00  0.00    -0.156 C  
HETATM   34  H2  UNL     1     -11.882   4.071  66.272  1.00  0.00     0.000 HD 
HETATM   35  H1  UNL     1     -12.153   5.414  65.281  1.00  0.00     0.000 HD 
HETATM   36  O   UNL     1     -10.576   7.933  69.238  1.00  0.00    -0.221 OA 
HETATM   37  H   UNL     1     -11.218   8.536  68.881  1.00  0.00     0.000 HD 
ENDBRANCH  26  27
ENDBRANCH  25  26
ENDBRANCH  23  25
ENDBRANCH  22  23
ENDBRANCH  12  22
BRANCH  17  38
HETATM   38  C   UNL     1      -7.381  14.898  67.504  1.00  0.00    -0.229 C  
HETATM   39  C   UNL     1      -6.509  15.865  67.264  1.00  0.00    -0.174 C  
ENDBRANCH  17  38
TORSDOF 6
ENDMDL
MODEL       74
REMARK 921   NORMALIZED FREE ENERGY PREDICTED BY IDOCK:   -5.07 KCAL/MOL
REMARK 922        TOTAL FREE ENERGY PREDICTED BY IDOCK:   -8.08 KCAL/MOL
REMARK 923 INTER-LIGAND FREE ENERGY PREDICTED BY IDOCK:   -6.86 KCAL/MOL
REMARK 924 INTRA-LIGAND FREE ENERGY PREDICTED BY IDOCK:   -1.22 KCAL/MOL
REMARK 927      BINDING AFFINITY PREDICTED BY RF-SCORE:    0.00 PKD
ROOT
HETATM    1  C   UNL     1     -10.317  11.956  66.802  1.00  0.00    -0.238 C  
HETATM    2  C   UNL     1     -11.778  12.466  65.524  1.00  0.00    -0.407 C  
HETATM    3  C   UNL     1     -11.573  14.377  65.224  1.00  0.00    -0.353 C  
HETATM    4  O   UNL     1     -12.628  11.731  65.038  1.00  0.00    -0.129 OA 
HETATM    5  C   UNL     1     -10.116  14.991  66.432  1.00  0.00    -0.289 C  
HETATM    6  C   UNL     1      -9.295  13.395  67.065  1.00  0.00    -0.243 C  
HETATM    7  C   UNL     1      -7.821  13.020  66.818  1.00  0.00     0.300 C  
HETATM    8  C   UNL     1      -7.538  11.469  66.834  1.00  0.00    -0.151 C  
HETATM    9  C   UNL     1      -8.364  10.628  67.838  1.00  0.00    -0.120 C  
HETATM   10  C   UNL     1      -7.894  11.108  69.233  1.00  0.00    -0.007 C  
HETATM   11  C   UNL     1      -9.926  10.627  67.508  1.00  0.00    -0.201 C  
HETATM   12  C   UNL     1     -10.719  10.517  68.912  1.00  0.00    -0.220 C  
HETATM   13  C   UNL     1     -10.366   9.493  66.568  1.00  0.00    -0.263 C  
HETATM   14  C   UNL     1     -11.831  11.553  69.155  1.00  0.00    -0.406 C  
HETATM   15  O   UNL     1     -12.490  14.810  67.414  1.00  0.00    -0.468 OA 
HETATM   16  C   UNL     1     -10.097  13.311  65.987  1.00  0.00    -0.301 C  
HETATM   17  C   UNL     1     -11.509  13.192  69.103  1.00  0.00    -0.358 C  
HETATM   18  C   UNL     1     -11.673  13.609  67.364  1.00  0.00    -0.381 C  
HETATM   19  H   UNL     1     -12.576  15.031  66.494  1.00  0.00     0.000 HD 
HETATM   20  C   UNL     1      -9.635  12.217  64.622  1.00  0.00     0.042 C  
HETATM   21  C   UNL     1     -12.374  13.535  70.368  1.00  0.00    -0.397 C  
ENDROOT
BRANCH  12  22
HETATM   22  O   UNL     1     -11.324   9.219  69.079  1.00  0.00     0.072 OA 
BRANCH  22  23
HETATM   23  C   UNL     1     -10.765   8.393  70.010  1.00  0.00    -0.236 C  
HETATM   24  O   UNL     1     -10.113   8.755  70.981  1.00  0.00    -0.202 OA 
BRANCH  23  25
HETATM   25  C   UNL     1     -11.155   6.960  69.757  1.00  0.00    -0.271 C  
BRANCH  25  26
HETATM   26  S   UNL     1      -9.881   5.817  70.363  1.00  0.00    -0.196 SA 
BRANCH  26  27
HETATM   27  C   UNL     1      -9.285   5.095  68.783  1.00  0.00    -0.119 C  
HETATM   28  C   UNL     1      -9.622   5.990  67.586  1.00  0.00    -0.113 C  
HETATM   29  C   UNL     1      -9.008   5.432  66.302  1.00  0.00    -0.137 C  
HETATM   30  C   UNL     1      -9.466   3.991  66.053  1.00  0.00    -0.183 C  
HETATM   31  N   UNL     1      -8.833   3.461  64.850  1.00  0.00    -0.119 NA 
HETATM   32  C   UNL     1      -9.146   3.091  67.252  1.00  0.00    -0.203 C  
HETATM   33  C   UNL     1      -9.756   3.644  68.543  1.00  0.00     0.007 C  
HETATM   34  H2  UNL     1      -7.816   3.536  64.889  1.00  0.00     0.000 HD 
HETATM   35  H1  UNL     1      -9.137   2.502  64.684  1.00  0.00     0.000 HD 
HETATM   36  O   UNL     1      -9.390   2.779  69.618  1.00  0.00    -0.140 OA 
HETATM   37  H   UNL     1      -9.680   1.886  69.470  1.00  0.00     0.000 HD 
ENDBRANCH  26  27
ENDBRANCH  25  26
ENDBRANCH  23  25
ENDBRANCH  22  23
ENDBRANCH  12  22
BRANCH  17  38
HETATM   38  C   UNL     1     -10.572  14.347  69.398  1.00  0.00    -0.140 C  
HETATM   39  C   UNL     1     -10.451  15.427  70.156  1.00  0.00    -0.291 C  
ENDBRANCH  17  38
TORSDOF 6
ENDMDL
MODEL       75
REMARK 921   NORMALIZED FREE ENERGY PREDICTED BY IDOCK:   -5.06 KCAL/MOL
REMARK 922        TOTAL FREE ENERGY PREDICTED BY IDOCK:   -8.07 KCAL/MOL
REMARK 923 INTER-LIGAND FREE ENERGY PREDICTED BY IDOCK:   -6.95 KCAL/MOL
REMARK 924 INTRA-LIGAND FREE ENERGY PREDICTED BY IDOCK:   -1.12 KCAL/MOL
REMARK 927      BINDING AFFINITY PREDICTED BY RF-SCORE:    0.00 PKD
ROOT
HETATM    1  C   UNL     1      -9.350   5.812  70.626  1.00  0.00    -0.186 C  
HETATM    2  C   UNL     1      -8.228   4.717  69.373  1.00  0.00    -0.076 C  
HETATM    3  C   UNL     1      -6.885   3.856  70.484  1.00  0.00    -0.033 C  
HETATM    4  O   UNL     1      -8.355   4.616  68.159  1.00  0.00    -0.094 OA 
HETATM    5  C   UNL     1      -7.128   4.565  72.327  1.00  0.00    -0.062 C  
HETATM    6  C   UNL     1      -8.800   5.472  72.289  1.00  0.00    -0.132 C  
HETATM    7  C   UNL     1     -10.015   5.088  73.155  1.00  0.00    -0.185 C  
HETATM    8  C   UNL     1     -11.407   5.495  72.533  1.00  0.00    -0.323 C  
HETATM    9  C   UNL     1     -11.444   6.825  71.740  1.00  0.00    -0.320 C  
HETATM   10  C   UNL     1     -11.175   7.921  72.800  1.00  0.00    -0.466 C  
HETATM   11  C   UNL     1     -10.544   6.787  70.422  1.00  0.00    -0.262 C  
HETATM   12  C   UNL     1      -9.976   8.280  70.179  1.00  0.00    -0.187 C  
HETATM   13  C   UNL     1     -11.290   6.299  69.169  1.00  0.00    -0.358 C  
HETATM   14  C   UNL     1      -8.459   8.409  69.954  1.00  0.00    -0.126 C  
HETATM   15  O   UNL     1      -5.715   5.958  70.684  1.00  0.00    -0.013 OA 
HETATM   16  C   UNL     1      -8.519   4.620  71.286  1.00  0.00    -0.112 C  
HETATM   17  C   UNL     1      -7.368   7.838  71.085  1.00  0.00    -0.066 C  
HETATM   18  C   UNL     1      -7.160   6.108  70.648  1.00  0.00    -0.068 C  
HETATM   19  H   UNL     1      -5.605   5.043  70.453  1.00  0.00     0.000 HD 
HETATM   20  C   UNL     1      -9.830   3.564  70.626  1.00  0.00    -0.093 C  
HETATM   21  C   UNL     1      -6.418   9.084  70.990  1.00  0.00    -0.068 C  
ENDROOT
BRANCH  12  22
HETATM   22  O   UNL     1     -10.613   8.912  69.049  1.00  0.00    -0.226 OA 
BRANCH  22  23
HETATM   23  C   UNL     1     -11.244  10.099  69.283  1.00  0.00    -0.196 C  
HETATM   24  O   UNL     1     -11.574  10.525  70.382  1.00  0.00    -0.293 OA 
BRANCH  23  25
HETATM   25  C   UNL     1     -11.384  10.889  68.008  1.00  0.00    -0.312 C  
BRANCH  25  26
HETATM   26  S   UNL     1      -9.854  11.788  67.622  1.00  0.00    -0.188 SA 
BRANCH  26  27
HETATM   27  C   UNL     1     -10.211  13.421  68.384  1.00  0.00    -0.251 C  
HETATM   28  C   UNL     1     -11.331  14.161  67.644  1.00  0.00    -0.342 C  
HETATM   29  C   UNL     1     -11.695  15.456  68.369  1.00  0.00    -0.332 C  
HETATM   30  C   UNL     1     -10.466  16.356  68.541  1.00  0.00    -0.291 C  
HETATM   31  N   UNL     1     -10.824  17.566  69.274  1.00  0.00    -0.252 NA 
HETATM   32  C   UNL     1      -9.335  15.620  69.266  1.00  0.00    -0.267 C  
HETATM   33  C   UNL     1      -8.966  14.318  68.548  1.00  0.00    -0.185 C  
HETATM   34  H2  UNL     1     -11.268  17.352  70.168  1.00  0.00     0.000 HD 
HETATM   35  H1  UNL     1     -10.006  18.164  69.389  1.00  0.00     0.000 HD 
HETATM   36  O   UNL     1      -7.936  13.671  69.295  1.00  0.00    -0.325 OA 
HETATM   37  H   UNL     1      -7.169  14.224  69.396  1.00  0.00     0.000 HD 
ENDBRANCH  26  27
ENDBRANCH  25  26
ENDBRANCH  23  25
ENDBRANCH  22  23
ENDBRANCH  12  22
BRANCH  17  38
HETATM   38  C   UNL     1      -6.987   7.624  72.537  1.00  0.00    -0.074 C  
HETATM   39  C   UNL     1      -7.195   8.108  73.753  1.00  0.00    -0.186 C  
ENDBRANCH  17  38
TORSDOF 6
ENDMDL
MODEL       76
REMARK 921   NORMALIZED FREE ENERGY PREDICTED BY IDOCK:   -5.06 KCAL/MOL
REMARK 922        TOTAL FREE ENERGY PREDICTED BY IDOCK:   -8.06 KCAL/MOL
REMARK 923 INTER-LIGAND FREE ENERGY PREDICTED BY IDOCK:   -6.31 KCAL/MOL
REMARK 924 INTRA-LIGAND FREE ENERGY PREDICTED BY IDOCK:   -1.76 KCAL/MOL
REMARK 927      BINDING AFFINITY PREDICTED BY RF-SCORE:    0.00 PKD
ROOT
HETATM    1  C   UNL     1      -9.557  11.544  66.635  1.00  0.00    -0.215 C  
HETATM    2  C   UNL     1      -9.934  12.351  64.836  1.00  0.00    -0.184 C  
HETATM    3  C   UNL     1      -9.987  10.859  63.590  1.00  0.00    -0.415 C  
HETATM    4  O   UNL     1     -10.091  13.537  64.573  1.00  0.00    -0.347 OA 
HETATM    5  C   UNL     1      -9.491   9.233  64.625  1.00  0.00     0.102 C  
HETATM    6  C   UNL     1      -9.562   9.770  66.449  1.00  0.00    -0.256 C  
HETATM    7  C   UNL     1     -10.507   9.154  67.499  1.00  0.00    -0.335 C  
HETATM    8  C   UNL     1     -10.867  10.123  68.691  1.00  0.00    -0.272 C  
HETATM    9  C   UNL     1      -9.746  11.079  69.165  1.00  0.00    -0.096 C  
HETATM   10  C   UNL     1      -8.660  10.147  69.757  1.00  0.00    -0.148 C  
HETATM   11  C   UNL     1      -9.326  12.144  68.052  1.00  0.00    -0.197 C  
HETATM   12  C   UNL     1      -7.753  12.456  68.247  1.00  0.00    -0.140 C  
HETATM   13  C   UNL     1     -10.131  13.452  68.103  1.00  0.00    -0.244 C  
HETATM   14  C   UNL     1      -6.871  12.350  66.990  1.00  0.00    -0.006 C  
HETATM   15  O   UNL     1      -7.581  10.693  63.700  1.00  0.00    -0.344 OA 
HETATM   16  C   UNL     1     -10.157  10.557  65.534  1.00  0.00    -0.349 C  
HETATM   17  C   UNL     1      -6.802  10.936  66.101  1.00  0.00    -0.100 C  
HETATM   18  C   UNL     1      -8.187  11.073  64.966  1.00  0.00     0.184 C  
HETATM   19  H   UNL     1      -8.314  10.765  63.100  1.00  0.00     0.000 HD 
HETATM   20  C   UNL     1     -11.736  11.343  65.933  1.00  0.00     0.358 C  
HETATM   21  C   UNL     1      -5.246  10.986  65.898  1.00  0.00    -0.139 C  
ENDROOT
BRANCH  12  22
HETATM   22  O   UNL     1      -7.538  13.776  68.788  1.00  0.00    -0.132 OA 
BRANCH  22  23
HETATM   23  C   UNL     1      -6.533  13.910  69.701  1.00  0.00    -0.108 C  
HETATM   24  O   UNL     1      -6.028  12.998  70.343  1.00  0.00    -0.163 OA 
BRANCH  23  25
HETATM   25  C   UNL     1      -6.030  15.330  69.737  1.00  0.00    -0.134 C  
BRANCH  25  26
HETATM   26  S   UNL     1      -5.593  15.913  68.074  1.00  0.00    -0.132 SA 
BRANCH  26  27
HETATM   27  C   UNL     1      -6.961  17.096  67.751  1.00  0.00    -0.149 C  
HETATM   28  C   UNL     1      -7.132  18.094  68.901  1.00  0.00    -0.282 C  
HETATM   29  C   UNL     1      -8.189  19.143  68.555  1.00  0.00    -0.399 C  
HETATM   30  C   UNL     1      -9.526  18.482  68.200  1.00  0.00    -0.317 C  
HETATM   31  N   UNL     1     -10.508  19.496  67.829  1.00  0.00    -0.440 NA 
HETATM   32  C   UNL     1      -9.361  17.471  67.061  1.00  0.00    -0.262 C  
HETATM   33  C   UNL     1      -8.302  16.418  67.398  1.00  0.00    -0.164 C  
HETATM   34  H2  UNL     1     -10.169  20.097  67.078  1.00  0.00     0.000 HD 
HETATM   35  H1  UNL     1     -11.397  19.056  67.592  1.00  0.00     0.000 HD 
HETATM   36  O   UNL     1      -8.177  15.534  66.284  1.00  0.00    -0.346 OA 
HETATM   37  H   UNL     1      -9.003  15.117  66.067  1.00  0.00     0.000 HD 
ENDBRANCH  26  27
ENDBRANCH  25  26
ENDBRANCH  23  25
ENDBRANCH  22  23
ENDBRANCH  12  22
BRANCH  17  38
HETATM   38  C   UNL     1      -6.786   9.420  66.062  1.00  0.00    -0.081 C  
HETATM   39  C   UNL     1      -6.381   8.363  66.749  1.00  0.00    -0.056 C  
ENDBRANCH  17  38
TORSDOF 6
ENDMDL
MODEL       77
REMARK 921   NORMALIZED FREE ENERGY PREDICTED BY IDOCK:   -5.04 KCAL/MOL
REMARK 922        TOTAL FREE ENERGY PREDICTED BY IDOCK:   -8.04 KCAL/MOL
REMARK 923 INTER-LIGAND FREE ENERGY PREDICTED BY IDOCK:   -6.61 KCAL/MOL
REMARK 924 INTRA-LIGAND FREE ENERGY PREDICTED BY IDOCK:   -1.43 KCAL/MOL
REMARK 927      BINDING AFFINITY PREDICTED BY RF-SCORE:    0.00 PKD
ROOT
HETATM    1  C   UNL     1      -9.331   6.202  69.664  1.00  0.00    -0.156 C  
HETATM    2  C   UNL     1      -9.474   5.267  67.894  1.00  0.00    -0.125 C  
HETATM    3  C   UNL     1      -7.739   4.442  67.592  1.00  0.00    -0.084 C  
HETATM    4  O   UNL     1     -10.447   5.227  67.152  1.00  0.00    -0.223 OA 
HETATM    5  C   UNL     1      -6.562   5.024  69.088  1.00  0.00    -0.047 C  
HETATM    6  C   UNL     1      -7.738   5.808  70.363  1.00  0.00    -0.095 C  
HETATM    7  C   UNL     1      -7.932   5.287  71.800  1.00  0.00    -0.112 C  
HETATM    8  C   UNL     1      -9.339   5.627  72.426  1.00  0.00    -0.154 C  
HETATM    9  C   UNL     1      -9.953   6.994  72.038  1.00  0.00    -0.172 C  
HETATM   10  C   UNL     1      -9.003   8.044  72.664  1.00  0.00    -0.280 C  
HETATM   11  C   UNL     1     -10.302   7.099  70.483  1.00  0.00    -0.215 C  
HETATM   12  C   UNL     1     -10.103   8.641  70.043  1.00  0.00    -0.189 C  
HETATM   13  C   UNL     1     -11.724   6.632  70.129  1.00  0.00    -0.412 C  
HETATM   14  C   UNL     1      -9.233   8.892  68.799  1.00  0.00    -0.140 C  
HETATM   15  O   UNL     1      -6.809   6.608  67.072  1.00  0.00    -0.061 OA 
HETATM   16  C   UNL     1      -8.273   5.038  69.397  1.00  0.00    -0.082 C  
HETATM   17  C   UNL     1      -7.657   8.337  68.721  1.00  0.00    -0.101 C  
HETATM   18  C   UNL     1      -7.823   6.655  68.113  1.00  0.00    -0.110 C  
HETATM   19  H   UNL     1      -6.896   5.718  66.750  1.00  0.00     0.000 HD 
HETATM   20  C   UNL     1      -9.643   3.929  69.804  1.00  0.00    -0.271 C  
HETATM   21  C   UNL     1      -7.087   9.652  68.082  1.00  0.00    -0.079 C  
ENDROOT
BRANCH  12  22
HETATM   22  O   UNL     1     -11.367   9.289  69.797  1.00  0.00    -0.149 OA 
BRANCH  22  23
HETATM   23  C   UNL     1     -11.823  10.137  70.764  1.00  0.00    -0.351 C  
HETATM   24  O   UNL     1     -12.004   9.844  71.938  1.00  0.00    -0.331 OA 
BRANCH  23  25
HETATM   25  C   UNL     1     -11.969  11.536  70.223  1.00  0.00    -0.368 C  
BRANCH  25  26
HETATM   26  S   UNL     1     -11.863  11.552  68.410  1.00  0.00    -0.216 SA 
BRANCH  26  27
HETATM   27  C   UNL     1     -10.814  13.035  68.138  1.00  0.00    -0.247 C  
HETATM   28  C   UNL     1      -9.324  12.714  68.296  1.00  0.00    -0.195 C  
HETATM   29  C   UNL     1      -8.467  13.930  67.943  1.00  0.00    -0.177 C  
HETATM   30  C   UNL     1      -8.858  15.145  68.792  1.00  0.00    -0.196 C  
HETATM   31  N   UNL     1      -8.062  16.306  68.408  1.00  0.00    -0.175 NA 
HETATM   32  C   UNL     1     -10.350  15.464  68.652  1.00  0.00    -0.234 C  
HETATM   33  C   UNL     1     -11.216  14.250  69.002  1.00  0.00    -0.266 C  
HETATM   34  H2  UNL     1      -8.130  16.502  67.409  1.00  0.00     0.000 HD 
HETATM   35  H1  UNL     1      -8.322  17.114  68.973  1.00  0.00     0.000 HD 
HETATM   36  O   UNL     1     -12.585  14.608  68.817  1.00  0.00    -0.535 OA 
HETATM   37  H   UNL     1     -12.832  15.356  69.349  1.00  0.00     0.000 HD 
ENDBRANCH  26  27
ENDBRANCH  25  26
ENDBRANCH  23  25
ENDBRANCH  22  23
ENDBRANCH  12  22
BRANCH  17  38
HETATM   38  C   UNL     1      -6.335   8.067  69.412  1.00  0.00    -0.035 C  
HETATM   39  C   UNL     1      -5.638   8.385  70.493  1.00  0.00    -0.028 C  
ENDBRANCH  17  38
TORSDOF 6
ENDMDL
MODEL       78
REMARK 921   NORMALIZED FREE ENERGY PREDICTED BY IDOCK:   -5.02 KCAL/MOL
REMARK 922        TOTAL FREE ENERGY PREDICTED BY IDOCK:   -8.02 KCAL/MOL
REMARK 923 INTER-LIGAND FREE ENERGY PREDICTED BY IDOCK:   -7.13 KCAL/MOL
REMARK 924 INTRA-LIGAND FREE ENERGY PREDICTED BY IDOCK:   -0.89 KCAL/MOL
REMARK 927      BINDING AFFINITY PREDICTED BY RF-SCORE:    0.00 PKD
ROOT
HETATM    1  C   UNL     1     -10.536  12.943  67.320  1.00  0.00    -0.236 C  
HETATM    2  C   UNL     1     -11.615  13.870  68.736  1.00  0.00    -0.335 C  
HETATM    3  C   UNL     1     -11.529  15.765  68.310  1.00  0.00    -0.338 C  
HETATM    4  O   UNL     1     -12.202  13.353  69.678  1.00  0.00    -0.291 OA 
HETATM    5  C   UNL     1     -10.287  15.946  66.764  1.00  0.00    -0.298 C  
HETATM    6  C   UNL     1     -10.031  14.171  66.128  1.00  0.00    -0.328 C  
HETATM    7  C   UNL     1     -10.416  13.691  64.715  1.00  0.00    -0.436 C  
HETATM    8  C   UNL     1     -10.729  12.148  64.619  1.00  0.00    -0.346 C  
HETATM    9  C   UNL     1      -9.882  11.216  65.520  1.00  0.00    -0.281 C  
HETATM   10  C   UNL     1      -8.441  11.339  64.966  1.00  0.00     0.286 C  
HETATM   11  C   UNL     1     -10.134  11.460  67.077  1.00  0.00    -0.237 C  
HETATM   12  C   UNL     1      -8.748  11.152  67.848  1.00  0.00    -0.136 C  
HETATM   13  C   UNL     1     -11.265  10.604  67.669  1.00  0.00    -0.361 C  
HETATM   14  C   UNL     1      -8.249  12.233  68.822  1.00  0.00     0.081 C  
HETATM   15  O   UNL     1      -9.257  15.834  69.122  1.00  0.00    -0.223 OA 
HETATM   16  C   UNL     1     -11.066  14.404  66.956  1.00  0.00    -0.317 C  
HETATM   17  C   UNL     1      -7.979  13.801  68.307  1.00  0.00    -0.146 C  
HETATM   18  C   UNL     1      -9.588  14.586  68.456  1.00  0.00    -0.220 C  
HETATM   19  H   UNL     1     -10.107  16.250  69.200  1.00  0.00     0.000 HD 
HETATM   20  C   UNL     1     -12.645  13.572  66.658  1.00  0.00    -0.114 C  
HETATM   21  C   UNL     1      -6.633  13.968  69.098  1.00  0.00    -0.113 C  
ENDROOT
BRANCH  12  22
HETATM   22  O   UNL     1      -8.822   9.924  68.601  1.00  0.00    -0.122 OA 
BRANCH  22  23
HETATM   23  C   UNL     1      -7.934   8.943  68.268  1.00  0.00    -0.105 C  
HETATM   24  O   UNL     1      -7.187   8.959  67.299  1.00  0.00    -0.082 OA 
BRANCH  23  25
HETATM   25  C   UNL     1      -7.903   7.870  69.325  1.00  0.00    -0.115 C  
BRANCH  25  26
HETATM   26  S   UNL     1      -7.643   8.581  70.975  1.00  0.00    -0.101 SA 
BRANCH  26  27
HETATM   27  C   UNL     1      -8.849   7.612  71.964  1.00  0.00    -0.117 C  
HETATM   28  C   UNL     1      -8.512   6.117  71.966  1.00  0.00    -0.121 C  
HETATM   29  C   UNL     1      -9.453   5.350  72.895  1.00  0.00    -0.155 C  
HETATM   30  C   UNL     1     -10.919   5.580  72.508  1.00  0.00    -0.263 C  
HETATM   31  N   UNL     1     -11.802   4.878  73.433  1.00  0.00    -0.387 NA 
HETATM   32  C   UNL     1     -11.261   7.074  72.489  1.00  0.00    -0.312 C  
HETATM   33  C   UNL     1     -10.320   7.850  71.562  1.00  0.00    -0.201 C  
HETATM   34  H2  UNL     1     -11.619   5.136  74.403  1.00  0.00     0.000 HD 
HETATM   35  H1  UNL     1     -12.776   5.032  73.176  1.00  0.00     0.000 HD 
HETATM   36  O   UNL     1     -10.674   9.232  71.621  1.00  0.00    -0.354 OA 
HETATM   37  H   UNL     1     -11.579   9.378  71.373  1.00  0.00     0.000 HD 
ENDBRANCH  26  27
ENDBRANCH  25  26
ENDBRANCH  23  25
ENDBRANCH  22  23
ENDBRANCH  12  22
BRANCH  17  38
HETATM   38  C   UNL     1      -7.498  14.755  67.232  1.00  0.00    -0.173 C  
HETATM   39  C   UNL     1      -6.833  15.889  67.063  1.00  0.00    -0.130 C  
ENDBRANCH  17  38
TORSDOF 6
ENDMDL
MODEL       79
REMARK 921   NORMALIZED FREE ENERGY PREDICTED BY IDOCK:   -5.01 KCAL/MOL
REMARK 922        TOTAL FREE ENERGY PREDICTED BY IDOCK:   -8.01 KCAL/MOL
REMARK 923 INTER-LIGAND FREE ENERGY PREDICTED BY IDOCK:   -6.49 KCAL/MOL
REMARK 924 INTRA-LIGAND FREE ENERGY PREDICTED BY IDOCK:   -1.52 KCAL/MOL
REMARK 927      BINDING AFFINITY PREDICTED BY RF-SCORE:    0.00 PKD
ROOT
HETATM    1  C   UNL     1      -8.086   5.997  66.929  1.00  0.00    -0.105 C  
HETATM    2  C   UNL     1      -6.486   5.277  65.954  1.00  0.00    -0.040 C  
HETATM    3  C   UNL     1      -6.558   3.347  66.174  1.00  0.00    -0.037 C  
HETATM    4  O   UNL     1      -5.634   5.918  65.350  1.00  0.00    -0.018 OA 
HETATM    5  C   UNL     1      -8.088   2.968  67.390  1.00  0.00    -0.077 C  
HETATM    6  C   UNL     1      -9.049   4.607  67.497  1.00  0.00    -0.134 C  
HETATM    7  C   UNL     1     -10.511   4.787  67.046  1.00  0.00    -0.104 C  
HETATM    8  C   UNL     1     -10.878   6.259  66.615  1.00  0.00    -0.268 C  
HETATM    9  C   UNL     1     -10.196   7.400  67.410  1.00  0.00    -0.315 C  
HETATM   10  C   UNL     1     -10.769   7.277  68.843  1.00  0.00    -0.173 C  
HETATM   11  C   UNL     1      -8.612   7.433  67.212  1.00  0.00    -0.118 C  
HETATM   12  C   UNL     1      -7.962   7.976  68.588  1.00  0.00    -0.123 C  
HETATM   13  C   UNL     1      -8.148   8.303  66.033  1.00  0.00    -0.110 C  
HETATM   14  C   UNL     1      -6.823   7.133  69.188  1.00  0.00    -0.061 C  
HETATM   15  O   UNL     1      -5.829   3.589  68.462  1.00  0.00    -0.021 OA 
HETATM   16  C   UNL     1      -8.155   4.461  66.502  1.00  0.00    -0.102 C  
HETATM   17  C   UNL     1      -7.050   5.519  69.564  1.00  0.00    -0.064 C  
HETATM   18  C   UNL     1      -6.702   4.666  68.023  1.00  0.00    -0.054 C  
HETATM   19  H   UNL     1      -5.645   3.137  67.647  1.00  0.00     0.000 HD 
HETATM   20  C   UNL     1      -8.545   5.110  64.859  1.00  0.00    -0.151 C  
HETATM   21  C   UNL     1      -6.291   5.597  70.936  1.00  0.00    -0.035 C  
ENDROOT
BRANCH  12  22
HETATM   22  O   UNL     1      -7.445   9.314  68.438  1.00  0.00    -0.077 OA 
BRANCH  22  23
HETATM   23  C   UNL     1      -7.892  10.250  69.325  1.00  0.00    -0.142 C  
HETATM   24  O   UNL     1      -7.259  10.688  70.276  1.00  0.00    -0.208 OA 
BRANCH  23  25
HETATM   25  C   UNL     1      -9.244  10.774  68.913  1.00  0.00    -0.173 C  
BRANCH  25  26
HETATM   26  S   UNL     1      -9.085  12.268  67.893  1.00  0.00    -0.196 SA 
BRANCH  26  27
HETATM   27  C   UNL     1     -10.291  11.904  66.556  1.00  0.00    -0.216 C  
HETATM   28  C   UNL     1      -9.593  11.450  65.269  1.00  0.00    -0.256 C  
HETATM   29  C   UNL     1     -10.619  11.034  64.215  1.00  0.00    -0.402 C  
HETATM   30  C   UNL     1     -11.608  12.170  63.930  1.00  0.00    -0.448 C  
HETATM   31  N   UNL     1     -12.606  11.738  62.956  1.00  0.00    -0.873 NA 
HETATM   32  C   UNL     1     -12.300  12.641  65.214  1.00  0.00    -0.528 C  
HETATM   33  C   UNL     1     -11.279  13.057  66.277  1.00  0.00    -0.301 C  
HETATM   34  H2  UNL     1     -13.081  10.885  63.250  1.00  0.00     0.000 HD 
HETATM   35  H1  UNL     1     -13.264  12.494  62.767  1.00  0.00     0.000 HD 
HETATM   36  O   UNL     1     -11.989  13.449  67.451  1.00  0.00    -0.365 OA 
HETATM   37  H   UNL     1     -12.597  14.159  67.279  1.00  0.00     0.000 HD 
ENDBRANCH  26  27
ENDBRANCH  25  26
ENDBRANCH  23  25
ENDBRANCH  22  23
ENDBRANCH  12  22
BRANCH  17  38
HETATM   38  C   UNL     1      -7.948   4.418  70.092  1.00  0.00    -0.059 C  
HETATM   39  C   UNL     1      -8.867   4.172  71.013  1.00  0.00    -0.140 C  
ENDBRANCH  17  38
TORSDOF 6
ENDMDL
MODEL       80
REMARK 921   NORMALIZED FREE ENERGY PREDICTED BY IDOCK:   -5.01 KCAL/MOL
REMARK 922        TOTAL FREE ENERGY PREDICTED BY IDOCK:   -8.00 KCAL/MOL
REMARK 923 INTER-LIGAND FREE ENERGY PREDICTED BY IDOCK:   -6.56 KCAL/MOL
REMARK 924 INTRA-LIGAND FREE ENERGY PREDICTED BY IDOCK:   -1.44 KCAL/MOL
REMARK 927      BINDING AFFINITY PREDICTED BY RF-SCORE:    0.00 PKD
ROOT
HETATM    1  C   UNL     1      -8.080   9.438  66.940  1.00  0.00    -0.109 C  
HETATM    2  C   UNL     1      -6.398   8.777  66.065  1.00  0.00    -0.057 C  
HETATM    3  C   UNL     1      -5.933   7.133  66.993  1.00  0.00    -0.033 C  
HETATM    4  O   UNL     1      -5.786   9.302  65.143  1.00  0.00    -0.057 OA 
HETATM    5  C   UNL     1      -7.235   6.931  68.484  1.00  0.00    -0.084 C  
HETATM    6  C   UNL     1      -8.598   8.209  68.125  1.00  0.00    -0.129 C  
HETATM    7  C   UNL     1     -10.076   7.855  67.871  1.00  0.00    -0.240 C  
HETATM    8  C   UNL     1     -10.851   8.907  66.988  1.00  0.00    -0.039 C  
HETATM    9  C   UNL     1     -10.463  10.393  67.187  1.00  0.00    -0.311 C  
HETATM   10  C   UNL     1     -10.905  10.723  68.635  1.00  0.00    -0.260 C  
HETATM   11  C   UNL     1      -8.960  10.706  66.749  1.00  0.00    -0.149 C  
HETATM   12  C   UNL     1      -8.410  11.885  67.706  1.00  0.00    -0.149 C  
HETATM   13  C   UNL     1      -8.813  11.116  65.274  1.00  0.00    -0.085 C  
HETATM   14  C   UNL     1      -7.056  11.636  68.393  1.00  0.00    -0.083 C  
HETATM   15  O   UNL     1      -5.177   8.426  68.886  1.00  0.00    -0.030 OA 
HETATM   16  C   UNL     1      -7.752   7.888  67.128  1.00  0.00    -0.101 C  
HETATM   17  C   UNL     1      -6.816  10.300  69.369  1.00  0.00    -0.076 C  
HETATM   18  C   UNL     1      -6.331   9.008  68.220  1.00  0.00    -0.055 C  
HETATM   19  H   UNL     1      -4.921   7.742  68.279  1.00  0.00     0.000 HD 
HETATM   20  C   UNL     1      -8.389   7.721  65.443  1.00  0.00    -0.141 C  
HETATM   21  C   UNL     1      -6.035  11.089  70.480  1.00  0.00    -0.116 C  
ENDROOT
BRANCH  12  22
HETATM   22  O   UNL     1      -8.285  13.133  66.993  1.00  0.00    -0.149 OA 
BRANCH  22  23
HETATM   23  C   UNL     1      -9.336  13.999  67.080  1.00  0.00    -0.250 C  
HETATM   24  O   UNL     1     -10.299  14.027  66.325  1.00  0.00    -0.280 OA 
BRANCH  23  25
HETATM   25  C   UNL     1      -9.219  14.859  68.312  1.00  0.00    -0.187 C  
BRANCH  25  26
HETATM   26  S   UNL     1     -10.351  16.276  68.233  1.00  0.00    -0.286 SA 
BRANCH  26  27
HETATM   27  C   UNL     1     -11.602  15.789  69.486  1.00  0.00    -0.363 C  
HETATM   28  C   UNL     1     -11.152  16.146  70.907  1.00  0.00    -0.232 C  
HETATM   29  C   UNL     1     -12.260  15.847  71.917  1.00  0.00    -0.558 C  
HETATM   30  C   UNL     1     -12.701  14.381  71.834  1.00  0.00    -0.349 C  
HETATM   31  N   UNL     1     -13.789  14.127  72.773  1.00  0.00    -0.654 NA 
HETATM   32  C   UNL     1     -13.139  14.011  70.413  1.00  0.00    -0.002 C  
HETATM   33  C   UNL     1     -12.036  14.310  69.394  1.00  0.00    -0.337 C  
HETATM   34  H2  UNL     1     -14.570  14.768  72.633  1.00  0.00     0.000 HD 
HETATM   35  H1  UNL     1     -14.083  13.152  72.718  1.00  0.00     0.000 HD 
HETATM   36  O   UNL     1     -12.523  13.976  68.095  1.00  0.00    -0.497 OA 
HETATM   37  H   UNL     1     -12.789  13.065  68.038  1.00  0.00     0.000 HD 
ENDBRANCH  26  27
ENDBRANCH  25  26
ENDBRANCH  23  25
ENDBRANCH  22  23
ENDBRANCH  12  22
BRANCH  17  38
HETATM   38  C   UNL     1      -7.352   9.326  70.400  1.00  0.00    -0.111 C  
HETATM   39  C   UNL     1      -7.261   9.009  71.683  1.00  0.00     0.002 C  
ENDBRANCH  17  38
TORSDOF 6
ENDMDL
MODEL       81
REMARK 921   NORMALIZED FREE ENERGY PREDICTED BY IDOCK:   -4.97 KCAL/MOL
REMARK 922        TOTAL FREE ENERGY PREDICTED BY IDOCK:   -7.95 KCAL/MOL
REMARK 923 INTER-LIGAND FREE ENERGY PREDICTED BY IDOCK:   -7.32 KCAL/MOL
REMARK 924 INTRA-LIGAND FREE ENERGY PREDICTED BY IDOCK:   -0.63 KCAL/MOL
REMARK 927      BINDING AFFINITY PREDICTED BY RF-SCORE:    0.00 PKD
ROOT
HETATM    1  C   UNL     1      -8.416   8.538  68.296  1.00  0.00    -0.135 C  
HETATM    2  C   UNL     1     -10.315   8.920  68.824  1.00  0.00    -0.211 C  
HETATM    3  C   UNL     1     -10.846   7.450  69.981  1.00  0.00    -0.266 C  
HETATM    4  O   UNL     1     -11.001   9.875  68.484  1.00  0.00    -0.225 OA 
HETATM    5  C   UNL     1      -9.333   6.158  69.994  1.00  0.00    -0.166 C  
HETATM    6  C   UNL     1      -7.881   7.092  69.194  1.00  0.00    -0.114 C  
HETATM    7  C   UNL     1      -6.551   7.404  69.907  1.00  0.00    -0.043 C  
HETATM    8  C   UNL     1      -5.803   8.677  69.352  1.00  0.00    -0.034 C  
HETATM    9  C   UNL     1      -5.910   8.929  67.828  1.00  0.00    -0.039 C  
HETATM   10  C   UNL     1      -5.157   7.741  67.180  1.00  0.00    -0.027 C  
HETATM   11  C   UNL     1      -7.402   9.248  67.355  1.00  0.00    -0.087 C  
HETATM   12  C   UNL     1      -7.570   8.668  65.856  1.00  0.00    -0.089 C  
HETATM   13  C   UNL     1      -7.760  10.742  67.383  1.00  0.00    -0.107 C  
HETATM   14  C   UNL     1      -8.793   7.769  65.602  1.00  0.00    -0.102 C  
HETATM   15  O   UNL     1     -11.020   6.007  68.054  1.00  0.00    -0.304 OA 
HETATM   16  C   UNL     1      -8.939   7.808  69.616  1.00  0.00    -0.143 C  
HETATM   17  C   UNL     1      -9.048   6.385  66.504  1.00  0.00    -0.162 C  
HETATM   18  C   UNL     1      -9.937   6.971  67.951  1.00  0.00    -0.154 C  
HETATM   19  H   UNL     1     -11.490   6.317  68.819  1.00  0.00     0.000 HD 
HETATM   20  C   UNL     1      -8.666   9.412  70.407  1.00  0.00    -0.278 C  
HETATM   21  C   UNL     1      -9.472   5.505  65.276  1.00  0.00     0.179 C  
ENDROOT
BRANCH  12  22
HETATM   22  O   UNL     1      -7.633   9.730  64.882  1.00  0.00    -0.116 OA 
BRANCH  22  23
HETATM   23  C   UNL     1      -8.623   9.650  63.947  1.00  0.00    -0.206 C  
HETATM   24  O   UNL     1      -8.549   9.053  62.881  1.00  0.00    -0.208 OA 
BRANCH  23  25
HETATM   25  C   UNL     1      -9.885  10.302  64.450  1.00  0.00    -0.305 C  
BRANCH  25  26
HETATM   26  S   UNL     1     -10.387  11.676  63.375  1.00  0.00    -0.434 SA 
BRANCH  26  27
HETATM   27  C   UNL     1     -10.756  12.973  64.622  1.00  0.00    -0.367 C  
HETATM   28  C   UNL     1     -10.498  12.479  66.050  1.00  0.00    -0.282 C  
HETATM   29  C   UNL     1     -10.691  13.611  67.058  1.00  0.00    -0.278 C  
HETATM   30  C   UNL     1     -12.091  14.225  66.937  1.00  0.00    -0.409 C  
HETATM   31  N   UNL     1     -12.240  15.333  67.875  1.00  0.00    -0.334 NA 
HETATM   32  C   UNL     1     -12.364  14.709  65.509  1.00  0.00    -0.172 C  
HETATM   33  C   UNL     1     -12.170  13.581  64.491  1.00  0.00    -0.398 C  
HETATM   34  H2  UNL     1     -11.506  16.032  67.759  1.00  0.00     0.000 HD 
HETATM   35  H1  UNL     1     -13.170  15.742  67.794  1.00  0.00     0.000 HD 
HETATM   36  O   UNL     1     -12.405  14.109  63.186  1.00  0.00    -1.125 OA 
HETATM   37  H   UNL     1     -13.275  14.483  63.105  1.00  0.00     0.000 HD 
ENDBRANCH  26  27
ENDBRANCH  25  26
ENDBRANCH  23  25
ENDBRANCH  22  23
ENDBRANCH  12  22
BRANCH  17  38
HETATM   38  C   UNL     1      -8.485   5.169  67.215  1.00  0.00    -0.106 C  
HETATM   39  C   UNL     1      -7.606   4.189  67.069  1.00  0.00    -0.077 C  
ENDBRANCH  17  38
TORSDOF 6
ENDMDL
MODEL       82
REMARK 921   NORMALIZED FREE ENERGY PREDICTED BY IDOCK:   -4.97 KCAL/MOL
REMARK 922        TOTAL FREE ENERGY PREDICTED BY IDOCK:   -7.95 KCAL/MOL
REMARK 923 INTER-LIGAND FREE ENERGY PREDICTED BY IDOCK:   -6.70 KCAL/MOL
REMARK 924 INTRA-LIGAND FREE ENERGY PREDICTED BY IDOCK:   -1.24 KCAL/MOL
REMARK 927      BINDING AFFINITY PREDICTED BY RF-SCORE:    0.00 PKD
ROOT
HETATM    1  C   UNL     1     -10.296  12.406  67.714  1.00  0.00    -0.222 C  
HETATM    2  C   UNL     1     -10.673  13.921  68.976  1.00  0.00    -0.195 C  
HETATM    3  C   UNL     1      -9.595  15.412  68.346  1.00  0.00    -0.200 C  
HETATM    4  O   UNL     1     -11.420  13.910  69.946  1.00  0.00    -0.248 OA 
HETATM    5  C   UNL     1      -8.492  14.723  66.839  1.00  0.00    -0.230 C  
HETATM    6  C   UNL     1      -9.245  13.028  66.414  1.00  0.00    -0.141 C  
HETATM    7  C   UNL     1      -9.864  12.671  65.049  1.00  0.00    -0.090 C  
HETATM    8  C   UNL     1     -10.958  11.536  65.112  1.00  0.00    -0.298 C  
HETATM    9  C   UNL     1     -10.719  10.405  66.142  1.00  0.00    -0.076 C  
HETATM   10  C   UNL     1      -9.451   9.674  65.635  1.00  0.00    -0.318 C  
HETATM   11  C   UNL     1     -10.758  10.922  67.652  1.00  0.00    -0.288 C  
HETATM   12  C   UNL     1      -9.734  10.010  68.506  1.00  0.00    -0.155 C  
HETATM   13  C   UNL     1     -12.156  10.879  68.291  1.00  0.00     0.158 C  
HETATM   14  C   UNL     1      -8.707  10.759  69.373  1.00  0.00     0.023 C  
HETATM   15  O   UNL     1      -7.619  14.347  69.233  1.00  0.00    -0.247 OA 
HETATM   16  C   UNL     1      -9.971  13.871  67.170  1.00  0.00    -0.239 C  
HETATM   17  C   UNL     1      -7.653  11.868  68.699  1.00  0.00    -0.119 C  
HETATM   18  C   UNL     1      -8.586  13.403  68.697  1.00  0.00     0.010 C  
HETATM   19  H   UNL     1      -8.112  15.159  69.232  1.00  0.00     0.000 HD 
HETATM   20  C   UNL     1     -11.757  13.986  66.905  1.00  0.00    -0.435 C  
HETATM   21  C   UNL     1      -6.407  11.378  69.517  1.00  0.00    -0.113 C  
ENDROOT
BRANCH  12  22
HETATM   22  O   UNL     1     -10.434   9.108  69.387  1.00  0.00    -0.211 OA 
BRANCH  22  23
HETATM   23  C   UNL     1      -9.901   7.862  69.543  1.00  0.00    -0.176 C  
HETATM   24  O   UNL     1      -9.878   7.225  70.588  1.00  0.00    -0.180 OA 
BRANCH  23  25
HETATM   25  C   UNL     1      -9.440   7.308  68.220  1.00  0.00    -0.141 C  
BRANCH  25  26
HETATM   26  S   UNL     1     -10.806   6.502  67.335  1.00  0.00    -0.388 SA 
BRANCH  26  27
HETATM   27  C   UNL     1     -10.021   4.909  66.867  1.00  0.00    -0.217 C  
HETATM   28  C   UNL     1      -8.555   4.846  67.308  1.00  0.00    -0.104 C  
HETATM   29  C   UNL     1      -7.961   3.467  67.020  1.00  0.00    -0.079 C  
HETATM   30  C   UNL     1      -8.102   3.105  65.537  1.00  0.00    -0.086 C  
HETATM   31  N   UNL     1      -7.572   1.767  65.291  1.00  0.00    -0.068 NA 
HETATM   32  C   UNL     1      -9.564   3.180  65.083  1.00  0.00    -0.076 C  
HETATM   33  C   UNL     1     -10.167   4.558  65.370  1.00  0.00    -0.202 C  
HETATM   34  H2  UNL     1      -8.004   1.069  65.896  1.00  0.00     0.000 HD 
HETATM   35  H1  UNL     1      -7.666   1.526  64.305  1.00  0.00     0.000 HD 
HETATM   36  O   UNL     1     -11.533   4.544  64.956  1.00  0.00    -1.101 OA 
HETATM   37  H   UNL     1     -11.623   4.328  64.034  1.00  0.00     0.000 HD 
ENDBRANCH  26  27
ENDBRANCH  25  26
ENDBRANCH  23  25
ENDBRANCH  22  23
ENDBRANCH  12  22
BRANCH  17  38
HETATM   38  C   UNL     1      -6.764  12.286  67.544  1.00  0.00    -0.138 C  
HETATM   39  C   UNL     1      -5.818  11.830  66.737  1.00  0.00    -0.110 C  
ENDBRANCH  17  38
TORSDOF 6
ENDMDL
MODEL       83
REMARK 921   NORMALIZED FREE ENERGY PREDICTED BY IDOCK:   -4.94 KCAL/MOL
REMARK 922        TOTAL FREE ENERGY PREDICTED BY IDOCK:   -7.91 KCAL/MOL
REMARK 923 INTER-LIGAND FREE ENERGY PREDICTED BY IDOCK:   -5.62 KCAL/MOL
REMARK 924 INTRA-LIGAND FREE ENERGY PREDICTED BY IDOCK:   -2.29 KCAL/MOL
REMARK 927      BINDING AFFINITY PREDICTED BY RF-SCORE:    0.00 PKD
ROOT
HETATM    1  C   UNL     1      -9.111   8.692  68.232  1.00  0.00    -0.141 C  
HETATM    2  C   UNL     1      -8.224  10.395  67.649  1.00  0.00    -0.110 C  
HETATM    3  C   UNL     1      -6.835   9.865  66.396  1.00  0.00    -0.090 C  
HETATM    4  O   UNL     1      -8.494  11.534  68.011  1.00  0.00    -0.135 OA 
HETATM    5  C   UNL     1      -6.814   7.875  66.377  1.00  0.00    -0.062 C  
HETATM    6  C   UNL     1      -8.406   7.357  67.282  1.00  0.00    -0.119 C  
HETATM    7  C   UNL     1      -9.542   6.537  66.641  1.00  0.00    -0.201 C  
HETATM    8  C   UNL     1     -10.959   6.778  67.291  1.00  0.00    -0.433 C  
HETATM    9  C   UNL     1     -10.983   7.018  68.821  1.00  0.00    -0.150 C  
HETATM   10  C   UNL     1     -10.512   5.677  69.436  1.00  0.00    -0.367 C  
HETATM   11  C   UNL     1     -10.242   8.366  69.249  1.00  0.00    -0.211 C  
HETATM   12  C   UNL     1      -9.591   8.120  70.708  1.00  0.00    -0.166 C  
HETATM   13  C   UNL     1     -11.159   9.599  69.285  1.00  0.00    -0.149 C  
HETATM   14  C   UNL     1      -8.104   8.481  70.865  1.00  0.00    -0.140 C  
HETATM   15  O   UNL     1      -5.492   9.068  68.237  1.00  0.00    -0.037 OA 
HETATM   16  C   UNL     1      -8.305   8.629  66.856  1.00  0.00    -0.108 C  
HETATM   17  C   UNL     1      -6.940   7.793  69.882  1.00  0.00    -0.050 C  
HETATM   18  C   UNL     1      -6.916   8.855  68.434  1.00  0.00    -0.065 C  
HETATM   19  H   UNL     1      -5.479   9.630  67.471  1.00  0.00     0.000 HD 
HETATM   20  C   UNL     1      -9.760   9.450  66.162  1.00  0.00    -0.334 C  
HETATM   21  C   UNL     1      -5.914   7.551  71.045  1.00  0.00    -0.035 C  
ENDROOT
BRANCH  12  22
HETATM   22  O   UNL     1     -10.300   8.845  71.733  1.00  0.00    -0.310 OA 
BRANCH  22  23
HETATM   23  C   UNL     1     -11.233   8.150  72.446  1.00  0.00    -0.386 C  
HETATM   24  O   UNL     1     -12.446   8.261  72.329  1.00  0.00    -0.341 OA 
BRANCH  23  25
HETATM   25  C   UNL     1     -10.573   7.125  73.331  1.00  0.00    -0.382 C  
BRANCH  25  26
HETATM   26  S   UNL     1     -11.286   5.476  73.069  1.00  0.00    -0.266 SA 
BRANCH  26  27
HETATM   27  C   UNL     1      -9.772   4.436  73.097  1.00  0.00    -0.135 C  
HETATM   28  C   UNL     1      -8.546   5.202  72.589  1.00  0.00    -0.117 C  
HETATM   29  C   UNL     1      -7.280   4.360  72.739  1.00  0.00    -0.073 C  
HETATM   30  C   UNL     1      -7.423   3.015  72.017  1.00  0.00    -0.052 C  
HETATM   31  N   UNL     1      -6.222   2.208  72.211  1.00  0.00    -0.013 NA 
HETATM   32  C   UNL     1      -8.654   2.248  72.509  1.00  0.00    -0.068 C  
HETATM   33  C   UNL     1      -9.928   3.086  72.364  1.00  0.00    -0.164 C  
HETATM   34  H2  UNL     1      -6.000   2.088  73.200  1.00  0.00     0.000 HD 
HETATM   35  H1  UNL     1      -6.318   1.313  71.731  1.00  0.00     0.000 HD 
HETATM   36  O   UNL     1     -11.025   2.326  72.871  1.00  0.00    -0.134 OA 
HETATM   37  H   UNL     1     -11.121   1.495  72.419  1.00  0.00     0.000 HD 
ENDBRANCH  26  27
ENDBRANCH  25  26
ENDBRANCH  23  25
ENDBRANCH  22  23
ENDBRANCH  12  22
BRANCH  17  38
HETATM   38  C   UNL     1      -6.416   6.583  69.132  1.00  0.00    -0.040 C  
HETATM   39  C   UNL     1      -6.305   5.266  69.223  1.00  0.00    -0.034 C  
ENDBRANCH  17  38
TORSDOF 6
ENDMDL
MODEL       84
REMARK 921   NORMALIZED FREE ENERGY PREDICTED BY IDOCK:   -4.92 KCAL/MOL
REMARK 922        TOTAL FREE ENERGY PREDICTED BY IDOCK:   -7.88 KCAL/MOL
REMARK 923 INTER-LIGAND FREE ENERGY PREDICTED BY IDOCK:   -7.81 KCAL/MOL
REMARK 924 INTRA-LIGAND FREE ENERGY PREDICTED BY IDOCK:   -0.07 KCAL/MOL
REMARK 927      BINDING AFFINITY PREDICTED BY RF-SCORE:    0.00 PKD
ROOT
HETATM    1  C   UNL     1      -7.371  17.376  67.169  1.00  0.00    -0.199 C  
HETATM    2  C   UNL     1      -6.011  18.114  65.891  1.00  0.00    -0.218 C  
HETATM    3  C   UNL     1      -5.404  19.786  66.675  1.00  0.00    -0.162 C  
HETATM    4  O   UNL     1      -5.643  17.620  64.832  1.00  0.00     0.196 OA 
HETATM    5  C   UNL     1      -6.510  20.089  68.302  1.00  0.00    -0.311 C  
HETATM    6  C   UNL     1      -7.405  18.437  68.603  1.00  0.00    -0.311 C  
HETATM    7  C   UNL     1      -7.239  17.579  69.871  1.00  0.00     0.815 C  
HETATM    8  C   UNL     1      -7.513  16.041  69.652  1.00  0.00    -0.005 C  
HETATM    9  C   UNL     1      -8.632  15.677  68.645  1.00  0.00    -0.188 C  
HETATM   10  C   UNL     1      -9.934  16.198  69.302  1.00  0.00    -0.253 C  
HETATM   11  C   UNL     1      -8.290  16.121  67.150  1.00  0.00    -0.225 C  
HETATM   12  C   UNL     1      -9.684  16.494  66.423  1.00  0.00    -0.285 C  
HETATM   13  C   UNL     1      -7.544  15.052  66.336  1.00  0.00     1.214 C  
HETATM   14  C   UNL     1      -9.742  17.854  65.706  1.00  0.00     0.157 C  
HETATM   15  O   UNL     1      -7.484  20.831  66.035  1.00  0.00    -0.503 OA 
HETATM   16  C   UNL     1      -6.347  18.442  67.771  1.00  0.00    -0.190 C  
HETATM   17  C   UNL     1      -9.426  19.276  66.526  1.00  0.00    -0.407 C  
HETATM   18  C   UNL     1      -7.640  19.441  66.429  1.00  0.00    -0.271 C  
HETATM   19  H   UNL     1      -6.539  20.919  65.984  1.00  0.00     0.000 HD 
HETATM   20  C   UNL     1      -5.186  17.056  67.805  1.00  0.00    -0.128 C  
HETATM   21  C   UNL     1     -10.608  20.072  65.868  1.00  0.00    -0.459 C  
ENDROOT
BRANCH  12  22
HETATM   22  O   UNL     1     -10.056  15.499  65.447  1.00  0.00    -0.356 OA 
BRANCH  22  23
HETATM   23  C   UNL     1     -11.150  15.770  64.678  1.00  0.00    -0.361 C  
HETATM   24  O   UNL     1     -11.479  16.878  64.274  1.00  0.00    -1.142 OA 
BRANCH  23  25
HETATM   25  C   UNL     1     -11.852  14.497  64.281  1.00  0.00    -0.348 C  
BRANCH  25  26
HETATM   26  S   UNL     1     -12.447  13.595  65.739  1.00  0.00    -0.459 SA 
BRANCH  26  27
HETATM   27  C   UNL     1     -11.376  12.104  65.685  1.00  0.00    -0.347 C  
HETATM   28  C   UNL     1     -10.234  12.188  66.704  1.00  0.00    -0.223 C  
HETATM   29  C   UNL     1      -9.433  10.886  66.728  1.00  0.00    -0.200 C  
HETATM   30  C   UNL     1      -8.897  10.542  65.333  1.00  0.00    -0.187 C  
HETATM   31  N   UNL     1      -8.176   9.274  65.368  1.00  0.00    -0.121 NA 
HETATM   32  C   UNL     1     -10.031  10.471  64.305  1.00  0.00    -0.398 C  
HETATM   33  C   UNL     1     -10.841  11.771  64.276  1.00  0.00    -0.349 C  
HETATM   34  H2  UNL     1      -8.746   8.521  65.753  1.00  0.00     0.000 HD 
HETATM   35  H1  UNL     1      -7.820   9.045  64.440  1.00  0.00     0.000 HD 
HETATM   36  O   UNL     1     -11.895  11.621  63.326  1.00  0.00    -0.800 OA 
HETATM   37  H   UNL     1     -11.565  11.416  62.458  1.00  0.00     0.000 HD 
ENDBRANCH  26  27
ENDBRANCH  25  26
ENDBRANCH  23  25
ENDBRANCH  22  23
ENDBRANCH  12  22
BRANCH  17  38
HETATM   38  C   UNL     1      -9.537  20.104  67.791  1.00  0.00    -0.508 C  
HETATM   39  C   UNL     1     -10.206  20.181  68.933  1.00  0.00    -0.280 C  
ENDBRANCH  17  38
TORSDOF 6
ENDMDL
MODEL       85
REMARK 921   NORMALIZED FREE ENERGY PREDICTED BY IDOCK:   -4.92 KCAL/MOL
REMARK 922        TOTAL FREE ENERGY PREDICTED BY IDOCK:   -7.88 KCAL/MOL
REMARK 923 INTER-LIGAND FREE ENERGY PREDICTED BY IDOCK:   -5.84 KCAL/MOL
REMARK 924 INTRA-LIGAND FREE ENERGY PREDICTED BY IDOCK:   -2.04 KCAL/MOL
REMARK 927      BINDING AFFINITY PREDICTED BY RF-SCORE:    0.00 PKD
ROOT
HETATM    1  C   UNL     1      -8.997   5.830  72.142  1.00  0.00    -0.137 C  
HETATM    2  C   UNL     1      -7.379   5.226  73.164  1.00  0.00    -0.091 C  
HETATM    3  C   UNL     1      -6.739   6.797  74.114  1.00  0.00    -0.079 C  
HETATM    4  O   UNL     1      -6.889   4.103  73.181  1.00  0.00    -0.052 OA 
HETATM    5  C   UNL     1      -7.875   8.321  73.527  1.00  0.00    -0.206 C  
HETATM    6  C   UNL     1      -9.331   7.522  72.599  1.00  0.00    -0.208 C  
HETATM    7  C   UNL     1     -10.806   7.649  73.025  1.00  0.00    -0.457 C  
HETATM    8  C   UNL     1     -11.719   6.448  72.561  1.00  0.00    -0.222 C  
HETATM    9  C   UNL     1     -11.391   5.828  71.181  1.00  0.00    -0.138 C  
HETATM   10  C   UNL     1     -11.703   6.951  70.161  1.00  0.00    -0.306 C  
HETATM   11  C   UNL     1      -9.957   5.126  71.140  1.00  0.00    -0.272 C  
HETATM   12  C   UNL     1      -9.377   5.291  69.642  1.00  0.00    -0.126 C  
HETATM   13  C   UNL     1      -9.978   3.640  71.534  1.00  0.00    -0.181 C  
HETATM   14  C   UNL     1      -7.950   5.854  69.517  1.00  0.00    -0.105 C  
HETATM   15  O   UNL     1      -5.868   7.683  72.045  1.00  0.00    -0.036 OA 
HETATM   16  C   UNL     1      -8.573   6.735  73.385  1.00  0.00    -0.137 C  
HETATM   17  C   UNL     1      -7.545   7.336  70.175  1.00  0.00    -0.090 C  
HETATM   18  C   UNL     1      -7.110   6.948  71.874  1.00  0.00    -0.074 C  
HETATM   19  H   UNL     1      -5.637   7.478  72.944  1.00  0.00     0.000 HD 
HETATM   20  C   UNL     1      -9.364   5.447  74.379  1.00  0.00    -0.131 C  
HETATM   21  C   UNL     1      -6.701   7.803  68.937  1.00  0.00    -0.050 C  
ENDROOT
BRANCH  12  22
HETATM   22  O   UNL     1      -9.388   4.039  68.928  1.00  0.00    -0.140 OA 
BRANCH  22  23
HETATM   23  C   UNL     1      -8.903   4.052  67.652  1.00  0.00    -0.115 C  
HETATM   24  O   UNL     1      -7.999   3.346  67.227  1.00  0.00    -0.078 OA 
BRANCH  23  25
HETATM   25  C   UNL     1      -9.713   4.980  66.783  1.00  0.00    -0.174 C  
BRANCH  25  26
HETATM   26  S   UNL     1      -8.645   5.927  65.662  1.00  0.00    -0.145 SA 
BRANCH  26  27
HETATM   27  C   UNL     1      -8.940   7.637  66.265  1.00  0.00    -0.169 C  
HETATM   28  C   UNL     1     -10.341   7.793  66.868  1.00  0.00    -0.396 C  
HETATM   29  C   UNL     1     -10.517   9.185  67.475  1.00  0.00    -0.335 C  
HETATM   30  C   UNL     1     -10.244  10.278  66.435  1.00  0.00    -0.225 C  
HETATM   31  N   UNL     1     -10.372  11.598  67.045  1.00  0.00    -0.212 NA 
HETATM   32  C   UNL     1      -8.851  10.121  65.816  1.00  0.00    -0.177 C  
HETATM   33  C   UNL     1      -8.664   8.728  65.208  1.00  0.00    -0.182 C  
HETATM   34  H2  UNL     1      -9.777  11.697  67.868  1.00  0.00     0.000 HD 
HETATM   35  H1  UNL     1     -10.190  12.325  66.354  1.00  0.00     0.000 HD 
HETATM   36  O   UNL     1      -7.340   8.642  64.684  1.00  0.00    -0.090 OA 
HETATM   37  H   UNL     1      -7.170   9.313  64.033  1.00  0.00     0.000 HD 
ENDBRANCH  26  27
ENDBRANCH  25  26
ENDBRANCH  23  25
ENDBRANCH  22  23
ENDBRANCH  12  22
BRANCH  17  38
HETATM   38  C   UNL     1      -7.925   8.770  70.491  1.00  0.00    -0.117 C  
HETATM   39  C   UNL     1      -7.985   9.977  69.949  1.00  0.00    -0.184 C  
ENDBRANCH  17  38
TORSDOF 6
ENDMDL
MODEL       86
REMARK 921   NORMALIZED FREE ENERGY PREDICTED BY IDOCK:   -4.91 KCAL/MOL
REMARK 922        TOTAL FREE ENERGY PREDICTED BY IDOCK:   -7.86 KCAL/MOL
REMARK 923 INTER-LIGAND FREE ENERGY PREDICTED BY IDOCK:   -6.45 KCAL/MOL
REMARK 924 INTRA-LIGAND FREE ENERGY PREDICTED BY IDOCK:   -1.41 KCAL/MOL
REMARK 927      BINDING AFFINITY PREDICTED BY RF-SCORE:    0.00 PKD
ROOT
HETATM    1  C   UNL     1      -9.490  11.522  66.943  1.00  0.00    -0.194 C  
HETATM    2  C   UNL     1      -8.568  10.386  65.568  1.00  0.00    -0.169 C  
HETATM    3  C   UNL     1      -9.286   8.594  65.797  1.00  0.00    -0.245 C  
HETATM    4  O   UNL     1      -7.723  10.744  64.756  1.00  0.00     0.027 OA 
HETATM    5  C   UNL     1     -10.486   8.658  67.384  1.00  0.00    -0.351 C  
HETATM    6  C   UNL     1     -10.718  10.511  67.751  1.00  0.00    -0.319 C  
HETATM    7  C   UNL     1     -12.075  11.239  67.715  1.00  0.00     0.230 C  
HETATM    8  C   UNL     1     -11.973  12.782  67.402  1.00  0.00    -0.335 C  
HETATM    9  C   UNL     1     -10.742  13.522  67.982  1.00  0.00    -0.263 C  
HETATM   10  C   UNL     1     -10.938  13.465  69.517  1.00  0.00    -0.006 C  
HETATM   11  C   UNL     1      -9.362  13.015  67.360  1.00  0.00    -0.209 C  
HETATM   12  C   UNL     1      -8.233  13.152  68.507  1.00  0.00    -0.076 C  
HETATM   13  C   UNL     1      -8.926  13.779  66.100  1.00  0.00     0.223 C  
HETATM   14  C   UNL     1      -7.371  11.905  68.774  1.00  0.00    -0.105 C  
HETATM   15  O   UNL     1      -7.965   8.331  67.800  1.00  0.00    -0.118 OA 
HETATM   16  C   UNL     1     -10.223  10.160  66.549  1.00  0.00    -0.288 C  
HETATM   17  C   UNL     1      -8.071  10.446  69.195  1.00  0.00    -0.151 C  
HETATM   18  C   UNL     1      -8.462   9.684  67.616  1.00  0.00    -0.125 C  
HETATM   19  H   UNL     1      -8.172   7.928  66.965  1.00  0.00     0.000 HD 
HETATM   20  C   UNL     1     -10.750  11.067  65.075  1.00  0.00    -0.264 C  
HETATM   21  C   UNL     1      -7.016  10.112  70.309  1.00  0.00    -0.150 C  
ENDROOT
BRANCH  12  22
HETATM   22  O   UNL     1      -7.318  14.230  68.224  1.00  0.00    -0.104 OA 
BRANCH  22  23
HETATM   23  C   UNL     1      -7.288  15.263  69.115  1.00  0.00    -0.172 C  
HETATM   24  O   UNL     1      -7.953  15.337  70.140  1.00  0.00     0.076 OA 
BRANCH  23  25
HETATM   25  C   UNL     1      -6.230  16.266  68.735  1.00  0.00    -0.122 C  
BRANCH  25  26
HETATM   26  S   UNL     1      -6.708  17.944  69.236  1.00  0.00    -0.163 SA 
BRANCH  26  27
HETATM   27  C   UNL     1      -7.955  18.348  67.950  1.00  0.00    -0.258 C  
HETATM   28  C   UNL     1      -7.551  19.580  67.133  1.00  0.00    -0.271 C  
HETATM   29  C   UNL     1      -8.539  19.820  65.991  1.00  0.00    -0.292 C  
HETATM   30  C   UNL     1      -9.970  19.961  66.521  1.00  0.00    -0.474 C  
HETATM   31  N   UNL     1     -10.903  20.143  65.413  1.00  0.00    -0.151 NA 
HETATM   32  C   UNL     1     -10.378  18.740  67.352  1.00  0.00    -0.472 C  
HETATM   33  C   UNL     1      -9.392  18.490  68.497  1.00  0.00    -0.338 C  
HETATM   34  H2  UNL     1     -10.824  19.397  64.722  1.00  0.00     0.000 HD 
HETATM   35  H1  UNL     1     -11.855  20.236  65.765  1.00  0.00     0.000 HD 
HETATM   36  O   UNL     1      -9.813  17.323  69.204  1.00  0.00    -0.254 OA 
HETATM   37  H   UNL     1     -10.697  17.411  69.541  1.00  0.00     0.000 HD 
ENDBRANCH  26  27
ENDBRANCH  25  26
ENDBRANCH  23  25
ENDBRANCH  22  23
ENDBRANCH  12  22
BRANCH  17  38
HETATM   38  C   UNL     1      -9.145   9.684  69.947  1.00  0.00    -0.250 C  
HETATM   39  C   UNL     1      -9.332   8.923  71.015  1.00  0.00    -0.313 C  
ENDBRANCH  17  38
TORSDOF 6
ENDMDL
MODEL       87
REMARK 921   NORMALIZED FREE ENERGY PREDICTED BY IDOCK:   -4.85 KCAL/MOL
REMARK 922        TOTAL FREE ENERGY PREDICTED BY IDOCK:   -7.79 KCAL/MOL
REMARK 923 INTER-LIGAND FREE ENERGY PREDICTED BY IDOCK:   -7.35 KCAL/MOL
REMARK 924 INTRA-LIGAND FREE ENERGY PREDICTED BY IDOCK:   -0.44 KCAL/MOL
REMARK 927      BINDING AFFINITY PREDICTED BY RF-SCORE:    0.00 PKD
ROOT
HETATM    1  C   UNL     1      -8.314  11.599  67.600  1.00  0.00    -0.142 C  
HETATM    2  C   UNL     1      -7.000  12.267  68.962  1.00  0.00    -0.078 C  
HETATM    3  C   UNL     1      -5.979  10.708  69.517  1.00  0.00    -0.048 C  
HETATM    4  O   UNL     1      -6.871  13.415  69.368  1.00  0.00    -0.087 OA 
HETATM    5  C   UNL     1      -6.796   9.137  68.608  1.00  0.00    -0.062 C  
HETATM    6  C   UNL     1      -7.960   9.877  67.297  1.00  0.00    -0.109 C  
HETATM    7  C   UNL     1      -7.816   9.650  65.780  1.00  0.00    -0.106 C  
HETATM    8  C   UNL     1      -8.417  10.807  64.893  1.00  0.00    -0.055 C  
HETATM    9  C   UNL     1      -9.701  11.489  65.428  1.00  0.00    -0.262 C  
HETATM   10  C   UNL     1     -10.782  10.381  65.380  1.00  0.00     0.052 C  
HETATM   11  C   UNL     1      -9.462  12.276  66.796  1.00  0.00    -0.222 C  
HETATM   12  C   UNL     1     -10.831  12.191  67.650  1.00  0.00    -0.233 C  
HETATM   13  C   UNL     1      -9.050  13.745  66.609  1.00  0.00    -0.196 C  
HETATM   14  C   UNL     1     -10.701  11.719  69.110  1.00  0.00    -0.169 C  
HETATM   15  O   UNL     1      -7.869   9.940  70.807  1.00  0.00    -0.391 OA 
HETATM   16  C   UNL     1      -7.032  10.682  67.847  1.00  0.00    -0.077 C  
HETATM   17  C   UNL     1     -10.009  10.244  69.481  1.00  0.00    -0.252 C  
HETATM   18  C   UNL     1      -8.251  10.604  69.572  1.00  0.00    -0.021 C  
HETATM   19  H   UNL     1      -6.939  10.130  70.856  1.00  0.00     0.000 HD 
HETATM   20  C   UNL     1      -6.177  11.890  66.807  1.00  0.00    -0.045 C  
HETATM   21  C   UNL     1     -11.078   9.867  70.566  1.00  0.00    -0.398 C  
ENDROOT
BRANCH  12  22
HETATM   22  O   UNL     1     -11.510  13.463  67.690  1.00  0.00    -0.285 OA 
BRANCH  22  23
HETATM   23  C   UNL     1     -11.875  13.928  68.919  1.00  0.00    -0.358 C  
HETATM   24  O   UNL     1     -12.329  13.249  69.831  1.00  0.00    -0.259 OA 
BRANCH  23  25
HETATM   25  C   UNL     1     -11.535  15.389  69.060  1.00  0.00    -0.337 C  
BRANCH  25  26
HETATM   26  S   UNL     1      -9.841  15.612  69.673  1.00  0.00    -0.244 SA 
BRANCH  26  27
HETATM   27  C   UNL     1      -9.354  17.150  68.795  1.00  0.00    -0.252 C  
HETATM   28  C   UNL     1     -10.545  17.795  68.077  1.00  0.00    -0.372 C  
HETATM   29  C   UNL     1     -10.144  19.136  67.461  1.00  0.00    -0.463 C  
HETATM   30  C   UNL     1      -8.954  18.971  66.509  1.00  0.00    -0.330 C  
HETATM   31  N   UNL     1      -8.558  20.267  65.967  1.00  0.00    -0.575 NA 
HETATM   32  C   UNL     1      -7.764  18.313  67.214  1.00  0.00    -0.226 C  
HETATM   33  C   UNL     1      -8.157  16.970  67.837  1.00  0.00    -0.195 C  
HETATM   34  H2  UNL     1      -8.365  20.945  66.704  1.00  0.00     0.000 HD 
HETATM   35  H1  UNL     1      -7.767  20.158  65.334  1.00  0.00     0.000 HD 
HETATM   36  O   UNL     1      -7.015  16.434  68.504  1.00  0.00    -0.142 OA 
HETATM   37  H   UNL     1      -6.278  16.323  67.914  1.00  0.00     0.000 HD 
ENDBRANCH  26  27
ENDBRANCH  25  26
ENDBRANCH  23  25
ENDBRANCH  22  23
ENDBRANCH  12  22
BRANCH  17  38
HETATM   38  C   UNL     1      -9.797   8.781  69.143  1.00  0.00    -0.181 C  
HETATM   39  C   UNL     1     -10.383   7.751  68.550  1.00  0.00    -0.226 C  
ENDBRANCH  17  38
TORSDOF 6
ENDMDL
MODEL       88
REMARK 921   NORMALIZED FREE ENERGY PREDICTED BY IDOCK:   -4.83 KCAL/MOL
REMARK 922        TOTAL FREE ENERGY PREDICTED BY IDOCK:   -7.76 KCAL/MOL
REMARK 923 INTER-LIGAND FREE ENERGY PREDICTED BY IDOCK:   -6.95 KCAL/MOL
REMARK 924 INTRA-LIGAND FREE ENERGY PREDICTED BY IDOCK:   -0.82 KCAL/MOL
REMARK 927      BINDING AFFINITY PREDICTED BY RF-SCORE:    0.00 PKD
ROOT
HETATM    1  C   UNL     1      -8.282   7.733  66.810  1.00  0.00    -0.120 C  
HETATM    2  C   UNL     1      -8.973   5.986  66.103  1.00  0.00    -0.152 C  
HETATM    3  C   UNL     1      -7.513   5.220  65.072  1.00  0.00    -0.073 C  
HETATM    4  O   UNL     1     -10.085   5.503  66.277  1.00  0.00    -0.174 OA 
HETATM    5  C   UNL     1      -6.056   6.576  65.051  1.00  0.00    -0.037 C  
HETATM    6  C   UNL     1      -6.559   7.860  66.363  1.00  0.00    -0.050 C  
HETATM    7  C   UNL     1      -5.732   8.185  67.621  1.00  0.00    -0.039 C  
HETATM    8  C   UNL     1      -6.584   8.734  68.830  1.00  0.00    -0.054 C  
HETATM    9  C   UNL     1      -7.784   9.644  68.470  1.00  0.00    -0.081 C  
HETATM   10  C   UNL     1      -7.144  10.913  67.856  1.00  0.00    -0.081 C  
HETATM   11  C   UNL     1      -8.919   8.877  67.649  1.00  0.00    -0.141 C  
HETATM   12  C   UNL     1      -9.605   9.948  66.652  1.00  0.00    -0.184 C  
HETATM   13  C   UNL     1      -9.992   8.220  68.531  1.00  0.00    -0.206 C  
HETATM   14  C   UNL     1      -9.717   9.536  65.174  1.00  0.00    -0.207 C  
HETATM   15  O   UNL     1      -7.937   6.812  63.307  1.00  0.00    -0.156 OA 
HETATM   16  C   UNL     1      -7.178   6.665  66.376  1.00  0.00    -0.072 C  
HETATM   17  C   UNL     1      -8.362   9.110  64.292  1.00  0.00    -0.178 C  
HETATM   18  C   UNL     1      -8.158   7.359  64.636  1.00  0.00    -0.092 C  
HETATM   19  H   UNL     1      -7.829   5.886  63.489  1.00  0.00     0.000 HD 
HETATM   20  C   UNL     1      -7.557   5.879  67.960  1.00  0.00    -0.089 C  
HETATM   21  C   UNL     1      -8.788   9.902  63.006  1.00  0.00    -0.251 C  
ENDROOT
BRANCH  12  22
HETATM   22  O   UNL     1     -10.937  10.296  67.083  1.00  0.00    -0.251 OA 
BRANCH  22  23
HETATM   23  C   UNL     1     -11.293  11.609  66.983  1.00  0.00    -0.305 C  
HETATM   24  O   UNL     1     -12.195  12.050  66.284  1.00  0.00    -0.548 OA 
BRANCH  23  25
HETATM   25  C   UNL     1     -10.501  12.452  67.949  1.00  0.00    -0.215 C  
BRANCH  25  26
HETATM   26  S   UNL     1     -11.593  13.481  68.970  1.00  0.00    -0.331 SA 
BRANCH  26  27
HETATM   27  C   UNL     1     -11.933  12.341  70.370  1.00  0.00    -0.263 C  
HETATM   28  C   UNL     1     -11.798  10.873  69.952  1.00  0.00    -0.427 C  
HETATM   29  C   UNL     1     -11.961   9.950  71.160  1.00  0.00    -0.473 C  
HETATM   30  C   UNL     1     -13.300  10.196  71.865  1.00  0.00    -0.402 C  
HETATM   31  N   UNL     1     -13.416   9.339  73.040  1.00  0.00    -0.814 NA 
HETATM   32  C   UNL     1     -13.450  11.666  72.273  1.00  0.00    -0.098 C  
HETATM   33  C   UNL     1     -13.285  12.598  71.070  1.00  0.00     0.184 C  
HETATM   34  H2  UNL     1     -12.625   9.451  73.674  1.00  0.00     0.000 HD 
HETATM   35  H1  UNL     1     -14.306   9.503  73.510  1.00  0.00     0.000 HD 
HETATM   36  O   UNL     1     -13.402  13.945  71.527  1.00  0.00    -0.344 OA 
HETATM   37  H   UNL     1     -14.235  14.104  71.958  1.00  0.00     0.000 HD 
ENDBRANCH  26  27
ENDBRANCH  25  26
ENDBRANCH  23  25
ENDBRANCH  22  23
ENDBRANCH  12  22
BRANCH  17  38
HETATM   38  C   UNL     1      -6.896   9.323  63.970  1.00  0.00    -0.092 C  
HETATM   39  C   UNL     1      -6.090  10.022  63.184  1.00  0.00    -0.131 C  
ENDBRANCH  17  38
TORSDOF 6
ENDMDL
MODEL       89
REMARK 921   NORMALIZED FREE ENERGY PREDICTED BY IDOCK:   -4.82 KCAL/MOL
REMARK 922        TOTAL FREE ENERGY PREDICTED BY IDOCK:   -7.75 KCAL/MOL
REMARK 923 INTER-LIGAND FREE ENERGY PREDICTED BY IDOCK:   -7.02 KCAL/MOL
REMARK 924 INTRA-LIGAND FREE ENERGY PREDICTED BY IDOCK:   -0.74 KCAL/MOL
REMARK 927      BINDING AFFINITY PREDICTED BY RF-SCORE:    0.00 PKD
ROOT
HETATM    1  C   UNL     1      -9.269  10.574  68.262  1.00  0.00    -0.152 C  
HETATM    2  C   UNL     1      -8.024  10.082  69.757  1.00  0.00    -0.180 C  
HETATM    3  C   UNL     1      -8.729   8.434  70.509  1.00  0.00    -0.152 C  
HETATM    4  O   UNL     1      -7.029  10.694  70.125  1.00  0.00    -0.161 OA 
HETATM    5  C   UNL     1     -10.443   8.064  69.568  1.00  0.00    -0.226 C  
HETATM    6  C   UNL     1     -10.457   9.255  68.084  1.00  0.00    -0.263 C  
HETATM    7  C   UNL     1     -10.496   8.805  66.611  1.00  0.00    -0.240 C  
HETATM    8  C   UNL     1      -9.861   9.838  65.602  1.00  0.00    -0.371 C  
HETATM    9  C   UNL     1     -10.068  11.337  65.931  1.00  0.00    -0.291 C  
HETATM   10  C   UNL     1     -11.594  11.564  65.788  1.00  0.00     0.034 C  
HETATM   11  C   UNL     1      -9.346  11.782  67.284  1.00  0.00    -0.171 C  
HETATM   12  C   UNL     1     -10.240  12.950  67.951  1.00  0.00    -0.233 C  
HETATM   13  C   UNL     1      -7.902  12.272  67.089  1.00  0.00    -0.149 C  
HETATM   14  C   UNL     1     -10.612  12.768  69.433  1.00  0.00     0.241 C  
HETATM   15  O   UNL     1     -10.500   9.686  71.569  1.00  0.00    -0.228 OA 
HETATM   16  C   UNL     1      -9.288   9.045  68.717  1.00  0.00    -0.140 C  
HETATM   17  C   UNL     1     -11.431  11.409  69.957  1.00  0.00    -0.331 C  
HETATM   18  C   UNL     1     -10.127  10.213  70.266  1.00  0.00    -0.071 C  
HETATM   19  H   UNL     1      -9.810   9.053  71.732  1.00  0.00     0.000 HD 
HETATM   20  C   UNL     1      -7.766   8.913  67.748  1.00  0.00    -0.101 C  
HETATM   21  C   UNL     1     -12.401  12.198  70.906  1.00  0.00    -0.370 C  
ENDROOT
BRANCH  12  22
HETATM   22  O   UNL     1      -9.597  14.237  67.844  1.00  0.00    -0.210 OA 
BRANCH  22  23
HETATM   23  C   UNL     1     -10.324  15.244  67.279  1.00  0.00    -0.264 C  
HETATM   24  O   UNL     1     -11.220  15.100  66.458  1.00  0.00    -0.341 OA 
BRANCH  23  25
HETATM   25  C   UNL     1      -9.960  16.572  67.890  1.00  0.00    -0.245 C  
BRANCH  25  26
HETATM   26  S   UNL     1      -9.924  17.883  66.634  1.00  0.00    -0.372 SA 
BRANCH  26  27
HETATM   27  C   UNL     1      -8.336  18.711  67.043  1.00  0.00    -0.269 C  
HETATM   28  C   UNL     1      -7.869  18.374  68.463  1.00  0.00    -0.325 C  
HETATM   29  C   UNL     1      -6.488  18.970  68.734  1.00  0.00    -0.281 C  
HETATM   30  C   UNL     1      -6.487  20.486  68.503  1.00  0.00    -0.275 C  
HETATM   31  N   UNL     1      -5.150  21.029  68.722  1.00  0.00    -0.372 NA 
HETATM   32  C   UNL     1      -6.967  20.833  67.090  1.00  0.00    -0.406 C  
HETATM   33  C   UNL     1      -8.350  20.237  66.809  1.00  0.00    -0.258 C  
HETATM   34  H2  UNL     1      -4.448  20.557  68.152  1.00  0.00     0.000 HD 
HETATM   35  H1  UNL     1      -5.149  22.037  68.568  1.00  0.00     0.000 HD 
HETATM   36  O   UNL     1      -8.717  20.569  65.470  1.00  0.00    -0.335 OA 
HETATM   37  H   UNL     1      -8.725  21.509  65.327  1.00  0.00     0.000 HD 
ENDBRANCH  26  27
ENDBRANCH  25  26
ENDBRANCH  23  25
ENDBRANCH  22  23
ENDBRANCH  12  22
BRANCH  17  38
HETATM   38  C   UNL     1     -12.488  10.349  69.714  1.00  0.00    -0.051 C  
HETATM   39  C   UNL     1     -13.514   9.745  70.294  1.00  0.00     0.545 C  
ENDBRANCH  17  38
TORSDOF 6
ENDMDL
MODEL       90
REMARK 921   NORMALIZED FREE ENERGY PREDICTED BY IDOCK:   -4.80 KCAL/MOL
REMARK 922        TOTAL FREE ENERGY PREDICTED BY IDOCK:   -7.73 KCAL/MOL
REMARK 923 INTER-LIGAND FREE ENERGY PREDICTED BY IDOCK:   -6.14 KCAL/MOL
REMARK 924 INTRA-LIGAND FREE ENERGY PREDICTED BY IDOCK:   -1.58 KCAL/MOL
REMARK 927      BINDING AFFINITY PREDICTED BY RF-SCORE:    0.00 PKD
ROOT
HETATM    1  C   UNL     1      -9.558   7.320  69.724  1.00  0.00    -0.162 C  
HETATM    2  C   UNL     1     -10.480   6.805  68.018  1.00  0.00    -0.211 C  
HETATM    3  C   UNL     1     -10.409   4.863  67.946  1.00  0.00    -0.050 C  
HETATM    4  O   UNL     1     -10.979   7.555  67.188  1.00  0.00    -0.293 OA 
HETATM    5  C   UNL     1      -9.324   4.274  69.506  1.00  0.00    -0.232 C  
HETATM    6  C   UNL     1      -9.156   5.820  70.602  1.00  0.00    -0.164 C  
HETATM    7  C   UNL     1      -9.684   5.922  72.046  1.00  0.00    -0.174 C  
HETATM    8  C   UNL     1     -10.027   7.392  72.506  1.00  0.00    -0.228 C  
HETATM    9  C   UNL     1      -9.108   8.515  71.965  1.00  0.00    -0.317 C  
HETATM   10  C   UNL     1      -7.727   8.235  72.607  1.00  0.00    -0.169 C  
HETATM   11  C   UNL     1      -9.202   8.685  70.381  1.00  0.00    -0.189 C  
HETATM   12  C   UNL     1      -7.751   9.166  69.857  1.00  0.00    -0.087 C  
HETATM   13  C   UNL     1     -10.281   9.679  69.922  1.00  0.00    -0.279 C  
HETATM   14  C   UNL     1      -7.144   8.367  68.689  1.00  0.00    -0.072 C  
HETATM   15  O   UNL     1      -8.068   4.979  67.371  1.00  0.00    -0.102 OA 
HETATM   16  C   UNL     1     -10.101   5.822  69.644  1.00  0.00    -0.276 C  
HETATM   17  C   UNL     1      -6.905   6.717  68.805  1.00  0.00    -0.070 C  
HETATM   18  C   UNL     1      -8.480   6.017  68.301  1.00  0.00    -0.112 C  
HETATM   19  H   UNL     1      -8.901   4.608  67.104  1.00  0.00     0.000 HD 
HETATM   20  C   UNL     1     -11.713   6.567  69.990  1.00  0.00    -0.388 C  
HETATM   21  C   UNL     1      -5.486   6.743  68.135  1.00  0.00    -0.012 C  
ENDROOT
BRANCH  12  22
HETATM   22  O   UNL     1      -7.768  10.547  69.443  1.00  0.00    -0.141 OA 
BRANCH  22  23
HETATM   23  C   UNL     1      -6.671  11.297  69.754  1.00  0.00    -0.099 C  
HETATM   24  O   UNL     1      -6.059  11.256  70.813  1.00  0.00    -0.344 OA 
BRANCH  23  25
HETATM   25  C   UNL     1      -6.227  12.111  68.567  1.00  0.00    -0.053 C  
BRANCH  25  26
HETATM   26  S   UNL     1      -7.633  12.957  67.789  1.00  0.00    -0.157 SA 
BRANCH  26  27
HETATM   27  C   UNL     1      -7.974  11.834  66.377  1.00  0.00     0.065 C  
HETATM   28  C   UNL     1      -9.246  11.009  66.601  1.00  0.00    -0.182 C  
HETATM   29  C   UNL     1      -9.578  10.176  65.363  1.00  0.00    -0.325 C  
HETATM   30  C   UNL     1      -8.401   9.273  64.974  1.00  0.00    -0.154 C  
HETATM   31  N   UNL     1      -8.720   8.522  63.764  1.00  0.00    -0.411 NA 
HETATM   32  C   UNL     1      -7.121  10.088  64.762  1.00  0.00    -0.137 C  
HETATM   33  C   UNL     1      -6.783  10.928  65.998  1.00  0.00    -0.073 C  
HETATM   34  H2  UNL     1      -8.999   9.134  62.998  1.00  0.00     0.000 HD 
HETATM   35  H1  UNL     1      -7.937   7.921  63.506  1.00  0.00     0.000 HD 
HETATM   36  O   UNL     1      -5.605  11.683  65.718  1.00  0.00    -0.495 OA 
HETATM   37  H   UNL     1      -4.872  11.125  65.484  1.00  0.00     0.000 HD 
ENDBRANCH  26  27
ENDBRANCH  25  26
ENDBRANCH  23  25
ENDBRANCH  22  23
ENDBRANCH  12  22
BRANCH  17  38
HETATM   38  C   UNL     1      -6.518   5.511  69.639  1.00  0.00    -0.045 C  
HETATM   39  C   UNL     1      -5.534   4.645  69.829  1.00  0.00    -0.008 C  
ENDBRANCH  17  38
TORSDOF 6
ENDMDL
MODEL       91
REMARK 921   NORMALIZED FREE ENERGY PREDICTED BY IDOCK:   -4.80 KCAL/MOL
REMARK 922        TOTAL FREE ENERGY PREDICTED BY IDOCK:   -7.72 KCAL/MOL
REMARK 923 INTER-LIGAND FREE ENERGY PREDICTED BY IDOCK:   -6.46 KCAL/MOL
REMARK 924 INTRA-LIGAND FREE ENERGY PREDICTED BY IDOCK:   -1.26 KCAL/MOL
REMARK 927      BINDING AFFINITY PREDICTED BY RF-SCORE:    0.00 PKD
ROOT
HETATM    1  C   UNL     1      -8.878   5.453  67.768  1.00  0.00    -0.105 C  
HETATM    2  C   UNL     1     -10.539   6.516  68.137  1.00  0.00    -0.251 C  
HETATM    3  C   UNL     1     -10.521   7.983  66.860  1.00  0.00    -0.387 C  
HETATM    4  O   UNL     1     -11.387   6.294  68.992  1.00  0.00    -0.390 OA 
HETATM    5  C   UNL     1      -8.796   7.860  65.875  1.00  0.00    -0.183 C  
HETATM    6  C   UNL     1      -8.091   6.151  66.327  1.00  0.00    -0.113 C  
HETATM    7  C   UNL     1      -7.814   5.029  65.308  1.00  0.00    -0.089 C  
HETATM    8  C   UNL     1      -7.872   3.575  65.916  1.00  0.00    -0.089 C  
HETATM    9  C   UNL     1      -7.350   3.414  67.366  1.00  0.00    -0.059 C  
HETATM   10  C   UNL     1      -5.835   3.720  67.274  1.00  0.00    -0.023 C  
HETATM   11  C   UNL     1      -8.234   4.203  68.435  1.00  0.00    -0.088 C  
HETATM   12  C   UNL     1      -7.248   4.683  69.622  1.00  0.00    -0.051 C  
HETATM   13  C   UNL     1      -9.394   3.380  69.018  1.00  0.00    -0.239 C  
HETATM   14  C   UNL     1      -7.318   6.169  70.014  1.00  0.00    -0.078 C  
HETATM   15  O   UNL     1      -8.793   9.070  68.148  1.00  0.00    -0.133 OA 
HETATM   16  C   UNL     1      -9.391   6.387  66.581  1.00  0.00    -0.175 C  
HETATM   17  C   UNL     1      -7.058   7.373  68.884  1.00  0.00    -0.080 C  
HETATM   18  C   UNL     1      -8.674   7.622  68.140  1.00  0.00    -0.122 C  
HETATM   19  H   UNL     1      -9.648   9.202  67.754  1.00  0.00     0.000 HD 
HETATM   20  C   UNL     1     -10.603   5.074  66.297  1.00  0.00    -0.332 C  
HETATM   21  C   UNL     1      -6.175   8.256  69.835  1.00  0.00    -0.032 C  
ENDROOT
BRANCH  12  22
HETATM   22  O   UNL     1      -7.468   3.928  70.831  1.00  0.00    -0.040 OA 
BRANCH  22  23
HETATM   23  C   UNL     1      -7.483   4.631  72.001  1.00  0.00    -0.084 C  
HETATM   24  O   UNL     1      -6.542   5.263  72.462  1.00  0.00    -0.058 OA 
BRANCH  23  25
HETATM   25  C   UNL     1      -8.861   4.628  72.608  1.00  0.00    -0.114 C  
BRANCH  25  26
HETATM   26  S   UNL     1      -9.156   6.137  73.574  1.00  0.00    -0.127 SA 
BRANCH  26  27
HETATM   27  C   UNL     1     -10.112   7.139  72.367  1.00  0.00    -0.182 C  
HETATM   28  C   UNL     1      -9.504   8.533  72.178  1.00  0.00    -0.375 C  
HETATM   29  C   UNL     1     -10.240   9.301  71.080  1.00  0.00    -0.387 C  
HETATM   30  C   UNL     1     -11.740   9.394  71.383  1.00  0.00    -0.378 C  
HETATM   31  N   UNL     1     -12.432  10.089  70.302  1.00  0.00    -0.512 NA 
HETATM   32  C   UNL     1     -12.353   8.004  71.588  1.00  0.00    -0.344 C  
HETATM   33  C   UNL     1     -11.620   7.227  72.685  1.00  0.00    -0.217 C  
HETATM   34  H2  UNL     1     -12.252   9.657  69.395  1.00  0.00     0.000 HD 
HETATM   35  H1  UNL     1     -13.429  10.150  70.503  1.00  0.00     0.000 HD 
HETATM   36  O   UNL     1     -12.219   5.937  72.797  1.00  0.00    -0.542 OA 
HETATM   37  H   UNL     1     -13.147   5.991  72.993  1.00  0.00     0.000 HD 
ENDBRANCH  26  27
ENDBRANCH  25  26
ENDBRANCH  23  25
ENDBRANCH  22  23
ENDBRANCH  12  22
BRANCH  17  38
HETATM   38  C   UNL     1      -6.306   7.881  67.669  1.00  0.00    -0.052 C  
HETATM   39  C   UNL     1      -5.268   8.626  67.321  1.00  0.00    -0.033 C  
ENDBRANCH  17  38
TORSDOF 6
ENDMDL
MODEL       92
REMARK 921   NORMALIZED FREE ENERGY PREDICTED BY IDOCK:   -4.75 KCAL/MOL
REMARK 922        TOTAL FREE ENERGY PREDICTED BY IDOCK:   -7.65 KCAL/MOL
REMARK 923 INTER-LIGAND FREE ENERGY PREDICTED BY IDOCK:   -6.41 KCAL/MOL
REMARK 924 INTRA-LIGAND FREE ENERGY PREDICTED BY IDOCK:   -1.24 KCAL/MOL
REMARK 927      BINDING AFFINITY PREDICTED BY RF-SCORE:    0.00 PKD
ROOT
HETATM    1  C   UNL     1      -8.557   6.612  71.680  1.00  0.00    -0.123 C  
HETATM    2  C   UNL     1      -9.200   4.876  72.457  1.00  0.00    -0.132 C  
HETATM    3  C   UNL     1      -8.356   3.481  71.398  1.00  0.00    -0.084 C  
HETATM    4  O   UNL     1      -9.970   4.724  73.397  1.00  0.00    -0.147 OA 
HETATM    5  C   UNL     1      -7.366   4.395  69.933  1.00  0.00    -0.050 C  
HETATM    6  C   UNL     1      -7.348   6.233  70.424  1.00  0.00    -0.089 C  
HETATM    7  C   UNL     1      -6.069   7.048  70.692  1.00  0.00    -0.031 C  
HETATM    8  C   UNL     1      -6.272   8.268  71.671  1.00  0.00    -0.047 C  
HETATM    9  C   UNL     1      -7.625   9.014  71.570  1.00  0.00    -0.035 C  
HETATM   10  C   UNL     1      -7.612   9.663  70.163  1.00  0.00    -0.165 C  
HETATM   11  C   UNL     1      -8.869   8.105  71.988  1.00  0.00    -0.233 C  
HETATM   12  C   UNL     1     -10.136   8.577  71.104  1.00  0.00    -0.205 C  
HETATM   13  C   UNL     1      -9.218   8.173  73.483  1.00  0.00    -0.257 C  
HETATM   14  C   UNL     1     -10.907   7.470  70.363  1.00  0.00    -0.255 C  
HETATM   15  O   UNL     1      -9.878   3.947  69.585  1.00  0.00    -0.194 OA 
HETATM   16  C   UNL     1      -7.661   5.329  71.370  1.00  0.00    -0.098 C  
HETATM   17  C   UNL     1     -10.133   6.452  69.285  1.00  0.00    -0.203 C  
HETATM   18  C   UNL     1      -9.488   5.136  70.323  1.00  0.00    -0.172 C  
HETATM   19  H   UNL     1      -9.536   3.251  70.133  1.00  0.00     0.000 HD 
HETATM   20  C   UNL     1      -7.046   5.559  73.055  1.00  0.00    -0.085 C  
HETATM   21  C   UNL     1     -11.280   6.501  68.214  1.00  0.00    -0.259 C  
ENDROOT
BRANCH  12  22
HETATM   22  O   UNL     1     -11.104   9.287  71.902  1.00  0.00    -0.367 OA 
BRANCH  22  23
HETATM   23  C   UNL     1     -12.238   9.704  71.268  1.00  0.00    -0.363 C  
HETATM   24  O   UNL     1     -13.317   9.915  71.806  1.00  0.00    -0.392 OA 
BRANCH  23  25
HETATM   25  C   UNL     1     -11.963   9.991  69.815  1.00  0.00     0.041 C  
BRANCH  25  26
HETATM   26  S   UNL     1     -11.537  11.738  69.561  1.00  0.00    -0.338 SA 
BRANCH  26  27
HETATM   27  C   UNL     1     -10.559  11.633  68.009  1.00  0.00    -0.202 C  
HETATM   28  C   UNL     1     -10.493  10.198  67.475  1.00  0.00    -0.304 C  
HETATM   29  C   UNL     1      -9.783  10.157  66.122  1.00  0.00    -0.275 C  
HETATM   30  C   UNL     1      -8.382  10.771  66.215  1.00  0.00    -0.160 C  
HETATM   31  N   UNL     1      -7.739  10.764  64.904  1.00  0.00    -0.354 NA 
HETATM   32  C   UNL     1      -8.437  12.201  66.762  1.00  0.00    -0.138 C  
HETATM   33  C   UNL     1      -9.149  12.253  68.117  1.00  0.00    -0.196 C  
HETATM   34  H2  UNL     1      -8.311  11.225  64.197  1.00  0.00     0.000 HD 
HETATM   35  H1  UNL     1      -6.807  11.173  64.966  1.00  0.00     0.000 HD 
HETATM   36  O   UNL     1      -9.194  13.612  68.548  1.00  0.00    -0.268 OA 
HETATM   37  H   UNL     1      -8.326  13.994  68.615  1.00  0.00     0.000 HD 
ENDBRANCH  26  27
ENDBRANCH  25  26
ENDBRANCH  23  25
ENDBRANCH  22  23
ENDBRANCH  12  22
BRANCH  17  38
HETATM   38  C   UNL     1      -9.093   6.250  68.202  1.00  0.00    -0.112 C  
HETATM   39  C   UNL     1      -8.958   6.165  66.887  1.00  0.00    -0.118 C  
ENDBRANCH  17  38
TORSDOF 6
ENDMDL
MODEL       93
REMARK 921   NORMALIZED FREE ENERGY PREDICTED BY IDOCK:   -4.74 KCAL/MOL
REMARK 922        TOTAL FREE ENERGY PREDICTED BY IDOCK:   -7.64 KCAL/MOL
REMARK 923 INTER-LIGAND FREE ENERGY PREDICTED BY IDOCK:   -6.50 KCAL/MOL
REMARK 924 INTRA-LIGAND FREE ENERGY PREDICTED BY IDOCK:   -1.14 KCAL/MOL
REMARK 927      BINDING AFFINITY PREDICTED BY RF-SCORE:    0.00 PKD
ROOT
HETATM    1  C   UNL     1      -8.904  15.674  67.761  1.00  0.00    -0.173 C  
HETATM    2  C   UNL     1      -7.001  16.168  67.358  1.00  0.00    -0.182 C  
HETATM    3  C   UNL     1      -6.625  17.741  68.437  1.00  0.00    -0.202 C  
HETATM    4  O   UNL     1      -6.235  15.603  66.588  1.00  0.00     0.008 OA 
HETATM    5  C   UNL     1      -8.332  18.243  69.329  1.00  0.00     0.229 C  
HETATM    6  C   UNL     1      -9.486  16.755  69.055  1.00  0.00    -0.217 C  
HETATM    7  C   UNL     1     -10.092  15.906  70.189  1.00  0.00    -0.019 C  
HETATM    8  C   UNL     1     -10.440  14.425  69.773  1.00  0.00     0.124 C  
HETATM    9  C   UNL     1     -10.957  14.219  68.328  1.00  0.00    -0.261 C  
HETATM   10  C   UNL     1     -12.324  14.948  68.293  1.00  0.00     0.142 C  
HETATM   11  C   UNL     1      -9.864  14.576  67.220  1.00  0.00    -0.236 C  
HETATM   12  C   UNL     1     -10.649  15.146  65.928  1.00  0.00    -0.337 C  
HETATM   13  C   UNL     1      -8.976  13.389  66.813  1.00  0.00    -0.190 C  
HETATM   14  C   UNL     1     -10.150  16.485  65.357  1.00  0.00    -0.098 C  
HETATM   15  O   UNL     1      -7.945  19.083  66.926  1.00  0.00    -0.247 OA 
HETATM   16  C   UNL     1      -8.168  16.580  68.849  1.00  0.00    -0.241 C  
HETATM   17  C   UNL     1     -10.077  17.856  66.310  1.00  0.00    -0.351 C  
HETATM   18  C   UNL     1      -8.472  17.741  67.109  1.00  0.00    -0.228 C  
HETATM   19  H   UNL     1      -7.096  19.022  67.348  1.00  0.00     0.000 HD 
HETATM   20  C   UNL     1      -7.387  15.032  69.365  1.00  0.00    -0.194 C  
HETATM   21  C   UNL     1     -10.653  18.812  65.207  1.00  0.00     0.495 C  
ENDROOT
BRANCH  12  22
HETATM   22  O   UNL     1     -10.630  14.202  64.838  1.00  0.00    -0.387 OA 
BRANCH  22  23
HETATM   23  C   UNL     1     -11.821  13.629  64.498  1.00  0.00    -0.412 C  
HETATM   24  O   UNL     1     -12.668  14.129  63.769  1.00  0.00    -0.761 OA 
BRANCH  23  25
HETATM   25  C   UNL     1     -11.916  12.229  65.047  1.00  0.00    -0.354 C  
BRANCH  25  26
HETATM   26  S   UNL     1     -10.594  11.175  64.386  1.00  0.00    -0.313 SA 
BRANCH  26  27
HETATM   27  C   UNL     1     -10.125  10.226  65.888  1.00  0.00    -0.251 C  
HETATM   28  C   UNL     1     -10.868  10.727  67.131  1.00  0.00    -0.335 C  
HETATM   29  C   UNL     1     -10.557   9.844  68.340  1.00  0.00    -0.258 C  
HETATM   30  C   UNL     1      -9.047   9.772  68.596  1.00  0.00    -0.130 C  
HETATM   31  N   UNL     1      -8.769   8.889  69.724  1.00  0.00    -0.133 NA 
HETATM   32  C   UNL     1      -8.295   9.287  67.353  1.00  0.00    -0.122 C  
HETATM   33  C   UNL     1      -8.603  10.164  66.136  1.00  0.00    -0.139 C  
HETATM   34  H2  UNL     1      -9.177   7.963  69.594  1.00  0.00     0.000 HD 
HETATM   35  H1  UNL     1      -7.764   8.841  69.895  1.00  0.00     0.000 HD 
HETATM   36  O   UNL     1      -7.899   9.635  65.013  1.00  0.00    -0.109 OA 
HETATM   37  H   UNL     1      -6.962   9.597  65.166  1.00  0.00     0.000 HD 
ENDBRANCH  26  27
ENDBRANCH  25  26
ENDBRANCH  23  25
ENDBRANCH  22  23
ENDBRANCH  12  22
BRANCH  17  38
HETATM   38  C   UNL     1     -10.677  18.715  67.406  1.00  0.00    -0.456 C  
HETATM   39  C   UNL     1     -11.004  19.967  67.690  1.00  0.00    -0.161 C  
ENDBRANCH  17  38
TORSDOF 6
ENDMDL
MODEL       94
REMARK 921   NORMALIZED FREE ENERGY PREDICTED BY IDOCK:   -4.73 KCAL/MOL
REMARK 922        TOTAL FREE ENERGY PREDICTED BY IDOCK:   -7.63 KCAL/MOL
REMARK 923 INTER-LIGAND FREE ENERGY PREDICTED BY IDOCK:   -6.63 KCAL/MOL
REMARK 924 INTRA-LIGAND FREE ENERGY PREDICTED BY IDOCK:   -1.00 KCAL/MOL
REMARK 927      BINDING AFFINITY PREDICTED BY RF-SCORE:    0.00 PKD
ROOT
HETATM    1  C   UNL     1      -7.372   8.650  67.771  1.00  0.00    -0.092 C  
HETATM    2  C   UNL     1      -5.890   9.556  68.778  1.00  0.00    -0.039 C  
HETATM    3  C   UNL     1      -5.825   8.686  70.516  1.00  0.00    -0.027 C  
HETATM    4  O   UNL     1      -5.178  10.472  68.385  1.00  0.00    -0.035 OA 
HETATM    5  C   UNL     1      -7.348   7.406  70.571  1.00  0.00    -0.076 C  
HETATM    6  C   UNL     1      -7.968   7.301  68.775  1.00  0.00    -0.123 C  
HETATM    7  C   UNL     1      -7.977   6.011  67.933  1.00  0.00    -0.106 C  
HETATM    8  C   UNL     1      -7.896   6.254  66.377  1.00  0.00    -0.104 C  
HETATM    9  C   UNL     1      -8.632   7.504  65.835  1.00  0.00    -0.165 C  
HETATM   10  C   UNL     1     -10.132   7.217  66.090  1.00  0.00     0.276 C  
HETATM   11  C   UNL     1      -8.006   8.872  66.369  1.00  0.00    -0.103 C  
HETATM   12  C   UNL     1      -9.211   9.941  66.493  1.00  0.00    -0.155 C  
HETATM   13  C   UNL     1      -6.892   9.440  65.475  1.00  0.00    -0.078 C  
HETATM   14  C   UNL     1      -9.334  10.684  67.835  1.00  0.00    -0.154 C  
HETATM   15  O   UNL     1      -7.827   9.864  71.171  1.00  0.00    -0.286 OA 
HETATM   16  C   UNL     1      -6.752   7.834  68.995  1.00  0.00    -0.049 C  
HETATM   17  C   UNL     1      -9.507   9.847  69.272  1.00  0.00    -0.218 C  
HETATM   18  C   UNL     1      -7.818   9.488  69.767  1.00  0.00    -0.128 C  
HETATM   19  H   UNL     1      -6.934   9.674  71.434  1.00  0.00     0.000 HD 
HETATM   20  C   UNL     1      -5.402   7.467  67.848  1.00  0.00    -0.026 C  
HETATM   21  C   UNL     1     -10.607  10.807  69.850  1.00  0.00    -0.130 C  
ENDROOT
BRANCH  12  22
HETATM   22  O   UNL     1      -9.129  10.954  65.470  1.00  0.00    -0.192 OA 
BRANCH  22  23
HETATM   23  C   UNL     1     -10.242  11.148  64.704  1.00  0.00    -0.317 C  
HETATM   24  O   UNL     1     -10.381  10.778  63.546  1.00  0.00    -0.312 OA 
BRANCH  23  25
HETATM   25  C   UNL     1     -11.343  11.783  65.513  1.00  0.00    -0.223 C  
BRANCH  25  26
HETATM   26  S   UNL     1     -12.011  13.248  64.674  1.00  0.00    -0.419 SA 
BRANCH  26  27
HETATM   27  C   UNL     1     -11.120  14.589  65.558  1.00  0.00    -0.339 C  
HETATM   28  C   UNL     1     -11.131  14.375  67.076  1.00  0.00    -0.317 C  
HETATM   29  C   UNL     1     -10.280  15.432  67.778  1.00  0.00    -0.241 C  
HETATM   30  C   UNL     1     -10.752  16.846  67.422  1.00  0.00    -0.241 C  
HETATM   31  N   UNL     1      -9.899  17.840  68.066  1.00  0.00    -0.302 NA 
HETATM   32  C   UNL     1     -10.758  17.065  65.906  1.00  0.00    -0.140 C  
HETATM   33  C   UNL     1     -11.607  16.008  65.193  1.00  0.00     0.192 C  
HETATM   34  H2  UNL     1      -8.914  17.699  67.841  1.00  0.00     0.000 HD 
HETATM   35  H1  UNL     1     -10.213  18.781  67.829  1.00  0.00     0.000 HD 
HETATM   36  O   UNL     1     -11.540  16.252  63.788  1.00  0.00    -1.539 OA 
HETATM   37  H   UNL     1     -11.840  17.125  63.564  1.00  0.00     0.000 HD 
ENDBRANCH  26  27
ENDBRANCH  25  26
ENDBRANCH  23  25
ENDBRANCH  22  23
ENDBRANCH  12  22
BRANCH  17  38
HETATM   38  C   UNL     1     -10.091   8.675  70.035  1.00  0.00    -0.195 C  
HETATM   39  C   UNL     1     -11.245   8.134  70.396  1.00  0.00    -0.221 C  
ENDBRANCH  17  38
TORSDOF 6
ENDMDL
MODEL       95
REMARK 921   NORMALIZED FREE ENERGY PREDICTED BY IDOCK:   -4.70 KCAL/MOL
REMARK 922        TOTAL FREE ENERGY PREDICTED BY IDOCK:   -7.58 KCAL/MOL
REMARK 923 INTER-LIGAND FREE ENERGY PREDICTED BY IDOCK:   -6.09 KCAL/MOL
REMARK 924 INTRA-LIGAND FREE ENERGY PREDICTED BY IDOCK:   -1.49 KCAL/MOL
REMARK 927      BINDING AFFINITY PREDICTED BY RF-SCORE:    0.00 PKD
ROOT
HETATM    1  C   UNL     1      -9.325   5.786  70.693  1.00  0.00    -0.186 C  
HETATM    2  C   UNL     1      -8.144   4.711  69.478  1.00  0.00    -0.065 C  
HETATM    3  C   UNL     1      -6.748   3.976  70.615  1.00  0.00    -0.032 C  
HETATM    4  O   UNL     1      -8.269   4.554  68.270  1.00  0.00    -0.089 OA 
HETATM    5  C   UNL     1      -7.027   4.744  72.430  1.00  0.00    -0.070 C  
HETATM    6  C   UNL     1      -8.751   5.547  72.365  1.00  0.00    -0.128 C  
HETATM    7  C   UNL     1      -9.939   5.128  73.252  1.00  0.00    -0.182 C  
HETATM    8  C   UNL     1     -11.354   5.425  72.622  1.00  0.00    -0.327 C  
HETATM    9  C   UNL     1     -11.473   6.717  71.776  1.00  0.00    -0.320 C  
HETATM   10  C   UNL     1     -11.266   7.870  72.790  1.00  0.00    -0.466 C  
HETATM   11  C   UNL     1     -10.576   6.680  70.456  1.00  0.00    -0.270 C  
HETATM   12  C   UNL     1     -10.099   8.193  70.150  1.00  0.00    -0.194 C  
HETATM   13  C   UNL     1     -11.296   6.099  69.228  1.00  0.00    -0.361 C  
HETATM   14  C   UNL     1      -8.593   8.403  69.912  1.00  0.00    -0.131 C  
HETATM   15  O   UNL     1      -5.705   6.150  70.724  1.00  0.00    -0.017 OA 
HETATM   16  C   UNL     1      -8.422   4.674  71.395  1.00  0.00    -0.113 C  
HETATM   17  C   UNL     1      -7.466   7.944  71.059  1.00  0.00    -0.073 C  
HETATM   18  C   UNL     1      -7.157   6.213  70.690  1.00  0.00    -0.068 C  
HETATM   19  H   UNL     1      -5.541   5.235  70.530  1.00  0.00     0.000 HD 
HETATM   20  C   UNL     1      -9.671   3.516  70.785  1.00  0.00    -0.207 C  
HETATM   21  C   UNL     1      -6.593   9.239  70.909  1.00  0.00    -0.089 C  
ENDROOT
BRANCH  12  22
HETATM   22  O   UNL     1     -10.776   8.740  69.000  1.00  0.00    -0.203 OA 
BRANCH  22  23
HETATM   23  C   UNL     1     -11.126  10.058  69.060  1.00  0.00    -0.180 C  
HETATM   24  O   UNL     1     -11.567  10.632  70.047  1.00  0.00    -0.271 OA 
BRANCH  23  25
HETATM   25  C   UNL     1     -10.785  10.760  67.771  1.00  0.00    -0.251 C  
BRANCH  25  26
HETATM   26  S   UNL     1      -9.100  11.434  67.817  1.00  0.00    -0.163 SA 
BRANCH  26  27
HETATM   27  C   UNL     1      -8.414  10.758  66.253  1.00  0.00    -0.161 C  
HETATM   28  C   UNL     1      -8.934   9.344  65.970  1.00  0.00    -0.205 C  
HETATM   29  C   UNL     1      -8.450   8.853  64.605  1.00  0.00    -0.185 C  
HETATM   30  C   UNL     1      -6.921   8.903  64.512  1.00  0.00    -0.085 C  
HETATM   31  N   UNL     1      -6.482   8.474  63.187  1.00  0.00    -0.086 NA 
HETATM   32  C   UNL     1      -6.391  10.310  64.808  1.00  0.00    -0.114 C  
HETATM   33  C   UNL     1      -6.873  10.811  66.173  1.00  0.00    -0.126 C  
HETATM   34  H2  UNL     1      -6.927   9.015  62.445  1.00  0.00     0.000 HD 
HETATM   35  H1  UNL     1      -5.464   8.508  63.125  1.00  0.00     0.000 HD 
HETATM   36  O   UNL     1      -6.374  12.134  66.367  1.00  0.00    -0.446 OA 
HETATM   37  H   UNL     1      -5.425  12.166  66.318  1.00  0.00     0.000 HD 
ENDBRANCH  26  27
ENDBRANCH  25  26
ENDBRANCH  23  25
ENDBRANCH  22  23
ENDBRANCH  12  22
BRANCH  17  38
HETATM   38  C   UNL     1      -7.069   7.812  72.516  1.00  0.00    -0.089 C  
HETATM   39  C   UNL     1      -6.430   8.449  73.486  1.00  0.00    -0.130 C  
ENDBRANCH  17  38
TORSDOF 6
ENDMDL
MODEL       96
REMARK 921   NORMALIZED FREE ENERGY PREDICTED BY IDOCK:   -4.66 KCAL/MOL
REMARK 922        TOTAL FREE ENERGY PREDICTED BY IDOCK:   -7.53 KCAL/MOL
REMARK 923 INTER-LIGAND FREE ENERGY PREDICTED BY IDOCK:   -6.70 KCAL/MOL
REMARK 924 INTRA-LIGAND FREE ENERGY PREDICTED BY IDOCK:   -0.82 KCAL/MOL
REMARK 927      BINDING AFFINITY PREDICTED BY RF-SCORE:    0.00 PKD
ROOT
HETATM    1  C   UNL     1      -9.831  14.513  67.245  1.00  0.00    -0.236 C  
HETATM    2  C   UNL     1     -11.106  15.672  66.215  1.00  0.00    -0.127 C  
HETATM    3  C   UNL     1     -11.133  17.380  67.144  1.00  0.00     0.195 C  
HETATM    4  O   UNL     1     -11.742  15.368  65.214  1.00  0.00    -0.142 OA 
HETATM    5  C   UNL     1     -10.014  17.161  68.775  1.00  0.00    -0.315 C  
HETATM    6  C   UNL     1      -9.092  15.516  68.522  1.00  0.00    -0.196 C  
HETATM    7  C   UNL     1      -7.559  15.383  68.446  1.00  0.00    -0.116 C  
HETATM    8  C   UNL     1      -7.059  14.138  67.616  1.00  0.00    -0.199 C  
HETATM    9  C   UNL     1      -7.916  12.852  67.719  1.00  0.00    -0.162 C  
HETATM   10  C   UNL     1      -7.771  12.401  69.194  1.00  0.00     0.286 C  
HETATM   11  C   UNL     1      -9.380  13.031  67.107  1.00  0.00    -0.230 C  
HETATM   12  C   UNL     1     -10.380  12.089  67.957  1.00  0.00    -0.195 C  
HETATM   13  C   UNL     1      -9.478  12.687  65.612  1.00  0.00     0.013 C  
HETATM   14  C   UNL     1     -11.657  12.756  68.499  1.00  0.00    -0.358 C  
HETATM   15  O   UNL     1     -12.471  16.397  68.896  1.00  0.00    -0.064 OA 
HETATM   16  C   UNL     1      -9.673  16.088  67.451  1.00  0.00    -0.232 C  
HETATM   17  C   UNL     1     -11.574  14.100  69.490  1.00  0.00    -0.349 C  
HETATM   18  C   UNL     1     -11.491  15.478  68.340  1.00  0.00    -0.363 C  
HETATM   19  H   UNL     1     -12.427  17.126  68.288  1.00  0.00     0.000 HD 
HETATM   20  C   UNL     1      -8.826  16.041  65.853  1.00  0.00    -0.191 C  
HETATM   21  C   UNL     1     -12.686  13.601  70.479  1.00  0.00    -0.260 C  
ENDROOT
BRANCH  12  22
HETATM   22  O   UNL     1     -10.809  10.945  67.191  1.00  0.00    -0.258 OA 
BRANCH  22  23
HETATM   23  C   UNL     1     -10.484   9.715  67.686  1.00  0.00    -0.261 C  
HETATM   24  O   UNL     1     -10.550   8.660  67.069  1.00  0.00    -0.294 OA 
BRANCH  23  25
HETATM   25  C   UNL     1      -9.911   9.833  69.074  1.00  0.00    -0.181 C  
BRANCH  25  26
HETATM   26  S   UNL     1     -11.096   9.258  70.323  1.00  0.00    -0.241 SA 
BRANCH  26  27
HETATM   27  C   UNL     1     -10.396   7.610  70.733  1.00  0.00    -0.203 C  
HETATM   28  C   UNL     1     -11.068   6.492  69.930  1.00  0.00    -0.430 C  
HETATM   29  C   UNL     1     -10.385   5.150  70.194  1.00  0.00    -0.340 C  
HETATM   30  C   UNL     1     -10.378   4.820  71.691  1.00  0.00    -0.145 C  
HETATM   31  N   UNL     1      -9.681   3.559  71.927  1.00  0.00    -0.155 NA 
HETATM   32  C   UNL     1      -9.720   5.941  72.504  1.00  0.00    -0.172 C  
HETATM   33  C   UNL     1     -10.397   7.290  72.243  1.00  0.00    -0.210 C  
HETATM   34  H2  UNL     1      -8.740   3.564  71.533  1.00  0.00     0.000 HD 
HETATM   35  H1  UNL     1      -9.676   3.340  72.923  1.00  0.00     0.000 HD 
HETATM   36  O   UNL     1      -9.714   8.287  73.002  1.00  0.00    -0.269 OA 
HETATM   37  H   UNL     1      -9.715   8.090  73.931  1.00  0.00     0.000 HD 
ENDBRANCH  26  27
ENDBRANCH  25  26
ENDBRANCH  23  25
ENDBRANCH  22  23
ENDBRANCH  12  22
BRANCH  17  38
HETATM   38  C   UNL     1     -10.881  14.855  70.607  1.00  0.00    -0.045 C  
HETATM   39  C   UNL     1     -11.098  15.381  71.803  1.00  0.00    -0.258 C  
ENDBRANCH  17  38
TORSDOF 6
ENDMDL
MODEL       97
REMARK 921   NORMALIZED FREE ENERGY PREDICTED BY IDOCK:   -4.65 KCAL/MOL
REMARK 922        TOTAL FREE ENERGY PREDICTED BY IDOCK:   -7.52 KCAL/MOL
REMARK 923 INTER-LIGAND FREE ENERGY PREDICTED BY IDOCK:   -7.12 KCAL/MOL
REMARK 924 INTRA-LIGAND FREE ENERGY PREDICTED BY IDOCK:   -0.41 KCAL/MOL
REMARK 927      BINDING AFFINITY PREDICTED BY RF-SCORE:    0.00 PKD
ROOT
HETATM    1  C   UNL     1      -8.842  15.333  68.168  1.00  0.00    -0.171 C  
HETATM    2  C   UNL     1      -6.974  15.683  67.525  1.00  0.00    -0.189 C  
HETATM    3  C   UNL     1      -6.791  17.617  67.461  1.00  0.00    -0.185 C  
HETATM    4  O   UNL     1      -6.124  14.852  67.227  1.00  0.00    -0.312 OA 
HETATM    5  C   UNL     1      -8.577  18.374  67.907  1.00  0.00    -0.285 C  
HETATM    6  C   UNL     1      -9.581  16.904  68.580  1.00  0.00    -0.265 C  
HETATM    7  C   UNL     1     -10.163  16.831  70.005  1.00  0.00     0.278 C  
HETATM    8  C   UNL     1     -10.357  15.363  70.548  1.00  0.00    -0.040 C  
HETATM    9  C   UNL     1     -10.784  14.295  69.511  1.00  0.00    -0.095 C  
HETATM   10  C   UNL     1     -12.206  14.722  69.071  1.00  0.00    -0.180 C  
HETATM   11  C   UNL     1      -9.674  14.038  68.392  1.00  0.00    -0.223 C  
HETATM   12  C   UNL     1     -10.443  13.655  67.024  1.00  0.00    -0.270 C  
HETATM   13  C   UNL     1      -8.666  12.935  68.754  1.00  0.00     0.173 C  
HETATM   14  C   UNL     1     -10.037  14.442  65.765  1.00  0.00    -0.361 C  
HETATM   15  O   UNL     1      -8.150  17.670  65.466  1.00  0.00    -0.335 OA 
HETATM   16  C   UNL     1      -8.243  16.774  68.500  1.00  0.00    -0.242 C  
HETATM   17  C   UNL     1     -10.133  16.111  65.723  1.00  0.00    -0.390 C  
HETATM   18  C   UNL     1      -8.565  16.650  66.414  1.00  0.00    -0.310 C  
HETATM   19  H   UNL     1      -7.321  17.956  65.832  1.00  0.00     0.000 HD 
HETATM   20  C   UNL     1      -7.355  15.915  69.820  1.00  0.00     0.036 C  
HETATM   21  C   UNL     1     -10.737  16.170  64.276  1.00  0.00     0.806 C  
ENDROOT
BRANCH  12  22
HETATM   22  O   UNL     1     -10.288  12.258  66.702  1.00  0.00    -0.213 OA 
BRANCH  22  23
HETATM   23  C   UNL     1     -11.217  11.400  67.215  1.00  0.00    -0.304 C  
HETATM   24  O   UNL     1     -12.323  11.717  67.632  1.00  0.00    -0.301 OA 
BRANCH  23  25
HETATM   25  C   UNL     1     -10.749   9.973  67.097  1.00  0.00    -0.212 C  
BRANCH  25  26
HETATM   26  S   UNL     1      -9.968   9.409  68.636  1.00  0.00    -0.179 SA 
BRANCH  26  27
HETATM   27  C   UNL     1     -11.436   9.244  69.728  1.00  0.00     0.087 C  
HETATM   28  C   UNL     1     -11.549  10.416  70.709  1.00  0.00    -0.450 C  
HETATM   29  C   UNL     1     -12.842  10.321  71.519  1.00  0.00    -0.557 C  
HETATM   30  C   UNL     1     -12.934   8.980  72.256  1.00  0.00    -0.424 C  
HETATM   31  N   UNL     1     -14.195   8.890  72.985  1.00  0.00    -1.158 NA 
HETATM   32  C   UNL     1     -12.806   7.802  71.285  1.00  0.00    -0.265 C  
HETATM   33  C   UNL     1     -11.515   7.891  70.467  1.00  0.00    -0.195 C  
HETATM   34  H2  UNL     1     -14.999   9.047  72.377  1.00  0.00     0.000 HD 
HETATM   35  H1  UNL     1     -14.256   7.998  73.475  1.00  0.00     0.000 HD 
HETATM   36  O   UNL     1     -11.479   6.786  69.564  1.00  0.00    -0.534 OA 
HETATM   37  H   UNL     1     -11.527   5.953  70.019  1.00  0.00     0.000 HD 
ENDBRANCH  26  27
ENDBRANCH  25  26
ENDBRANCH  23  25
ENDBRANCH  22  23
ENDBRANCH  12  22
BRANCH  17  38
HETATM   38  C   UNL     1     -10.859  17.385  66.107  1.00  0.00     0.040 C  
HETATM   39  C   UNL     1     -11.031  18.643  65.729  1.00  0.00     0.105 C  
ENDBRANCH  17  38
TORSDOF 6
ENDMDL
MODEL       98
REMARK 921   NORMALIZED FREE ENERGY PREDICTED BY IDOCK:   -4.64 KCAL/MOL
REMARK 922        TOTAL FREE ENERGY PREDICTED BY IDOCK:   -7.51 KCAL/MOL
REMARK 923 INTER-LIGAND FREE ENERGY PREDICTED BY IDOCK:   -5.52 KCAL/MOL
REMARK 924 INTRA-LIGAND FREE ENERGY PREDICTED BY IDOCK:   -1.99 KCAL/MOL
REMARK 927      BINDING AFFINITY PREDICTED BY RF-SCORE:    0.00 PKD
ROOT
HETATM    1  C   UNL     1      -8.788   6.359  71.247  1.00  0.00    -0.138 C  
HETATM    2  C   UNL     1      -7.606   4.850  71.843  1.00  0.00    -0.097 C  
HETATM    3  C   UNL     1      -6.644   5.516  73.396  1.00  0.00    -0.073 C  
HETATM    4  O   UNL     1      -7.503   3.742  71.332  1.00  0.00    -0.045 OA 
HETATM    5  C   UNL     1      -7.145   7.432  73.600  1.00  0.00    -0.095 C  
HETATM    6  C   UNL     1      -8.632   7.678  72.439  1.00  0.00    -0.162 C  
HETATM    7  C   UNL     1     -10.036   8.107  72.906  1.00  0.00    -0.349 C  
HETATM    8  C   UNL     1     -11.205   7.630  71.960  1.00  0.00    -0.317 C  
HETATM    9  C   UNL     1     -10.898   7.606  70.443  1.00  0.00    -0.252 C  
HETATM   10  C   UNL     1     -10.691   9.093  70.061  1.00  0.00    -0.254 C  
HETATM   11  C   UNL     1      -9.769   6.546  70.054  1.00  0.00    -0.178 C  
HETATM   12  C   UNL     1      -8.960   7.139  68.788  1.00  0.00    -0.128 C  
HETATM   13  C   UNL     1     -10.314   5.148  69.720  1.00  0.00    -0.332 C  
HETATM   14  C   UNL     1      -7.425   7.167  68.907  1.00  0.00    -0.099 C  
HETATM   15  O   UNL     1      -5.253   6.857  71.949  1.00  0.00    -0.027 OA 
HETATM   16  C   UNL     1      -8.280   6.419  72.759  1.00  0.00    -0.107 C  
HETATM   17  C   UNL     1      -6.671   7.969  70.165  1.00  0.00    -0.037 C  
HETATM   18  C   UNL     1      -6.627   6.752  71.485  1.00  0.00    -0.053 C  
HETATM   19  H   UNL     1      -5.229   6.213  72.648  1.00  0.00     0.000 HD 
HETATM   20  C   UNL     1      -9.571   5.188  73.064  1.00  0.00    -0.158 C  
HETATM   21  C   UNL     1      -5.556   8.606  69.263  1.00  0.00    -0.035 C  
ENDROOT
BRANCH  12  22
HETATM   22  O   UNL     1      -9.265   6.416  67.578  1.00  0.00    -0.115 OA 
BRANCH  22  23
HETATM   23  C   UNL     1      -9.218   7.122  66.411  1.00  0.00    -0.157 C  
HETATM   24  O   UNL     1      -8.823   6.692  65.335  1.00  0.00    -0.060 OA 
BRANCH  23  25
HETATM   25  C   UNL     1      -9.834   8.486  66.587  1.00  0.00    -0.272 C  
BRANCH  25  26
HETATM   26  S   UNL     1      -9.336   9.607  65.248  1.00  0.00    -0.260 SA 
BRANCH  26  27
HETATM   27  C   UNL     1      -8.691  11.031  66.212  1.00  0.00    -0.176 C  
HETATM   28  C   UNL     1      -8.527  10.685  67.696  1.00  0.00    -0.118 C  
HETATM   29  C   UNL     1      -7.872  11.841  68.453  1.00  0.00    -0.141 C  
HETATM   30  C   UNL     1      -8.671  13.138  68.278  1.00  0.00    -0.165 C  
HETATM   31  N   UNL     1      -8.006  14.238  68.968  1.00  0.00    -0.302 NA 
HETATM   32  C   UNL     1      -8.853  13.483  66.796  1.00  0.00    -0.146 C  
HETATM   33  C   UNL     1      -9.506  12.329  66.030  1.00  0.00    -0.189 C  
HETATM   34  H2  UNL     1      -7.036  14.344  68.669  1.00  0.00     0.000 HD 
HETATM   35  H1  UNL     1      -8.537  15.100  68.852  1.00  0.00     0.000 HD 
HETATM   36  O   UNL     1      -9.611  12.706  64.657  1.00  0.00    -0.498 OA 
HETATM   37  H   UNL     1     -10.113  13.505  64.545  1.00  0.00     0.000 HD 
ENDBRANCH  26  27
ENDBRANCH  25  26
ENDBRANCH  23  25
ENDBRANCH  22  23
ENDBRANCH  12  22
BRANCH  17  38
HETATM   38  C   UNL     1      -6.619   9.151  71.112  1.00  0.00    -0.088 C  
HETATM   39  C   UNL     1      -5.995  10.302  71.313  1.00  0.00     0.104 C  
ENDBRANCH  17  38
TORSDOF 6
ENDMDL
MODEL       99
REMARK 921   NORMALIZED FREE ENERGY PREDICTED BY IDOCK:   -4.63 KCAL/MOL
REMARK 922        TOTAL FREE ENERGY PREDICTED BY IDOCK:   -7.49 KCAL/MOL
REMARK 923 INTER-LIGAND FREE ENERGY PREDICTED BY IDOCK:   -7.59 KCAL/MOL
REMARK 924 INTRA-LIGAND FREE ENERGY PREDICTED BY IDOCK:    0.11 KCAL/MOL
REMARK 927      BINDING AFFINITY PREDICTED BY RF-SCORE:    0.00 PKD
ROOT
HETATM    1  C   UNL     1      -8.145   8.772  69.407  1.00  0.00    -0.106 C  
HETATM    2  C   UNL     1      -6.985   9.395  70.921  1.00  0.00    -0.093 C  
HETATM    3  C   UNL     1      -6.972   7.939  72.210  1.00  0.00    -0.076 C  
HETATM    4  O   UNL     1      -6.409  10.472  71.020  1.00  0.00    -0.340 OA 
HETATM    5  C   UNL     1      -8.232   6.559  71.524  1.00  0.00    -0.116 C  
HETATM    6  C   UNL     1      -8.602   7.078  69.731  1.00  0.00    -0.141 C  
HETATM    7  C   UNL     1      -8.275   6.220  68.494  1.00  0.00    -0.112 C  
HETATM    8  C   UNL     1      -8.052   7.051  67.172  1.00  0.00    -0.118 C  
HETATM    9  C   UNL     1      -8.933   8.312  66.995  1.00  0.00    -0.159 C  
HETATM   10  C   UNL     1     -10.376   7.767  66.854  1.00  0.00    -0.396 C  
HETATM   11  C   UNL     1      -8.636   9.436  68.089  1.00  0.00    -0.120 C  
HETATM   12  C   UNL     1     -10.021  10.218  68.371  1.00  0.00    -0.157 C  
HETATM   13  C   UNL     1      -7.543  10.436  67.677  1.00  0.00    -0.089 C  
HETATM   14  C   UNL     1     -10.437  10.366  69.845  1.00  0.00    -0.266 C  
HETATM   15  O   UNL     1      -9.219   8.518  72.874  1.00  0.00    -0.239 OA 
HETATM   16  C   UNL     1      -7.539   7.631  70.344  1.00  0.00    -0.088 C  
HETATM   17  C   UNL     1     -10.627   9.027  70.827  1.00  0.00    -0.300 C  
HETATM   18  C   UNL     1      -8.973   8.715  71.455  1.00  0.00    -0.234 C  
HETATM   19  H   UNL     1      -8.344   8.353  73.206  1.00  0.00     0.000 HD 
HETATM   20  C   UNL     1      -6.017   7.902  69.405  1.00  0.00    -0.033 C  
HETATM   21  C   UNL     1     -11.945   9.547  71.504  1.00  0.00    -0.475 C  
ENDROOT
BRANCH  12  22
HETATM   22  O   UNL     1     -10.002  11.548  67.815  1.00  0.00    -0.177 OA 
BRANCH  22  23
HETATM   23  C   UNL     1     -10.728  12.500  68.469  1.00  0.00    -0.239 C  
HETATM   24  O   UNL     1     -11.683  12.285  69.205  1.00  0.00    -0.287 OA 
BRANCH  23  25
HETATM   25  C   UNL     1     -10.127  13.866  68.263  1.00  0.00    -0.241 C  
BRANCH  25  26
HETATM   26  S   UNL     1      -9.834  14.195  66.502  1.00  0.00    -0.298 SA 
BRANCH  26  27
HETATM   27  C   UNL     1      -8.468  15.419  66.601  1.00  0.00    -0.260 C  
HETATM   28  C   UNL     1      -7.531  15.131  67.779  1.00  0.00    -0.179 C  
HETATM   29  C   UNL     1      -6.336  16.084  67.767  1.00  0.00    -0.166 C  
HETATM   30  C   UNL     1      -6.797  17.546  67.780  1.00  0.00    -0.174 C  
HETATM   31  N   UNL     1      -5.645  18.439  67.721  1.00  0.00    -0.159 NA 
HETATM   32  C   UNL     1      -7.747  17.840  66.614  1.00  0.00    -0.274 C  
HETATM   33  C   UNL     1      -8.946  16.887  66.617  1.00  0.00    -0.252 C  
HETATM   34  H2  UNL     1      -5.045  18.236  66.921  1.00  0.00     0.000 HD 
HETATM   35  H1  UNL     1      -5.952  19.412  67.729  1.00  0.00     0.000 HD 
HETATM   36  O   UNL     1      -9.765  17.194  65.489  1.00  0.00    -0.532 OA 
HETATM   37  H   UNL     1     -10.060  18.098  65.499  1.00  0.00     0.000 HD 
ENDBRANCH  26  27
ENDBRANCH  25  26
ENDBRANCH  23  25
ENDBRANCH  22  23
ENDBRANCH  12  22
BRANCH  17  38
HETATM   38  C   UNL     1     -11.075   7.588  70.998  1.00  0.00    -0.274 C  
HETATM   39  C   UNL     1     -12.145   6.812  70.918  1.00  0.00    -0.421 C  
ENDBRANCH  17  38
TORSDOF 6
ENDMDL
MODEL      100
REMARK 921   NORMALIZED FREE ENERGY PREDICTED BY IDOCK:   -4.62 KCAL/MOL
REMARK 922        TOTAL FREE ENERGY PREDICTED BY IDOCK:   -7.48 KCAL/MOL
REMARK 923 INTER-LIGAND FREE ENERGY PREDICTED BY IDOCK:   -6.58 KCAL/MOL
REMARK 924 INTRA-LIGAND FREE ENERGY PREDICTED BY IDOCK:   -0.90 KCAL/MOL
REMARK 927      BINDING AFFINITY PREDICTED BY RF-SCORE:    0.00 PKD
ROOT
HETATM    1  C   UNL     1      -8.521   8.585  69.526  1.00  0.00    -0.127 C  
HETATM    2  C   UNL     1      -7.026   9.522  70.484  1.00  0.00    -0.123 C  
HETATM    3  C   UNL     1      -5.885   8.113  71.186  1.00  0.00    -0.034 C  
HETATM    4  O   UNL     1      -6.867  10.730  70.608  1.00  0.00    -0.257 OA 
HETATM    5  C   UNL     1      -6.790   6.388  70.777  1.00  0.00    -0.063 C  
HETATM    6  C   UNL     1      -8.169   6.836  69.545  1.00  0.00    -0.131 C  
HETATM    7  C   UNL     1      -8.262   6.286  68.109  1.00  0.00    -0.115 C  
HETATM    8  C   UNL     1      -9.031   7.229  67.104  1.00  0.00    -0.132 C  
HETATM    9  C   UNL     1     -10.232   8.017  67.682  1.00  0.00    -0.291 C  
HETATM   10  C   UNL     1     -11.275   6.932  68.047  1.00  0.00    -0.087 C  
HETATM   11  C   UNL     1      -9.801   9.079  68.794  1.00  0.00    -0.180 C  
HETATM   12  C   UNL     1     -11.013   9.189  69.856  1.00  0.00    -0.204 C  
HETATM   13  C   UNL     1      -9.467  10.471  68.233  1.00  0.00    -0.158 C  
HETATM   14  C   UNL     1     -10.639   9.041  71.342  1.00  0.00    -0.393 C  
HETATM   15  O   UNL     1      -7.522   7.652  72.898  1.00  0.00    -0.085 OA 
HETATM   16  C   UNL     1      -7.190   7.735  69.753  1.00  0.00    -0.067 C  
HETATM   17  C   UNL     1      -9.854   7.676  71.902  1.00  0.00    -0.205 C  
HETATM   18  C   UNL     1      -8.115   8.037  71.629  1.00  0.00    -0.114 C  
HETATM   19  H   UNL     1      -6.602   7.842  72.754  1.00  0.00     0.000 HD 
HETATM   20  C   UNL     1      -6.546   8.685  68.354  1.00  0.00    -0.060 C  
HETATM   21  C   UNL     1     -10.725   7.548  73.201  1.00  0.00    -0.452 C  
ENDROOT
BRANCH  12  22
HETATM   22  O   UNL     1     -11.714  10.443  69.733  1.00  0.00    -0.253 OA 
BRANCH  22  23
HETATM   23  C   UNL     1     -12.686  10.699  70.656  1.00  0.00    -0.359 C  
HETATM   24  O   UNL     1     -13.648   9.981  70.893  1.00  0.00    -0.297 OA 
BRANCH  23  25
HETATM   25  C   UNL     1     -12.359  11.940  71.445  1.00  0.00    -0.015 C  
BRANCH  25  26
HETATM   26  S   UNL     1     -13.558  13.263  71.114  1.00  0.00     0.470 SA 
BRANCH  26  27
HETATM   27  C   UNL     1     -12.500  14.476  70.230  1.00  0.00    -0.348 C  
HETATM   28  C   UNL     1     -11.632  13.802  69.163  1.00  0.00    -0.363 C  
HETATM   29  C   UNL     1     -10.856  14.844  68.358  1.00  0.00    -0.252 C  
HETATM   30  C   UNL     1     -10.005  15.729  69.276  1.00  0.00    -0.262 C  
HETATM   31  N   UNL     1      -9.309  16.746  68.494  1.00  0.00    -0.238 NA 
HETATM   32  C   UNL     1     -10.863  16.396  70.356  1.00  0.00    -0.149 C  
HETATM   33  C   UNL     1     -11.647  15.358  71.166  1.00  0.00    -0.377 C  
HETATM   34  H2  UNL     1      -9.953  17.295  67.925  1.00  0.00     0.000 HD 
HETATM   35  H1  UNL     1      -8.743  17.334  69.106  1.00  0.00     0.000 HD 
HETATM   36  O   UNL     1     -12.446  16.049  72.126  1.00  0.00    -0.451 OA 
HETATM   37  H   UNL     1     -11.920  16.592  72.702  1.00  0.00     0.000 HD 
ENDBRANCH  26  27
ENDBRANCH  25  26
ENDBRANCH  23  25
ENDBRANCH  22  23
ENDBRANCH  12  22
BRANCH  17  38
HETATM   38  C   UNL     1      -9.656   6.174  71.854  1.00  0.00    -0.166 C  
HETATM   39  C   UNL     1     -10.094   5.045  72.392  1.00  0.00    -0.238 C  
ENDBRANCH  17  38
TORSDOF 6
ENDMDL
MODEL      101
REMARK 921   NORMALIZED FREE ENERGY PREDICTED BY IDOCK:   -4.62 KCAL/MOL
REMARK 922        TOTAL FREE ENERGY PREDICTED BY IDOCK:   -7.47 KCAL/MOL
REMARK 923 INTER-LIGAND FREE ENERGY PREDICTED BY IDOCK:   -5.78 KCAL/MOL
REMARK 924 INTRA-LIGAND FREE ENERGY PREDICTED BY IDOCK:   -1.69 KCAL/MOL
REMARK 927      BINDING AFFINITY PREDICTED BY RF-SCORE:    0.00 PKD
ROOT
HETATM    1  C   UNL     1      -8.020   9.414  67.713  1.00  0.00    -0.096 C  
HETATM    2  C   UNL     1      -9.175   9.932  66.155  1.00  0.00    -0.168 C  
HETATM    3  C   UNL     1     -10.313  11.371  66.798  1.00  0.00    -0.271 C  
HETATM    4  O   UNL     1      -9.171   9.440  65.033  1.00  0.00    -0.241 OA 
HETATM    5  C   UNL     1      -9.933  11.575  68.741  1.00  0.00    -0.169 C  
HETATM    6  C   UNL     1      -8.357  10.553  69.044  1.00  0.00    -0.154 C  
HETATM    7  C   UNL     1      -7.027  11.139  69.556  1.00  0.00    -0.111 C  
HETATM    8  C   UNL     1      -5.750  10.319  69.124  1.00  0.00    -0.037 C  
HETATM    9  C   UNL     1      -5.911   8.781  69.055  1.00  0.00    -0.040 C  
HETATM   10  C   UNL     1      -6.156   8.345  70.521  1.00  0.00    -0.032 C  
HETATM   11  C   UNL     1      -6.942   8.314  67.929  1.00  0.00    -0.078 C  
HETATM   12  C   UNL     1      -7.656   6.963  68.454  1.00  0.00    -0.111 C  
HETATM   13  C   UNL     1      -6.297   8.066  66.555  1.00  0.00    -0.050 C  
HETATM   14  C   UNL     1      -9.194   6.936  68.402  1.00  0.00    -0.124 C  
HETATM   15  O   UNL     1     -11.627   9.768  68.035  1.00  0.00    -0.535 OA 
HETATM   16  C   UNL     1      -8.672  10.869  67.774  1.00  0.00    -0.129 C  
HETATM   17  C   UNL     1     -10.105   8.099  69.186  1.00  0.00    -0.204 C  
HETATM   18  C   UNL     1     -10.212   9.438  67.994  1.00  0.00    -0.204 C  
HETATM   19  H   UNL     1     -11.684  10.477  67.404  1.00  0.00     0.000 HD 
HETATM   20  C   UNL     1      -7.355  11.324  66.621  1.00  0.00    -0.131 C  
HETATM   21  C   UNL     1     -11.161   7.081  69.746  1.00  0.00    -0.278 C  
ENDROOT
BRANCH  12  22
HETATM   22  O   UNL     1      -7.201   5.805  67.725  1.00  0.00    -0.072 OA 
BRANCH  22  23
HETATM   23  C   UNL     1      -6.701   4.771  68.462  1.00  0.00    -0.050 C  
HETATM   24  O   UNL     1      -6.697   4.706  69.684  1.00  0.00    -0.041 OA 
BRANCH  23  25
HETATM   25  C   UNL     1      -6.252   3.645  67.567  1.00  0.00    -0.036 C  
BRANCH  25  26
HETATM   26  S   UNL     1      -6.335   4.125  65.818  1.00  0.00    -0.033 SA 
BRANCH  26  27
HETATM   27  C   UNL     1      -7.996   3.485  65.362  1.00  0.00    -0.090 C  
HETATM   28  C   UNL     1      -7.914   2.087  64.739  1.00  0.00    -0.074 C  
HETATM   29  C   UNL     1      -9.313   1.526  64.485  1.00  0.00    -0.123 C  
HETATM   30  C   UNL     1     -10.135   2.472  63.601  1.00  0.00    -0.151 C  
HETATM   31  N   UNL     1     -11.481   1.941  63.409  1.00  0.00    -0.564 NA 
HETATM   32  C   UNL     1     -10.209   3.876  64.210  1.00  0.00    -0.234 C  
HETATM   33  C   UNL     1      -8.812   4.445  64.471  1.00  0.00    -0.148 C  
HETATM   34  H2  UNL     1     -11.945   1.748  64.296  1.00  0.00     0.000 HD 
HETATM   35  H1  UNL     1     -12.027   2.570  62.821  1.00  0.00     0.000 HD 
HETATM   36  O   UNL     1      -8.957   5.734  65.066  1.00  0.00    -0.348 OA 
HETATM   37  H   UNL     1      -9.459   6.326  64.517  1.00  0.00     0.000 HD 
ENDBRANCH  26  27
ENDBRANCH  25  26
ENDBRANCH  23  25
ENDBRANCH  22  23
ENDBRANCH  12  22
BRANCH  17  38
HETATM   38  C   UNL     1     -10.307   9.008  70.382  1.00  0.00    -0.253 C  
HETATM   39  C   UNL     1     -10.357   8.997  71.706  1.00  0.00    -0.407 C  
ENDBRANCH  17  38
TORSDOF 6
ENDMDL
MODEL      102
REMARK 921   NORMALIZED FREE ENERGY PREDICTED BY IDOCK:   -4.61 KCAL/MOL
REMARK 922        TOTAL FREE ENERGY PREDICTED BY IDOCK:   -7.46 KCAL/MOL
REMARK 923 INTER-LIGAND FREE ENERGY PREDICTED BY IDOCK:   -6.37 KCAL/MOL
REMARK 924 INTRA-LIGAND FREE ENERGY PREDICTED BY IDOCK:   -1.09 KCAL/MOL
REMARK 927      BINDING AFFINITY PREDICTED BY RF-SCORE:    0.00 PKD
ROOT
HETATM    1  C   UNL     1      -9.757  12.887  67.314  1.00  0.00    -0.220 C  
HETATM    2  C   UNL     1      -9.024  14.694  66.841  1.00  0.00    -0.253 C  
HETATM    3  C   UNL     1     -10.564  15.780  66.363  1.00  0.00    -0.307 C  
HETATM    4  O   UNL     1      -7.850  15.042  66.844  1.00  0.00    -0.179 OA 
HETATM    5  C   UNL     1     -12.148  14.574  66.406  1.00  0.00    -0.320 C  
HETATM    6  C   UNL     1     -11.538  12.991  67.268  1.00  0.00    -0.409 C  
HETATM    7  C   UNL     1     -12.111  12.447  68.590  1.00  0.00    -0.139 C  
HETATM    8  C   UNL     1     -11.095  11.575  69.424  1.00  0.00    -0.287 C  
HETATM    9  C   UNL     1     -10.120  10.688  68.612  1.00  0.00    -0.194 C  
HETATM   10  C   UNL     1     -11.027   9.642  67.917  1.00  0.00    -0.205 C  
HETATM   11  C   UNL     1      -9.101  11.537  67.724  1.00  0.00    -0.165 C  
HETATM   12  C   UNL     1      -8.781  10.676  66.395  1.00  0.00    -0.149 C  
HETATM   13  C   UNL     1      -7.792  11.895  68.445  1.00  0.00    -0.141 C  
HETATM   14  C   UNL     1      -8.937  11.407  65.049  1.00  0.00     0.060 C  
HETATM   15  O   UNL     1     -10.725  14.609  64.259  1.00  0.00    -0.552 OA 
HETATM   16  C   UNL     1     -10.788  14.103  67.381  1.00  0.00    -0.291 C  
HETATM   17  C   UNL     1     -10.386  12.122  64.619  1.00  0.00    -0.328 C  
HETATM   18  C   UNL     1     -10.295  13.757  65.355  1.00  0.00    -0.333 C  
HETATM   19  H   UNL     1     -10.678  15.474  64.648  1.00  0.00     0.000 HD 
HETATM   20  C   UNL     1      -9.987  14.475  68.960  1.00  0.00    -0.162 C  
HETATM   21  C   UNL     1     -10.344  11.616  63.133  1.00  0.00    -0.383 C  
ENDROOT
BRANCH  12  22
HETATM   22  O   UNL     1      -7.441  10.144  66.418  1.00  0.00    -0.100 OA 
BRANCH  22  23
HETATM   23  C   UNL     1      -7.300   8.817  66.133  1.00  0.00    -0.086 C  
HETATM   24  O   UNL     1      -8.179   8.087  65.694  1.00  0.00    -0.119 OA 
BRANCH  23  25
HETATM   25  C   UNL     1      -5.870   8.379  66.318  1.00  0.00    -0.044 C  
BRANCH  25  26
HETATM   26  S   UNL     1      -5.419   8.339  68.076  1.00  0.00    -0.035 SA 
BRANCH  26  27
HETATM   27  C   UNL     1      -5.752   6.578  68.478  1.00  0.00    -0.016 C  
HETATM   28  C   UNL     1      -5.868   5.718  67.214  1.00  0.00    -0.017 C  
HETATM   29  C   UNL     1      -6.019   4.241  67.576  1.00  0.00    -0.024 C  
HETATM   30  C   UNL     1      -7.222   4.020  68.501  1.00  0.00    -0.055 C  
HETATM   31  N   UNL     1      -7.321   2.611  68.871  1.00  0.00    -0.047 NA 
HETATM   32  C   UNL     1      -7.121   4.886  69.760  1.00  0.00    -0.054 C  
HETATM   33  C   UNL     1      -6.967   6.368  69.407  1.00  0.00    -0.071 C  
HETATM   34  H2  UNL     1      -6.455   2.264  69.283  1.00  0.00     0.000 HD 
HETATM   35  H1  UNL     1      -8.121   2.464  69.487  1.00  0.00     0.000 HD 
HETATM   36  O   UNL     1      -6.845   7.108  70.622  1.00  0.00    -0.052 OA 
HETATM   37  H   UNL     1      -7.593   6.979  71.193  1.00  0.00     0.000 HD 
ENDBRANCH  26  27
ENDBRANCH  25  26
ENDBRANCH  23  25
ENDBRANCH  22  23
ENDBRANCH  12  22
BRANCH  17  38
HETATM   38  C   UNL     1     -11.902  12.095  64.614  1.00  0.00    -0.400 C  
HETATM   39  C   UNL     1     -12.940  11.906  63.813  1.00  0.00    -0.290 C  
ENDBRANCH  17  38
TORSDOF 6
ENDMDL
MODEL      103
REMARK 921   NORMALIZED FREE ENERGY PREDICTED BY IDOCK:   -4.55 KCAL/MOL
REMARK 922        TOTAL FREE ENERGY PREDICTED BY IDOCK:   -7.38 KCAL/MOL
REMARK 923 INTER-LIGAND FREE ENERGY PREDICTED BY IDOCK:   -5.91 KCAL/MOL
REMARK 924 INTRA-LIGAND FREE ENERGY PREDICTED BY IDOCK:   -1.47 KCAL/MOL
REMARK 927      BINDING AFFINITY PREDICTED BY RF-SCORE:    0.00 PKD
ROOT
HETATM    1  C   UNL     1      -7.942   9.047  67.859  1.00  0.00    -0.102 C  
HETATM    2  C   UNL     1      -8.196   7.079  67.560  1.00  0.00    -0.116 C  
HETATM    3  C   UNL     1      -9.965   6.889  66.775  1.00  0.00    -0.248 C  
HETATM    4  O   UNL     1      -7.407   6.181  67.823  1.00  0.00    -0.080 OA 
HETATM    5  C   UNL     1     -10.784   8.703  66.767  1.00  0.00    -0.086 C  
HETATM    6  C   UNL     1      -9.351   9.892  67.163  1.00  0.00    -0.170 C  
HETATM    7  C   UNL     1      -8.858  11.003  66.216  1.00  0.00    -0.187 C  
HETATM    8  C   UNL     1      -7.345  11.399  66.418  1.00  0.00    -0.006 C  
HETATM    9  C   UNL     1      -6.812  11.366  67.871  1.00  0.00    -0.072 C  
HETATM   10  C   UNL     1      -7.593  12.487  68.601  1.00  0.00    -0.080 C  
HETATM   11  C   UNL     1      -6.806   9.897  68.497  1.00  0.00    -0.059 C  
HETATM   12  C   UNL     1      -7.076  10.043  70.083  1.00  0.00    -0.154 C  
HETATM   13  C   UNL     1      -5.500   9.121  68.256  1.00  0.00    -0.038 C  
HETATM   14  C   UNL     1      -8.192   9.161  70.672  1.00  0.00    -0.220 C  
HETATM   15  O   UNL     1     -10.959   7.320  68.933  1.00  0.00    -0.397 OA 
HETATM   16  C   UNL     1      -9.047   8.637  66.783  1.00  0.00    -0.183 C  
HETATM   17  C   UNL     1      -9.753   9.233  70.079  1.00  0.00    -0.234 C  
HETATM   18  C   UNL     1      -9.744   8.083  68.700  1.00  0.00    -0.159 C  
HETATM   19  H   UNL     1     -10.954   6.711  68.203  1.00  0.00     0.000 HD 
HETATM   20  C   UNL     1      -7.634   8.361  65.687  1.00  0.00    -0.089 C  
HETATM   21  C   UNL     1     -10.432   9.198  71.494  1.00  0.00    -0.422 C  
ENDROOT
BRANCH  12  22
HETATM   22  O   UNL     1      -5.887   9.768  70.851  1.00  0.00    -0.070 OA 
BRANCH  22  23
HETATM   23  C   UNL     1      -5.773   8.516  71.383  1.00  0.00    -0.038 C  
HETATM   24  O   UNL     1      -5.496   7.501  70.758  1.00  0.00    -0.026 OA 
BRANCH  23  25
HETATM   25  C   UNL     1      -5.919   8.557  72.882  1.00  0.00    -0.079 C  
BRANCH  25  26
HETATM   26  S   UNL     1      -6.244   6.902  73.554  1.00  0.00    -0.063 SA 
BRANCH  26  27
HETATM   27  C   UNL     1      -8.040   6.734  73.208  1.00  0.00    -0.106 C  
HETATM   28  C   UNL     1      -8.856   6.588  74.497  1.00  0.00    -0.187 C  
HETATM   29  C   UNL     1     -10.354   6.577  74.192  1.00  0.00    -0.351 C  
HETATM   30  C   UNL     1     -10.704   5.468  73.193  1.00  0.00    -0.268 C  
HETATM   31  N   UNL     1     -12.129   5.503  72.880  1.00  0.00    -0.510 NA 
HETATM   32  C   UNL     1      -9.882   5.597  71.907  1.00  0.00    -0.203 C  
HETATM   33  C   UNL     1      -8.380   5.612  72.204  1.00  0.00    -0.115 C  
HETATM   34  H2  UNL     1     -12.424   6.421  72.548  1.00  0.00     0.000 HD 
HETATM   35  H1  UNL     1     -12.363   4.765  72.215  1.00  0.00     0.000 HD 
HETATM   36  O   UNL     1      -7.680   5.769  70.970  1.00  0.00    -0.096 OA 
HETATM   37  H   UNL     1      -7.890   5.078  70.352  1.00  0.00     0.000 HD 
ENDBRANCH  26  27
ENDBRANCH  25  26
ENDBRANCH  23  25
ENDBRANCH  22  23
ENDBRANCH  12  22
BRANCH  17  38
HETATM   38  C   UNL     1     -10.899  10.055  69.520  1.00  0.00    -0.283 C  
HETATM   39  C   UNL     1     -11.617  11.142  69.758  1.00  0.00    -0.409 C  
ENDBRANCH  17  38
TORSDOF 6
ENDMDL
MODEL      104
REMARK 921   NORMALIZED FREE ENERGY PREDICTED BY IDOCK:   -4.53 KCAL/MOL
REMARK 922        TOTAL FREE ENERGY PREDICTED BY IDOCK:   -7.36 KCAL/MOL
REMARK 923 INTER-LIGAND FREE ENERGY PREDICTED BY IDOCK:   -6.28 KCAL/MOL
REMARK 924 INTRA-LIGAND FREE ENERGY PREDICTED BY IDOCK:   -1.07 KCAL/MOL
REMARK 927      BINDING AFFINITY PREDICTED BY RF-SCORE:    0.00 PKD
ROOT
HETATM    1  C   UNL     1      -9.603  13.403  67.664  1.00  0.00    -0.219 C  
HETATM    2  C   UNL     1      -8.088  14.593  67.100  1.00  0.00    -0.185 C  
HETATM    3  C   UNL     1      -8.913  16.250  66.505  1.00  0.00    -0.313 C  
HETATM    4  O   UNL     1      -6.892  14.331  67.120  1.00  0.00    -0.177 OA 
HETATM    5  C   UNL     1     -10.881  15.965  66.573  1.00  0.00    -0.198 C  
HETATM    6  C   UNL     1     -11.111  14.350  67.553  1.00  0.00    -0.312 C  
HETATM    7  C   UNL     1     -11.872  14.246  68.889  1.00  0.00    -0.372 C  
HETATM    8  C   UNL     1     -11.403  13.054  69.809  1.00  0.00    -0.114 C  
HETATM    9  C   UNL     1     -10.981  11.751  69.086  1.00  0.00    -0.261 C  
HETATM   10  C   UNL     1     -12.282  11.227  68.431  1.00  0.00     0.106 C  
HETATM   11  C   UNL     1      -9.680  11.938  68.179  1.00  0.00    -0.194 C  
HETATM   12  C   UNL     1      -9.819  10.937  66.919  1.00  0.00    -0.189 C  
HETATM   13  C   UNL     1      -8.359  11.670  68.918  1.00  0.00     0.034 C  
HETATM   14  C   UNL     1      -9.606  11.555  65.525  1.00  0.00    -0.252 C  
HETATM   15  O   UNL     1      -9.625  15.156  64.475  1.00  0.00    -0.130 OA 
HETATM   16  C   UNL     1      -9.917  14.967  67.620  1.00  0.00    -0.225 C  
HETATM   17  C   UNL     1     -10.530  12.847  65.004  1.00  0.00    -0.337 C  
HETATM   18  C   UNL     1      -9.657  14.283  65.637  1.00  0.00    -0.104 C  
HETATM   19  H   UNL     1      -9.164  15.916  64.810  1.00  0.00     0.000 HD 
HETATM   20  C   UNL     1      -9.032  15.017  69.197  1.00  0.00    -0.186 C  
HETATM   21  C   UNL     1     -10.742  12.279  63.555  1.00  0.00    -0.497 C  
ENDROOT
BRANCH  12  22
HETATM   22  O   UNL     1      -8.904   9.827  67.019  1.00  0.00    -0.133 OA 
BRANCH  22  23
HETATM   23  C   UNL     1      -9.248   8.683  66.360  1.00  0.00    -0.193 C  
HETATM   24  O   UNL     1     -10.388   8.259  66.219  1.00  0.00    -0.134 OA 
BRANCH  23  25
HETATM   25  C   UNL     1      -8.040   8.055  65.714  1.00  0.00    -0.121 C  
BRANCH  25  26
HETATM   26  S   UNL     1      -7.802   6.349  66.288  1.00  0.00    -0.104 SA 
BRANCH  26  27
HETATM   27  C   UNL     1      -8.042   6.556  68.097  1.00  0.00    -0.113 C  
HETATM   28  C   UNL     1      -6.736   6.346  68.871  1.00  0.00    -0.060 C  
HETATM   29  C   UNL     1      -6.933   6.647  70.357  1.00  0.00    -0.063 C  
HETATM   30  C   UNL     1      -8.062   5.794  70.948  1.00  0.00    -0.119 C  
HETATM   31  N   UNL     1      -8.265   6.128  72.354  1.00  0.00    -0.109 NA 
HETATM   32  C   UNL     1      -9.368   5.987  70.170  1.00  0.00    -0.172 C  
HETATM   33  C   UNL     1      -9.180   5.690  68.680  1.00  0.00    -0.122 C  
HETATM   34  H2  UNL     1      -8.430   7.126  72.488  1.00  0.00     0.000 HD 
HETATM   35  H1  UNL     1      -9.016   5.561  72.746  1.00  0.00     0.000 HD 
HETATM   36  O   UNL     1     -10.422   5.922  68.016  1.00  0.00    -0.190 OA 
HETATM   37  H   UNL     1     -11.122   5.389  68.374  1.00  0.00     0.000 HD 
ENDBRANCH  26  27
ENDBRANCH  25  26
ENDBRANCH  23  25
ENDBRANCH  22  23
ENDBRANCH  12  22
BRANCH  17  38
HETATM   38  C   UNL     1     -11.870  13.554  64.952  1.00  0.00    -0.402 C  
HETATM   39  C   UNL     1     -13.114  13.469  65.400  1.00  0.00    -0.121 C  
ENDBRANCH  17  38
TORSDOF 6
ENDMDL
MODEL      105
REMARK 921   NORMALIZED FREE ENERGY PREDICTED BY IDOCK:   -4.50 KCAL/MOL
REMARK 922        TOTAL FREE ENERGY PREDICTED BY IDOCK:   -7.32 KCAL/MOL
REMARK 923 INTER-LIGAND FREE ENERGY PREDICTED BY IDOCK:   -6.93 KCAL/MOL
REMARK 924 INTRA-LIGAND FREE ENERGY PREDICTED BY IDOCK:   -0.39 KCAL/MOL
REMARK 927      BINDING AFFINITY PREDICTED BY RF-SCORE:    0.00 PKD
ROOT
HETATM    1  C   UNL     1      -8.449   8.363  69.626  1.00  0.00    -0.127 C  
HETATM    2  C   UNL     1      -7.134   9.437  70.697  1.00  0.00    -0.124 C  
HETATM    3  C   UNL     1      -6.428   8.220  72.038  1.00  0.00    -0.067 C  
HETATM    4  O   UNL     1      -6.841  10.616  70.544  1.00  0.00    -0.309 OA 
HETATM    5  C   UNL     1      -7.435   6.514  71.848  1.00  0.00    -0.092 C  
HETATM    6  C   UNL     1      -8.370   6.675  70.199  1.00  0.00    -0.135 C  
HETATM    7  C   UNL     1      -8.166   5.740  68.991  1.00  0.00    -0.101 C  
HETATM    8  C   UNL     1      -8.505   6.400  67.599  1.00  0.00    -0.117 C  
HETATM    9  C   UNL     1      -9.688   7.399  67.580  1.00  0.00    -0.186 C  
HETATM   10  C   UNL     1     -10.935   6.536  67.897  1.00  0.00    -0.382 C  
HETATM   11  C   UNL     1      -9.412   8.706  68.453  1.00  0.00    -0.144 C  
HETATM   12  C   UNL     1     -10.829   9.198  69.054  1.00  0.00    -0.090 C  
HETATM   13  C   UNL     1      -8.748   9.851  67.672  1.00  0.00    -0.121 C  
HETATM   14  C   UNL     1     -10.877   9.462  70.570  1.00  0.00    -0.336 C  
HETATM   15  O   UNL     1      -8.501   8.382  73.264  1.00  0.00    -0.309 OA 
HETATM   16  C   UNL     1      -7.358   7.530  70.440  1.00  0.00    -0.072 C  
HETATM   17  C   UNL     1     -10.467   8.270  71.667  1.00  0.00    -0.303 C  
HETATM   18  C   UNL     1      -8.684   8.422  71.823  1.00  0.00    -0.180 C  
HETATM   19  H   UNL     1      -7.558   8.463  73.347  1.00  0.00     0.000 HD 
HETATM   20  C   UNL     1      -6.246   7.990  69.089  1.00  0.00    -0.039 C  
HETATM   21  C   UNL     1     -11.654   8.580  72.646  1.00  0.00    -0.284 C  
ENDROOT
BRANCH  12  22
HETATM   22  O   UNL     1     -11.286  10.406  68.413  1.00  0.00    -0.276 OA 
BRANCH  22  23
HETATM   23  C   UNL     1     -11.975  11.292  69.188  1.00  0.00    -0.336 C  
HETATM   24  O   UNL     1     -12.910  11.013  69.927  1.00  0.00    -0.141 OA 
BRANCH  23  25
HETATM   25  C   UNL     1     -11.356  12.664  69.110  1.00  0.00    -0.282 C  
BRANCH  25  26
HETATM   26  S   UNL     1     -10.997  13.124  67.391  1.00  0.00    -0.270 SA 
BRANCH  26  27
HETATM   27  C   UNL     1      -9.586  14.276  67.629  1.00  0.00    -0.219 C  
HETATM   28  C   UNL     1      -8.241  13.584  67.384  1.00  0.00    -0.187 C  
HETATM   29  C   UNL     1      -7.092  14.590  67.464  1.00  0.00    -0.199 C  
HETATM   30  C   UNL     1      -7.094  15.322  68.811  1.00  0.00    -0.117 C  
HETATM   31  N   UNL     1      -6.019  16.309  68.850  1.00  0.00    -0.125 NA 
HETATM   32  C   UNL     1      -8.441  16.004  69.072  1.00  0.00    -0.244 C  
HETATM   33  C   UNL     1      -9.598  15.004  68.990  1.00  0.00    -0.225 C  
HETATM   34  H2  UNL     1      -6.069  16.957  68.064  1.00  0.00     0.000 HD 
HETATM   35  H1  UNL     1      -6.021  16.796  69.746  1.00  0.00     0.000 HD 
HETATM   36  O   UNL     1     -10.818  15.712  69.208  1.00  0.00    -0.219 OA 
HETATM   37  H   UNL     1     -10.825  16.160  70.046  1.00  0.00     0.000 HD 
ENDBRANCH  26  27
ENDBRANCH  25  26
ENDBRANCH  23  25
ENDBRANCH  22  23
ENDBRANCH  12  22
BRANCH  17  38
HETATM   38  C   UNL     1     -10.482   6.808  72.070  1.00  0.00    -0.226 C  
HETATM   39  C   UNL     1     -11.275   5.869  72.563  1.00  0.00    -0.341 C  
ENDBRANCH  17  38
TORSDOF 6
ENDMDL
MODEL      106
REMARK 921   NORMALIZED FREE ENERGY PREDICTED BY IDOCK:   -4.50 KCAL/MOL
REMARK 922        TOTAL FREE ENERGY PREDICTED BY IDOCK:   -7.31 KCAL/MOL
REMARK 923 INTER-LIGAND FREE ENERGY PREDICTED BY IDOCK:   -6.19 KCAL/MOL
REMARK 924 INTRA-LIGAND FREE ENERGY PREDICTED BY IDOCK:   -1.12 KCAL/MOL
REMARK 927      BINDING AFFINITY PREDICTED BY RF-SCORE:    0.00 PKD
ROOT
HETATM    1  C   UNL     1      -9.497  11.342  66.577  1.00  0.00    -0.213 C  
HETATM    2  C   UNL     1     -11.345  11.996  66.146  1.00  0.00    -0.351 C  
HETATM    3  C   UNL     1     -12.017  12.796  67.786  1.00  0.00    -0.316 C  
HETATM    4  O   UNL     1     -11.933  11.906  65.076  1.00  0.00    -0.248 OA 
HETATM    5  C   UNL     1     -10.641  12.468  69.187  1.00  0.00    -0.000 C  
HETATM    6  C   UNL     1      -9.106  11.866  68.237  1.00  0.00    -0.183 C  
HETATM    7  C   UNL     1      -7.748  12.594  68.231  1.00  0.00    -0.135 C  
HETATM    8  C   UNL     1      -6.878  12.328  66.942  1.00  0.00     0.056 C  
HETATM    9  C   UNL     1      -6.966  10.907  66.333  1.00  0.00    -0.134 C  
HETATM   10  C   UNL     1      -6.340   9.981  67.404  1.00  0.00    -0.067 C  
HETATM   11  C   UNL     1      -8.420  10.563  65.769  1.00  0.00    -0.177 C  
HETATM   12  C   UNL     1      -8.653   8.976  65.964  1.00  0.00    -0.142 C  
HETATM   13  C   UNL     1      -8.626  10.946  64.295  1.00  0.00     0.052 C  
HETATM   14  C   UNL     1      -9.961   8.555  66.657  1.00  0.00    -0.363 C  
HETATM   15  O   UNL     1     -12.343  10.593  68.716  1.00  0.00    -0.814 OA 
HETATM   16  C   UNL     1     -10.085  12.471  67.540  1.00  0.00    -0.207 C  
HETATM   17  C   UNL     1     -10.351   9.119  68.181  1.00  0.00    -0.263 C  
HETATM   18  C   UNL     1     -11.169  10.686  67.865  1.00  0.00    -0.308 C  
HETATM   19  H   UNL     1     -12.776  11.422  68.549  1.00  0.00     0.000 HD 
HETATM   20  C   UNL     1      -9.648  13.604  66.199  1.00  0.00    -0.226 C  
HETATM   21  C   UNL     1     -10.867   7.732  68.705  1.00  0.00    -0.006 C  
ENDROOT
BRANCH  12  22
HETATM   22  O   UNL     1      -8.612   8.276  64.704  1.00  0.00    -0.106 OA 
BRANCH  22  23
HETATM   23  C   UNL     1      -7.422   7.708  64.353  1.00  0.00    -0.099 C  
HETATM   24  O   UNL     1      -6.623   8.171  63.550  1.00  0.00    -0.074 OA 
BRANCH  23  25
HETATM   25  C   UNL     1      -7.154   6.477  65.178  1.00  0.00    -0.060 C  
BRANCH  25  26
HETATM   26  S   UNL     1      -6.463   5.142  64.159  1.00  0.00    -0.038 SA 
BRANCH  26  27
HETATM   27  C   UNL     1      -7.999   4.293  63.615  1.00  0.00    -0.089 C  
HETATM   28  C   UNL     1      -9.169   4.572  64.564  1.00  0.00    -0.136 C  
HETATM   29  C   UNL     1     -10.462   3.960  64.025  1.00  0.00    -0.237 C  
HETATM   30  C   UNL     1     -10.300   2.455  63.783  1.00  0.00    -0.112 C  
HETATM   31  N   UNL     1     -11.529   1.899  63.224  1.00  0.00    -0.528 NA 
HETATM   32  C   UNL     1      -9.123   2.166  62.846  1.00  0.00    -0.091 C  
HETATM   33  C   UNL     1      -7.823   2.778  63.378  1.00  0.00    -0.072 C  
HETATM   34  H2  UNL     1     -11.821   2.391  62.380  1.00  0.00     0.000 HD 
HETATM   35  H1  UNL     1     -11.421   0.898  63.063  1.00  0.00     0.000 HD 
HETATM   36  O   UNL     1      -6.781   2.500  62.443  1.00  0.00    -0.020 OA 
HETATM   37  H   UNL     1      -6.673   1.567  62.297  1.00  0.00     0.000 HD 
ENDBRANCH  26  27
ENDBRANCH  25  26
ENDBRANCH  23  25
ENDBRANCH  22  23
ENDBRANCH  12  22
BRANCH  17  38
HETATM   38  C   UNL     1      -9.910   9.513  69.577  1.00  0.00    -0.205 C  
HETATM   39  C   UNL     1      -9.035   9.202  70.523  1.00  0.00    -0.274 C  
ENDBRANCH  17  38
TORSDOF 6
ENDMDL
MODEL      107
REMARK 921   NORMALIZED FREE ENERGY PREDICTED BY IDOCK:   -4.49 KCAL/MOL
REMARK 922        TOTAL FREE ENERGY PREDICTED BY IDOCK:   -7.30 KCAL/MOL
REMARK 923 INTER-LIGAND FREE ENERGY PREDICTED BY IDOCK:   -6.29 KCAL/MOL
REMARK 924 INTRA-LIGAND FREE ENERGY PREDICTED BY IDOCK:   -1.01 KCAL/MOL
REMARK 927      BINDING AFFINITY PREDICTED BY RF-SCORE:    0.00 PKD
ROOT
HETATM    1  C   UNL     1     -10.155  11.891  66.201  1.00  0.00    -0.257 C  
HETATM    2  C   UNL     1     -11.619  12.559  65.003  1.00  0.00    -0.349 C  
HETATM    3  C   UNL     1     -11.893  14.421  65.494  1.00  0.00    -0.357 C  
HETATM    4  O   UNL     1     -12.222  11.927  64.145  1.00  0.00    -0.342 OA 
HETATM    5  C   UNL     1     -10.716  14.778  67.059  1.00  0.00    -0.300 C  
HETATM    6  C   UNL     1      -9.553  13.275  67.153  1.00  0.00    -0.240 C  
HETATM    7  C   UNL     1      -8.020  13.353  67.017  1.00  0.00     0.023 C  
HETATM    8  C   UNL     1      -7.350  12.030  66.482  1.00  0.00     0.246 C  
HETATM    9  C   UNL     1      -7.992  10.698  66.943  1.00  0.00    -0.124 C  
HETATM   10  C   UNL     1      -7.743  10.651  68.471  1.00  0.00    -0.107 C  
HETATM   11  C   UNL     1      -9.479  10.503  66.396  1.00  0.00    -0.208 C  
HETATM   12  C   UNL     1     -10.299   9.663  67.507  1.00  0.00    -0.241 C  
HETATM   13  C   UNL     1      -9.557   9.790  65.037  1.00  0.00    -0.333 C  
HETATM   14  C   UNL     1     -11.652  10.249  67.949  1.00  0.00     0.194 C  
HETATM   15  O   UNL     1     -13.019  13.715  67.509  1.00  0.00     0.309 OA 
HETATM   16  C   UNL     1     -10.241  13.473  66.013  1.00  0.00    -0.308 C  
HETATM   17  C   UNL     1     -11.758  11.793  68.581  1.00  0.00    -0.389 C  
HETATM   18  C   UNL     1     -11.920  12.841  67.132  1.00  0.00    -0.284 C  
HETATM   19  H   UNL     1     -13.104  14.269  66.742  1.00  0.00     0.000 HD 
HETATM   20  C   UNL     1      -9.434  13.158  64.425  1.00  0.00     0.850 C  
HETATM   21  C   UNL     1     -12.755  11.397  69.727  1.00  0.00     0.085 C  
ENDROOT
BRANCH  12  22
HETATM   22  O   UNL     1     -10.560   8.315  67.066  1.00  0.00    -0.321 OA 
BRANCH  22  23
HETATM   23  C   UNL     1     -10.204   7.309  67.917  1.00  0.00    -0.191 C  
HETATM   24  O   UNL     1     -10.935   6.400  68.288  1.00  0.00    -0.293 OA 
BRANCH  23  25
HETATM   25  C   UNL     1      -8.739   7.391  68.257  1.00  0.00    -0.122 C  
BRANCH  25  26
HETATM   26  S   UNL     1      -8.485   7.420  70.055  1.00  0.00    -0.139 SA 
BRANCH  26  27
HETATM   27  C   UNL     1     -10.183   7.807  70.639  1.00  0.00    -0.199 C  
HETATM   28  C   UNL     1     -10.243   9.163  71.351  1.00  0.00    -0.402 C  
HETATM   29  C   UNL     1     -11.685   9.520  71.714  1.00  0.00    -0.411 C  
HETATM   30  C   UNL     1     -12.324   8.422  72.572  1.00  0.00    -0.296 C  
HETATM   31  N   UNL     1     -13.713   8.759  72.870  1.00  0.00    -0.876 NA 
HETATM   32  C   UNL     1     -12.255   7.060  71.875  1.00  0.00    -0.362 C  
HETATM   33  C   UNL     1     -10.814   6.696  71.504  1.00  0.00    -0.239 C  
HETATM   34  H2  UNL     1     -14.250   8.943  72.023  1.00  0.00     0.000 HD 
HETATM   35  H1  UNL     1     -14.138   8.029  73.441  1.00  0.00     0.000 HD 
HETATM   36  O   UNL     1     -10.829   5.437  70.830  1.00  0.00    -0.222 OA 
HETATM   37  H   UNL     1     -11.218   4.753  71.363  1.00  0.00     0.000 HD 
ENDBRANCH  26  27
ENDBRANCH  25  26
ENDBRANCH  23  25
ENDBRANCH  22  23
ENDBRANCH  12  22
BRANCH  17  38
HETATM   38  C   UNL     1     -11.167  12.894  69.440  1.00  0.00    -0.197 C  
HETATM   39  C   UNL     1     -11.439  13.667  70.481  1.00  0.00     0.118 C  
ENDBRANCH  17  38
TORSDOF 6
ENDMDL
MODEL      108
REMARK 921   NORMALIZED FREE ENERGY PREDICTED BY IDOCK:   -4.48 KCAL/MOL
REMARK 922        TOTAL FREE ENERGY PREDICTED BY IDOCK:   -7.29 KCAL/MOL
REMARK 923 INTER-LIGAND FREE ENERGY PREDICTED BY IDOCK:   -5.93 KCAL/MOL
REMARK 924 INTRA-LIGAND FREE ENERGY PREDICTED BY IDOCK:   -1.36 KCAL/MOL
REMARK 927      BINDING AFFINITY PREDICTED BY RF-SCORE:    0.00 PKD
ROOT
HETATM    1  C   UNL     1      -9.520  10.249  68.322  1.00  0.00    -0.147 C  
HETATM    2  C   UNL     1      -9.913  12.213  68.191  1.00  0.00    -0.201 C  
HETATM    3  C   UNL     1      -9.523  12.706  66.351  1.00  0.00    -0.231 C  
HETATM    4  O   UNL     1     -10.309  12.951  69.083  1.00  0.00    -0.007 OA 
HETATM    5  C   UNL     1      -8.766  11.088  65.474  1.00  0.00    -0.144 C  
HETATM    6  C   UNL     1      -9.111   9.663  66.687  1.00  0.00    -0.176 C  
HETATM    7  C   UNL     1      -9.980   8.434  66.358  1.00  0.00    -0.291 C  
HETATM    8  C   UNL     1     -10.649   7.760  67.618  1.00  0.00    -0.283 C  
HETATM    9  C   UNL     1      -9.815   7.758  68.923  1.00  0.00    -0.166 C  
HETATM   10  C   UNL     1      -8.602   6.846  68.612  1.00  0.00    -0.123 C  
HETATM   11  C   UNL     1      -9.551   9.226  69.493  1.00  0.00    -0.178 C  
HETATM   12  C   UNL     1      -8.111   9.211  70.225  1.00  0.00    -0.148 C  
HETATM   13  C   UNL     1     -10.631   9.720  70.470  1.00  0.00    -0.376 C  
HETATM   14  C   UNL     1      -7.123  10.319  69.820  1.00  0.00    -0.140 C  
HETATM   15  O   UNL     1      -7.160  12.580  66.826  1.00  0.00    -0.373 OA 
HETATM   16  C   UNL     1      -9.787  10.815  66.854  1.00  0.00    -0.224 C  
HETATM   17  C   UNL     1      -6.663  10.525  68.226  1.00  0.00    -0.060 C  
HETATM   18  C   UNL     1      -7.942  11.585  67.542  1.00  0.00    -0.133 C  
HETATM   19  H   UNL     1      -7.836  13.141  66.464  1.00  0.00     0.000 HD 
HETATM   20  C   UNL     1     -11.530  10.759  67.332  1.00  0.00    -0.113 C  
HETATM   21  C   UNL     1      -5.147  10.759  68.557  1.00  0.00    -0.037 C  
ENDROOT
BRANCH  12  22
HETATM   22  O   UNL     1      -8.244   9.285  71.659  1.00  0.00    -0.312 OA 
BRANCH  22  23
HETATM   23  C   UNL     1      -7.720   8.252  72.381  1.00  0.00    -0.123 C  
HETATM   24  O   UNL     1      -6.683   7.656  72.119  1.00  0.00    -0.053 OA 
BRANCH  23  25
HETATM   25  C   UNL     1      -8.529   8.007  73.628  1.00  0.00    -0.256 C  
BRANCH  25  26
HETATM   26  S   UNL     1     -10.243   7.568  73.222  1.00  0.00    -0.345 SA 
BRANCH  26  27
HETATM   27  C   UNL     1     -10.169   5.736  73.345  1.00  0.00    -0.209 C  
HETATM   28  C   UNL     1      -9.110   5.277  74.354  1.00  0.00    -0.117 C  
HETATM   29  C   UNL     1      -9.154   3.759  74.531  1.00  0.00    -0.102 C  
HETATM   30  C   UNL     1      -8.978   3.042  73.188  1.00  0.00    -0.083 C  
HETATM   31  N   UNL     1      -9.068   1.597  73.372  1.00  0.00    -0.065 NA 
HETATM   32  C   UNL     1     -10.023   3.506  72.169  1.00  0.00    -0.234 C  
HETATM   33  C   UNL     1      -9.988   5.026  71.987  1.00  0.00    -0.184 C  
HETATM   34  H2  UNL     1      -9.934   1.326  73.838  1.00  0.00     0.000 HD 
HETATM   35  H1  UNL     1      -8.951   1.120  72.479  1.00  0.00     0.000 HD 
HETATM   36  O   UNL     1     -11.006   5.389  71.054  1.00  0.00    -0.179 OA 
HETATM   37  H   UNL     1     -10.894   4.952  70.218  1.00  0.00     0.000 HD 
ENDBRANCH  26  27
ENDBRANCH  25  26
ENDBRANCH  23  25
ENDBRANCH  22  23
ENDBRANCH  12  22
BRANCH  17  38
HETATM   38  C   UNL     1      -6.304   9.916  66.884  1.00  0.00    -0.065 C  
HETATM   39  C   UNL     1      -5.666   8.892  66.340  1.00  0.00    -0.053 C  
ENDBRANCH  17  38
TORSDOF 6
ENDMDL
MODEL      109
REMARK 921   NORMALIZED FREE ENERGY PREDICTED BY IDOCK:   -4.47 KCAL/MOL
REMARK 922        TOTAL FREE ENERGY PREDICTED BY IDOCK:   -7.27 KCAL/MOL
REMARK 923 INTER-LIGAND FREE ENERGY PREDICTED BY IDOCK:   -5.77 KCAL/MOL
REMARK 924 INTRA-LIGAND FREE ENERGY PREDICTED BY IDOCK:   -1.50 KCAL/MOL
REMARK 927      BINDING AFFINITY PREDICTED BY RF-SCORE:    0.00 PKD
ROOT
HETATM    1  C   UNL     1      -8.162   4.624  65.758  1.00  0.00    -0.111 C  
HETATM    2  C   UNL     1      -9.317   4.144  64.188  1.00  0.00    -0.158 C  
HETATM    3  C   UNL     1      -8.202   4.397  62.616  1.00  0.00    -0.081 C  
HETATM    4  O   UNL     1     -10.485   3.776  64.212  1.00  0.00    -0.242 OA 
HETATM    5  C   UNL     1      -6.480   5.163  63.254  1.00  0.00    -0.026 C  
HETATM    6  C   UNL     1      -6.519   4.953  65.145  1.00  0.00    -0.036 C  
HETATM    7  C   UNL     1      -5.503   4.116  65.947  1.00  0.00    -0.013 C  
HETATM    8  C   UNL     1      -6.062   3.556  67.311  1.00  0.00    -0.028 C  
HETATM    9  C   UNL     1      -7.049   4.469  68.079  1.00  0.00    -0.064 C  
HETATM   10  C   UNL     1      -6.202   5.696  68.499  1.00  0.00    -0.033 C  
HETATM   11  C   UNL     1      -8.416   4.709  67.290  1.00  0.00    -0.104 C  
HETATM   12  C   UNL     1      -8.939   6.192  67.662  1.00  0.00    -0.111 C  
HETATM   13  C   UNL     1      -9.508   3.673  67.604  1.00  0.00    -0.234 C  
HETATM   14  C   UNL     1      -9.308   7.105  66.480  1.00  0.00    -0.208 C  
HETATM   15  O   UNL     1      -8.436   6.789  62.845  1.00  0.00    -0.338 OA 
HETATM   16  C   UNL     1      -7.395   4.243  64.411  1.00  0.00    -0.070 C  
HETATM   17  C   UNL     1      -8.198   7.456  65.280  1.00  0.00    -0.128 C  
HETATM   18  C   UNL     1      -8.373   6.095  64.121  1.00  0.00     0.044 C  
HETATM   19  H   UNL     1      -8.528   6.069  62.232  1.00  0.00     0.000 HD 
HETATM   20  C   UNL     1      -7.768   2.537  64.881  1.00  0.00    -0.073 C  
HETATM   21  C   UNL     1      -8.568   8.979  65.201  1.00  0.00    -0.204 C  
ENDROOT
BRANCH  12  22
HETATM   22  O   UNL     1     -10.095   6.146  68.522  1.00  0.00    -0.142 OA 
BRANCH  22  23
HETATM   23  C   UNL     1      -9.961   6.693  69.765  1.00  0.00    -0.173 C  
HETATM   24  O   UNL     1      -9.138   6.356  70.605  1.00  0.00    -0.147 OA 
BRANCH  23  25
HETATM   25  C   UNL     1     -10.892   7.865  69.935  1.00  0.00    -0.221 C  
BRANCH  25  26
HETATM   26  S   UNL     1      -9.983   9.360  70.418  1.00  0.00    -0.268 SA 
BRANCH  26  27
HETATM   27  C   UNL     1     -10.222  10.407  68.928  1.00  0.00    -0.205 C  
HETATM   28  C   UNL     1      -8.950  11.185  68.570  1.00  0.00    -0.168 C  
HETATM   29  C   UNL     1      -9.134  11.948  67.258  1.00  0.00    -0.178 C  
HETATM   30  C   UNL     1     -10.346  12.884  67.330  1.00  0.00    -0.233 C  
HETATM   31  N   UNL     1     -10.531  13.569  66.054  1.00  0.00    -0.293 NA 
HETATM   32  C   UNL     1     -11.619  12.117  67.702  1.00  0.00    -0.413 C  
HETATM   33  C   UNL     1     -11.443  11.347  69.014  1.00  0.00    -0.300 C  
HETATM   34  H2  UNL     1     -10.602  12.913  65.277  1.00  0.00     0.000 HD 
HETATM   35  H1  UNL     1     -11.338  14.191  66.102  1.00  0.00     0.000 HD 
HETATM   36  O   UNL     1     -12.650  10.632  69.279  1.00  0.00    -0.715 OA 
HETATM   37  H   UNL     1     -13.402  11.210  69.332  1.00  0.00     0.000 HD 
ENDBRANCH  26  27
ENDBRANCH  25  26
ENDBRANCH  23  25
ENDBRANCH  22  23
ENDBRANCH  12  22
BRANCH  17  38
HETATM   38  C   UNL     1      -6.768   7.754  64.874  1.00  0.00    -0.051 C  
HETATM   39  C   UNL     1      -5.679   8.390  65.279  1.00  0.00    -0.044 C  
ENDBRANCH  17  38
TORSDOF 6
ENDMDL
MODEL      110
REMARK 921   NORMALIZED FREE ENERGY PREDICTED BY IDOCK:   -4.46 KCAL/MOL
REMARK 922        TOTAL FREE ENERGY PREDICTED BY IDOCK:   -7.26 KCAL/MOL
REMARK 923 INTER-LIGAND FREE ENERGY PREDICTED BY IDOCK:   -5.85 KCAL/MOL
REMARK 924 INTRA-LIGAND FREE ENERGY PREDICTED BY IDOCK:   -1.40 KCAL/MOL
REMARK 927      BINDING AFFINITY PREDICTED BY RF-SCORE:    0.00 PKD
ROOT
HETATM    1  C   UNL     1      -9.526  15.152  67.678  1.00  0.00    -0.201 C  
HETATM    2  C   UNL     1      -8.409  16.420  66.595  1.00  0.00    -0.270 C  
HETATM    3  C   UNL     1      -9.663  17.665  65.783  1.00  0.00     0.086 C  
HETATM    4  O   UNL     1      -7.192  16.411  66.464  1.00  0.00    -0.213 OA 
HETATM    5  C   UNL     1     -11.488  17.031  66.262  1.00  0.00     1.184 C  
HETATM    6  C   UNL     1     -11.215  15.723  67.617  1.00  0.00    -0.246 C  
HETATM    7  C   UNL     1     -11.764  15.833  69.052  1.00  0.00    -0.405 C  
HETATM    8  C   UNL     1     -10.922  15.044  70.128  1.00  0.00    -0.247 C  
HETATM    9  C   UNL     1     -10.298  13.704  69.667  1.00  0.00     0.560 C  
HETATM   10  C   UNL     1     -11.511  12.781  69.392  1.00  0.00    -0.321 C  
HETATM   11  C   UNL     1      -9.196  13.891  68.527  1.00  0.00    -0.154 C  
HETATM   12  C   UNL     1      -9.249  12.583  67.580  1.00  0.00    -0.190 C  
HETATM   13  C   UNL     1      -7.770  14.093  69.064  1.00  0.00    -0.035 C  
HETATM   14  C   UNL     1      -9.356  12.836  66.066  1.00  0.00    -0.056 C  
HETATM   15  O   UNL     1     -10.341  15.952  64.224  1.00  0.00    -0.322 OA 
HETATM   16  C   UNL     1     -10.198  16.556  67.326  1.00  0.00    -0.287 C  
HETATM   17  C   UNL     1     -10.612  13.737  65.428  1.00  0.00    -0.330 C  
HETATM   18  C   UNL     1     -10.028  15.432  65.544  1.00  0.00    -0.344 C  
HETATM   19  H   UNL     1     -10.033  16.849  64.285  1.00  0.00     0.000 HD 
HETATM   20  C   UNL     1      -9.166  17.196  68.667  1.00  0.00    -0.263 C  
HETATM   21  C   UNL     1     -10.858  12.775  64.213  1.00  0.00    -0.419 C  
ENDROOT
BRANCH  12  22
HETATM   22  O   UNL     1      -8.095  11.741  67.775  1.00  0.00    -0.128 OA 
BRANCH  22  23
HETATM   23  C   UNL     1      -8.332  10.435  68.090  1.00  0.00    -0.117 C  
HETATM   24  O   UNL     1      -8.761   9.584  67.321  1.00  0.00    -0.127 OA 
BRANCH  23  25
HETATM   25  C   UNL     1      -7.883  10.134  69.496  1.00  0.00    -0.162 C  
BRANCH  25  26
HETATM   26  S   UNL     1      -8.395   8.469  70.007  1.00  0.00    -0.128 SA 
BRANCH  26  27
HETATM   27  C   UNL     1      -9.932   8.849  70.937  1.00  0.00    -0.242 C  
HETATM   28  C   UNL     1     -10.030   8.034  72.231  1.00  0.00    -0.304 C  
HETATM   29  C   UNL     1     -11.250   8.458  73.048  1.00  0.00     0.172 C  
HETATM   30  C   UNL     1     -12.536   8.331  72.223  1.00  0.00    -0.311 C  
HETATM   31  N   UNL     1     -13.684   8.784  73.004  1.00  0.00    -0.999 NA 
HETATM   32  C   UNL     1     -12.442   9.131  70.920  1.00  0.00    -0.153 C  
HETATM   33  C   UNL     1     -11.220   8.715  70.096  1.00  0.00    -0.146 C  
HETATM   34  H2  UNL     1     -13.552   9.730  73.361  1.00  0.00     0.000 HD 
HETATM   35  H1  UNL     1     -14.539   8.700  72.455  1.00  0.00     0.000 HD 
HETATM   36  O   UNL     1     -11.176   9.521  68.919  1.00  0.00    -0.446 OA 
HETATM   37  H   UNL     1     -11.969   9.438  68.402  1.00  0.00     0.000 HD 
ENDBRANCH  26  27
ENDBRANCH  25  26
ENDBRANCH  23  25
ENDBRANCH  22  23
ENDBRANCH  12  22
BRANCH  17  38
HETATM   38  C   UNL     1     -12.076  14.130  65.449  1.00  0.00    -0.415 C  
HETATM   39  C   UNL     1     -13.284  13.644  65.691  1.00  0.00     0.128 C  
ENDBRANCH  17  38
TORSDOF 6
ENDMDL
MODEL      111
REMARK 921   NORMALIZED FREE ENERGY PREDICTED BY IDOCK:   -4.44 KCAL/MOL
REMARK 922        TOTAL FREE ENERGY PREDICTED BY IDOCK:   -7.24 KCAL/MOL
REMARK 923 INTER-LIGAND FREE ENERGY PREDICTED BY IDOCK:   -6.62 KCAL/MOL
REMARK 924 INTRA-LIGAND FREE ENERGY PREDICTED BY IDOCK:   -0.61 KCAL/MOL
REMARK 927      BINDING AFFINITY PREDICTED BY RF-SCORE:    0.00 PKD
ROOT
HETATM    1  C   UNL     1      -8.324   9.663  66.827  1.00  0.00    -0.117 C  
HETATM    2  C   UNL     1      -6.636   9.360  65.783  1.00  0.00    -0.073 C  
HETATM    3  C   UNL     1      -5.918   7.670  66.420  1.00  0.00    -0.040 C  
HETATM    4  O   UNL     1      -6.153  10.091  64.927  1.00  0.00    -0.098 OA 
HETATM    5  C   UNL     1      -7.087   7.082  67.920  1.00  0.00    -0.086 C  
HETATM    6  C   UNL     1      -8.613   8.214  67.828  1.00  0.00    -0.131 C  
HETATM    7  C   UNL     1     -10.051   7.715  67.591  1.00  0.00    -0.249 C  
HETATM    8  C   UNL     1     -11.003   8.779  66.920  1.00  0.00     0.250 C  
HETATM    9  C   UNL     1     -10.783  10.256  67.331  1.00  0.00    -0.339 C  
HETATM   10  C   UNL     1     -11.165  10.307  68.831  1.00  0.00    -0.259 C  
HETATM   11  C   UNL     1      -9.360  10.822  66.877  1.00  0.00    -0.179 C  
HETATM   12  C   UNL     1      -8.893  11.905  67.981  1.00  0.00    -0.177 C  
HETATM   13  C   UNL     1      -9.359  11.462  65.480  1.00  0.00    -0.228 C  
HETATM   14  C   UNL     1      -7.477  11.732  68.556  1.00  0.00    -0.110 C  
HETATM   15  O   UNL     1      -5.200   8.752  68.455  1.00  0.00    -0.033 OA 
HETATM   16  C   UNL     1      -7.802   8.156  66.755  1.00  0.00    -0.095 C  
HETATM   17  C   UNL     1      -7.016  10.307  69.300  1.00  0.00    -0.073 C  
HETATM   18  C   UNL     1      -6.456   9.274  67.942  1.00  0.00    -0.059 C  
HETATM   19  H   UNL     1      -4.904   8.205  67.737  1.00  0.00     0.000 HD 
HETATM   20  C   UNL     1      -8.523   8.162  65.097  1.00  0.00    -0.134 C  
HETATM   21  C   UNL     1      -6.264  11.015  70.482  1.00  0.00    -0.053 C  
ENDROOT
BRANCH  12  22
HETATM   22  O   UNL     1      -8.965  13.251  67.466  1.00  0.00    -0.186 OA 
BRANCH  22  23
HETATM   23  C   UNL     1     -10.177  13.874  67.539  1.00  0.00    -0.245 C  
HETATM   24  O   UNL     1     -11.113  13.700  66.769  1.00  0.00    -0.299 OA 
BRANCH  23  25
HETATM   25  C   UNL     1     -10.263  14.731  68.774  1.00  0.00    -0.239 C  
BRANCH  25  26
HETATM   26  S   UNL     1      -8.652  15.465  69.178  1.00  0.00    -0.252 SA 
BRANCH  26  27
HETATM   27  C   UNL     1      -8.974  17.234  68.804  1.00  0.00    -0.231 C  
HETATM   28  C   UNL     1     -10.181  17.408  67.875  1.00  0.00    -0.348 C  
HETATM   29  C   UNL     1     -10.505  18.889  67.681  1.00  0.00    -0.514 C  
HETATM   30  C   UNL     1      -9.289  19.654  67.146  1.00  0.00    -0.337 C  
HETATM   31  N   UNL     1      -9.604  21.073  67.011  1.00  0.00    -0.651 NA 
HETATM   32  C   UNL     1      -8.073  19.474  68.061  1.00  0.00    -0.347 C  
HETATM   33  C   UNL     1      -7.742  17.992  68.264  1.00  0.00    -0.282 C  
HETATM   34  H2  UNL     1      -9.951  21.471  67.884  1.00  0.00     0.000 HD 
HETATM   35  H1  UNL     1      -8.795  21.582  66.656  1.00  0.00     0.000 HD 
HETATM   36  O   UNL     1      -6.627  17.899  69.149  1.00  0.00    -0.231 OA 
HETATM   37  H   UNL     1      -5.868  18.365  68.816  1.00  0.00     0.000 HD 
ENDBRANCH  26  27
ENDBRANCH  25  26
ENDBRANCH  23  25
ENDBRANCH  22  23
ENDBRANCH  12  22
BRANCH  17  38
HETATM   38  C   UNL     1      -7.363   9.130  70.190  1.00  0.00    -0.077 C  
HETATM   39  C   UNL     1      -7.168   8.649  71.409  1.00  0.00    -0.101 C  
ENDBRANCH  17  38
TORSDOF 6
ENDMDL
MODEL      112
REMARK 921   NORMALIZED FREE ENERGY PREDICTED BY IDOCK:   -4.44 KCAL/MOL
REMARK 922        TOTAL FREE ENERGY PREDICTED BY IDOCK:   -7.23 KCAL/MOL
REMARK 923 INTER-LIGAND FREE ENERGY PREDICTED BY IDOCK:   -6.43 KCAL/MOL
REMARK 924 INTRA-LIGAND FREE ENERGY PREDICTED BY IDOCK:   -0.80 KCAL/MOL
REMARK 927      BINDING AFFINITY PREDICTED BY RF-SCORE:    0.00 PKD
ROOT
HETATM    1  C   UNL     1      -9.819  14.306  67.409  1.00  0.00    -0.235 C  
HETATM    2  C   UNL     1     -11.026  15.566  66.417  1.00  0.00    -0.238 C  
HETATM    3  C   UNL     1     -10.951  17.246  67.394  1.00  0.00    -0.053 C  
HETATM    4  O   UNL     1     -11.680  15.327  65.410  1.00  0.00    -0.181 OA 
HETATM    5  C   UNL     1      -9.844  16.915  69.014  1.00  0.00    -0.247 C  
HETATM    6  C   UNL     1      -9.020  15.227  68.712  1.00  0.00    -0.200 C  
HETATM    7  C   UNL     1      -7.497  15.007  68.626  1.00  0.00    -0.122 C  
HETATM    8  C   UNL     1      -7.072  13.759  67.760  1.00  0.00    -0.175 C  
HETATM    9  C   UNL     1      -8.003  12.523  67.830  1.00  0.00    -0.163 C  
HETATM   10  C   UNL     1      -7.881  12.023  69.291  1.00  0.00     0.377 C  
HETATM   11  C   UNL     1      -9.455  12.804  67.229  1.00  0.00    -0.204 C  
HETATM   12  C   UNL     1     -10.507  11.898  68.055  1.00  0.00    -0.208 C  
HETATM   13  C   UNL     1      -9.576  12.509  65.725  1.00  0.00    -0.137 C  
HETATM   14  C   UNL     1     -11.741  12.624  68.620  1.00  0.00    -0.364 C  
HETATM   15  O   UNL     1     -12.341  16.293  69.122  1.00  0.00    -0.264 OA 
HETATM   16  C   UNL     1      -9.568  15.862  67.659  1.00  0.00    -0.221 C  
HETATM   17  C   UNL     1     -11.578  13.932  69.648  1.00  0.00    -0.347 C  
HETATM   18  C   UNL     1     -11.417  15.334  68.537  1.00  0.00    -0.342 C  
HETATM   19  H   UNL     1     -12.255  17.035  68.535  1.00  0.00     0.000 HD 
HETATM   20  C   UNL     1      -8.729  15.811  66.058  1.00  0.00    -0.169 C  
HETATM   21  C   UNL     1     -12.715  13.471  70.627  1.00  0.00    -0.275 C  
ENDROOT
BRANCH  12  22
HETATM   22  O   UNL     1     -11.003  10.803  67.259  1.00  0.00    -0.290 OA 
BRANCH  22  23
HETATM   23  C   UNL     1     -10.621   9.548  67.632  1.00  0.00    -0.269 C  
HETATM   24  O   UNL     1     -10.841   9.031  68.720  1.00  0.00    -0.153 OA 
BRANCH  23  25
HETATM   25  C   UNL     1      -9.984   8.818  66.478  1.00  0.00    -0.290 C  
BRANCH  25  26
HETATM   26  S   UNL     1      -8.523   7.885  67.019  1.00  0.00    -0.126 SA 
BRANCH  26  27
HETATM   27  C   UNL     1      -9.055   6.166  66.648  1.00  0.00    -0.139 C  
HETATM   28  C   UNL     1      -8.936   5.257  67.876  1.00  0.00    -0.112 C  
HETATM   29  C   UNL     1      -9.501   3.868  67.579  1.00  0.00    -0.236 C  
HETATM   30  C   UNL     1      -8.808   3.240  66.364  1.00  0.00    -0.141 C  
HETATM   31  N   UNL     1      -9.393   1.935  66.069  1.00  0.00    -0.335 NA 
HETATM   32  C   UNL     1      -8.910   4.149  65.135  1.00  0.00    -0.130 C  
HETATM   33  C   UNL     1      -8.348   5.544  65.425  1.00  0.00    -0.142 C  
HETATM   34  H2  UNL     1     -10.404   1.990  65.945  1.00  0.00     0.000 HD 
HETATM   35  H1  UNL     1      -8.932   1.518  65.260  1.00  0.00     0.000 HD 
HETATM   36  O   UNL     1      -8.506   6.343  64.253  1.00  0.00    -0.334 OA 
HETATM   37  H   UNL     1      -8.071   5.960  63.500  1.00  0.00     0.000 HD 
ENDBRANCH  26  27
ENDBRANCH  25  26
ENDBRANCH  23  25
ENDBRANCH  22  23
ENDBRANCH  12  22
BRANCH  17  38
HETATM   38  C   UNL     1     -10.840  14.614  70.783  1.00  0.00     0.241 C  
HETATM   39  C   UNL     1     -11.040  15.222  71.943  1.00  0.00    -0.213 C  
ENDBRANCH  17  38
TORSDOF 6
ENDMDL
MODEL      113
REMARK 921   NORMALIZED FREE ENERGY PREDICTED BY IDOCK:   -4.43 KCAL/MOL
REMARK 922        TOTAL FREE ENERGY PREDICTED BY IDOCK:   -7.23 KCAL/MOL
REMARK 923 INTER-LIGAND FREE ENERGY PREDICTED BY IDOCK:   -6.18 KCAL/MOL
REMARK 924 INTRA-LIGAND FREE ENERGY PREDICTED BY IDOCK:   -1.04 KCAL/MOL
REMARK 927      BINDING AFFINITY PREDICTED BY RF-SCORE:    0.00 PKD
ROOT
HETATM    1  C   UNL     1      -8.701   7.625  68.025  1.00  0.00    -0.125 C  
HETATM    2  C   UNL     1      -7.808   6.512  66.612  1.00  0.00    -0.104 C  
HETATM    3  C   UNL     1      -6.248   5.728  67.467  1.00  0.00    -0.030 C  
HETATM    4  O   UNL     1      -8.165   6.362  65.451  1.00  0.00    -0.133 OA 
HETATM    5  C   UNL     1      -6.152   6.501  69.299  1.00  0.00    -0.026 C  
HETATM    6  C   UNL     1      -7.828   7.363  69.559  1.00  0.00    -0.121 C  
HETATM    7  C   UNL     1      -8.840   6.981  70.657  1.00  0.00    -0.150 C  
HETATM    8  C   UNL     1     -10.338   7.328  70.305  1.00  0.00    -0.219 C  
HETATM    9  C   UNL     1     -10.571   8.625  69.492  1.00  0.00    -0.218 C  
HETATM   10  C   UNL     1     -10.137   9.768  70.443  1.00  0.00    -0.313 C  
HETATM   11  C   UNL     1      -9.943   8.561  68.025  1.00  0.00    -0.221 C  
HETATM   12  C   UNL     1      -9.482  10.058  67.628  1.00  0.00    -0.144 C  
HETATM   13  C   UNL     1     -10.902   8.007  66.959  1.00  0.00    -0.113 C  
HETATM   14  C   UNL     1      -8.042  10.216  67.109  1.00  0.00    -0.120 C  
HETATM   15  O   UNL     1      -5.130   7.865  67.368  1.00  0.00    -0.029 OA 
HETATM   16  C   UNL     1      -7.719   6.481  68.548  1.00  0.00    -0.105 C  
HETATM   17  C   UNL     1      -6.735   9.717  68.023  1.00  0.00    -0.061 C  
HETATM   18  C   UNL     1      -6.559   7.978  67.609  1.00  0.00    -0.057 C  
HETATM   19  H   UNL     1      -5.037   6.946  67.150  1.00  0.00     0.000 HD 
HETATM   20  C   UNL     1      -9.099   5.367  68.190  1.00  0.00    -0.115 C  
HETATM   21  C   UNL     1      -5.862  10.983  67.705  1.00  0.00    -0.044 C  
ENDROOT
BRANCH  12  22
HETATM   22  O   UNL     1     -10.346  10.630  66.625  1.00  0.00    -0.227 OA 
BRANCH  22  23
HETATM   23  C   UNL     1     -11.114  11.691  67.006  1.00  0.00    -0.302 C  
HETATM   24  O   UNL     1     -12.236  11.619  67.490  1.00  0.00    -0.501 OA 
BRANCH  23  25
HETATM   25  C   UNL     1     -10.350  12.982  66.865  1.00  0.00    -0.245 C  
BRANCH  25  26
HETATM   26  S   UNL     1     -10.466  13.981  68.377  1.00  0.00    -0.257 SA 
BRANCH  26  27
HETATM   27  C   UNL     1      -9.473  15.450  67.897  1.00  0.00    -0.197 C  
HETATM   28  C   UNL     1     -10.358  16.590  67.379  1.00  0.00    -0.290 C  
HETATM   29  C   UNL     1      -9.525  17.841  67.105  1.00  0.00    -0.265 C  
HETATM   30  C   UNL     1      -8.387  17.542  66.122  1.00  0.00    -0.165 C  
HETATM   31  N   UNL     1      -7.576  18.737  65.910  1.00  0.00    -0.463 NA 
HETATM   32  C   UNL     1      -7.506  16.394  66.625  1.00  0.00    -0.267 C  
HETATM   33  C   UNL     1      -8.333  15.136  66.904  1.00  0.00    -0.232 C  
HETATM   34  H2  UNL     1      -7.229  19.123  66.788  1.00  0.00     0.000 HD 
HETATM   35  H1  UNL     1      -6.819  18.538  65.256  1.00  0.00     0.000 HD 
HETATM   36  O   UNL     1      -7.457  14.124  67.399  1.00  0.00    -0.188 OA 
HETATM   37  H   UNL     1      -6.756  13.931  66.788  1.00  0.00     0.000 HD 
ENDBRANCH  26  27
ENDBRANCH  25  26
ENDBRANCH  23  25
ENDBRANCH  22  23
ENDBRANCH  12  22
BRANCH  17  38
HETATM   38  C   UNL     1      -6.073   9.568  69.379  1.00  0.00    -0.036 C  
HETATM   39  C   UNL     1      -6.070  10.080  70.601  1.00  0.00    -0.101 C  
ENDBRANCH  17  38
TORSDOF 6
ENDMDL
MODEL      114
REMARK 921   NORMALIZED FREE ENERGY PREDICTED BY IDOCK:   -4.40 KCAL/MOL
REMARK 922        TOTAL FREE ENERGY PREDICTED BY IDOCK:   -7.17 KCAL/MOL
REMARK 923 INTER-LIGAND FREE ENERGY PREDICTED BY IDOCK:   -5.63 KCAL/MOL
REMARK 924 INTRA-LIGAND FREE ENERGY PREDICTED BY IDOCK:   -1.55 KCAL/MOL
REMARK 927      BINDING AFFINITY PREDICTED BY RF-SCORE:    0.00 PKD
ROOT
HETATM    1  C   UNL     1      -9.350   5.813  70.627  1.00  0.00    -0.186 C  
HETATM    2  C   UNL     1      -8.199   4.712  69.406  1.00  0.00    -0.072 C  
HETATM    3  C   UNL     1      -6.864   3.879  70.549  1.00  0.00    -0.033 C  
HETATM    4  O   UNL     1      -8.307   4.594  68.192  1.00  0.00    -0.094 OA 
HETATM    5  C   UNL     1      -7.142   4.611  72.379  1.00  0.00    -0.074 C  
HETATM    6  C   UNL     1      -8.822   5.501  72.303  1.00  0.00    -0.132 C  
HETATM    7  C   UNL     1     -10.047   5.117  73.156  1.00  0.00    -0.191 C  
HETATM    8  C   UNL     1     -11.432   5.502  72.507  1.00  0.00    -0.303 C  
HETATM    9  C   UNL     1     -11.470   6.820  71.695  1.00  0.00    -0.322 C  
HETATM   10  C   UNL     1     -11.227   7.934  72.744  1.00  0.00    -0.466 C  
HETATM   11  C   UNL     1     -10.550   6.774  70.392  1.00  0.00    -0.262 C  
HETATM   12  C   UNL     1      -9.993   8.269  70.137  1.00  0.00    -0.187 C  
HETATM   13  C   UNL     1     -11.273   6.262  69.135  1.00  0.00    -0.439 C  
HETATM   14  C   UNL     1      -8.474   8.409  69.933  1.00  0.00    -0.126 C  
HETATM   15  O   UNL     1      -5.718   5.995  70.738  1.00  0.00    -0.017 OA 
HETATM   16  C   UNL     1      -8.517   4.638  71.316  1.00  0.00    -0.112 C  
HETATM   17  C   UNL     1      -7.394   7.864  71.088  1.00  0.00    -0.063 C  
HETATM   18  C   UNL     1      -7.163   6.131  70.678  1.00  0.00    -0.077 C  
HETATM   19  H   UNL     1      -5.595   5.078  70.521  1.00  0.00     0.000 HD 
HETATM   20  C   UNL     1      -9.809   3.561  70.650  1.00  0.00    -0.093 C  
HETATM   21  C   UNL     1      -6.455   9.118  70.991  1.00  0.00    -0.081 C  
ENDROOT
BRANCH  12  22
HETATM   22  O   UNL     1     -10.618   8.879  68.989  1.00  0.00    -0.226 OA 
BRANCH  22  23
HETATM   23  C   UNL     1     -11.266  10.062  69.198  1.00  0.00    -0.149 C  
HETATM   24  O   UNL     1     -11.788  10.411  70.248  1.00  0.00    -0.270 OA 
BRANCH  23  25
HETATM   25  C   UNL     1     -11.155  10.952  67.987  1.00  0.00    -0.293 C  
BRANCH  25  26
HETATM   26  S   UNL     1      -9.790  10.428  66.911  1.00  0.00    -0.199 SA 
BRANCH  26  27
HETATM   27  C   UNL     1      -8.431  11.496  67.533  1.00  0.00    -0.143 C  
HETATM   28  C   UNL     1      -8.686  12.976  67.228  1.00  0.00    -0.209 C  
HETATM   29  C   UNL     1      -7.608  13.854  67.863  1.00  0.00    -0.158 C  
HETATM   30  C   UNL     1      -6.209  13.433  67.397  1.00  0.00     0.048 C  
HETATM   31  N   UNL     1      -5.192  14.251  68.050  1.00  0.00    -0.166 NA 
HETATM   32  C   UNL     1      -5.950  11.950  67.684  1.00  0.00    -0.084 C  
HETATM   33  C   UNL     1      -7.028  11.063  67.054  1.00  0.00    -0.117 C  
HETATM   34  H2  UNL     1      -5.278  14.228  69.066  1.00  0.00     0.000 HD 
HETATM   35  H1  UNL     1      -4.262  13.971  67.740  1.00  0.00     0.000 HD 
HETATM   36  O   UNL     1      -6.744   9.705  67.389  1.00  0.00    -0.070 OA 
HETATM   37  H   UNL     1      -5.881   9.439  67.094  1.00  0.00     0.000 HD 
ENDBRANCH  26  27
ENDBRANCH  25  26
ENDBRANCH  23  25
ENDBRANCH  22  23
ENDBRANCH  12  22
BRANCH  17  38
HETATM   38  C   UNL     1      -7.034   7.674  72.548  1.00  0.00    -0.074 C  
HETATM   39  C   UNL     1      -7.264   8.172  73.754  1.00  0.00    -0.186 C  
ENDBRANCH  17  38
TORSDOF 6
ENDMDL
MODEL      115
REMARK 921   NORMALIZED FREE ENERGY PREDICTED BY IDOCK:   -4.38 KCAL/MOL
REMARK 922        TOTAL FREE ENERGY PREDICTED BY IDOCK:   -7.15 KCAL/MOL
REMARK 923 INTER-LIGAND FREE ENERGY PREDICTED BY IDOCK:   -5.20 KCAL/MOL
REMARK 924 INTRA-LIGAND FREE ENERGY PREDICTED BY IDOCK:   -1.96 KCAL/MOL
REMARK 927      BINDING AFFINITY PREDICTED BY RF-SCORE:    0.00 PKD
ROOT
HETATM    1  C   UNL     1      -9.987  13.587  68.213  1.00  0.00    -0.237 C  
HETATM    2  C   UNL     1      -9.539  14.967  69.600  1.00  0.00     0.055 C  
HETATM    3  C   UNL     1      -8.112  16.042  68.833  1.00  0.00    -0.218 C  
HETATM    4  O   UNL     1     -10.051  15.102  70.704  1.00  0.00     0.072 OA 
HETATM    5  C   UNL     1      -7.633  15.199  67.095  1.00  0.00    -0.204 C  
HETATM    6  C   UNL     1      -9.028  13.950  66.753  1.00  0.00    -0.206 C  
HETATM    7  C   UNL     1      -9.967  14.010  65.533  1.00  0.00    -0.302 C  
HETATM    8  C   UNL     1     -11.376  13.342  65.769  1.00  0.00    -0.328 C  
HETATM    9  C   UNL     1     -11.399  12.081  66.667  1.00  0.00    -0.399 C  
HETATM   10  C   UNL     1     -10.609  11.015  65.868  1.00  0.00    -0.270 C  
HETATM   11  C   UNL     1     -10.973  12.385  68.176  1.00  0.00    -0.263 C  
HETATM   12  C   UNL     1     -10.230  11.069  68.747  1.00  0.00    -0.198 C  
HETATM   13  C   UNL     1     -12.149  12.763  69.092  1.00  0.00    -0.206 C  
HETATM   14  C   UNL     1      -8.861  11.289  69.414  1.00  0.00     0.413 C  
HETATM   15  O   UNL     1      -6.554  14.241  69.228  1.00  0.00    -0.107 OA 
HETATM   16  C   UNL     1      -9.239  14.895  67.687  1.00  0.00    -0.187 C  
HETATM   17  C   UNL     1      -7.607  12.025  68.589  1.00  0.00    -0.112 C  
HETATM   18  C   UNL     1      -7.883  13.778  68.862  1.00  0.00     0.005 C  
HETATM   19  H   UNL     1      -6.700  15.169  69.372  1.00  0.00     0.000 HD 
HETATM   20  C   UNL     1     -10.869  15.671  67.811  1.00  0.00    -0.307 C  
HETATM   21  C   UNL     1      -6.511  11.025  69.101  1.00  0.00    -0.066 C  
ENDROOT
BRANCH  12  22
HETATM   22  O   UNL     1     -11.049  10.374  69.709  1.00  0.00    -0.254 OA 
BRANCH  22  23
HETATM   23  C   UNL     1     -10.523   9.243  70.262  1.00  0.00    -0.228 C  
HETATM   24  O   UNL     1     -10.282   9.078  71.451  1.00  0.00    -0.275 OA 
BRANCH  23  25
HETATM   25  C   UNL     1     -10.381   8.158  69.226  1.00  0.00    -0.217 C  
BRANCH  25  26
HETATM   26  S   UNL     1      -8.799   7.285  69.403  1.00  0.00    -0.136 SA 
BRANCH  26  27
HETATM   27  C   UNL     1      -8.300   7.114  67.644  1.00  0.00    -0.117 C  
HETATM   28  C   UNL     1      -8.199   8.475  66.947  1.00  0.00    -0.106 C  
HETATM   29  C   UNL     1      -7.662   8.316  65.524  1.00  0.00    -0.101 C  
HETATM   30  C   UNL     1      -8.531   7.349  64.712  1.00  0.00     0.096 C  
HETATM   31  N   UNL     1      -7.976   7.175  63.373  1.00  0.00    -0.249 NA 
HETATM   32  C   UNL     1      -8.650   5.990  65.409  1.00  0.00    -0.127 C  
HETATM   33  C   UNL     1      -9.184   6.139  66.836  1.00  0.00    -0.128 C  
HETATM   34  H2  UNL     1      -7.000   6.880  63.400  1.00  0.00     0.000 HD 
HETATM   35  H1  UNL     1      -8.554   6.532  62.833  1.00  0.00     0.000 HD 
HETATM   36  O   UNL     1      -9.236   4.844  67.434  1.00  0.00    -0.118 OA 
HETATM   37  H   UNL     1      -9.781   4.245  66.937  1.00  0.00     0.000 HD 
ENDBRANCH  26  27
ENDBRANCH  25  26
ENDBRANCH  23  25
ENDBRANCH  22  23
ENDBRANCH  12  22
BRANCH  17  38
HETATM   38  C   UNL     1      -6.847  12.239  67.295  1.00  0.00    -0.140 C  
HETATM   39  C   UNL     1      -5.945  11.671  66.508  1.00  0.00    -0.036 C  
ENDBRANCH  17  38
TORSDOF 6
ENDMDL
MODEL      116
REMARK 921   NORMALIZED FREE ENERGY PREDICTED BY IDOCK:   -4.37 KCAL/MOL
REMARK 922        TOTAL FREE ENERGY PREDICTED BY IDOCK:   -7.14 KCAL/MOL
REMARK 923 INTER-LIGAND FREE ENERGY PREDICTED BY IDOCK:   -5.49 KCAL/MOL
REMARK 924 INTRA-LIGAND FREE ENERGY PREDICTED BY IDOCK:   -1.65 KCAL/MOL
REMARK 927      BINDING AFFINITY PREDICTED BY RF-SCORE:    0.00 PKD
ROOT
HETATM    1  C   UNL     1      -6.869  17.255  67.433  1.00  0.00    -0.185 C  
HETATM    2  C   UNL     1      -6.706  18.261  65.704  1.00  0.00    -0.256 C  
HETATM    3  C   UNL     1      -7.667  19.930  65.973  1.00  0.00    -0.337 C  
HETATM    4  O   UNL     1      -6.129  17.899  64.686  1.00  0.00     0.213 OA 
HETATM    5  C   UNL     1      -8.506  19.822  67.774  1.00  0.00    -0.359 C  
HETATM    6  C   UNL     1      -7.692  18.316  68.607  1.00  0.00    -0.318 C  
HETATM    7  C   UNL     1      -6.857  18.385  69.899  1.00  0.00     0.269 C  
HETATM    8  C   UNL     1      -5.787  17.234  70.039  1.00  0.00    -0.230 C  
HETATM    9  C   UNL     1      -6.192  15.846  69.485  1.00  0.00    -0.163 C  
HETATM   10  C   UNL     1      -7.358  15.385  70.394  1.00  0.00     0.605 C  
HETATM   11  C   UNL     1      -6.402  15.847  67.902  1.00  0.00    -0.154 C  
HETATM   12  C   UNL     1      -7.552  14.764  67.564  1.00  0.00    -0.193 C  
HETATM   13  C   UNL     1      -5.128  15.527  67.103  1.00  0.00     0.427 C  
HETATM   14  C   UNL     1      -8.709  15.248  66.671  1.00  0.00    -0.327 C  
HETATM   15  O   UNL     1      -9.761  18.742  65.801  1.00  0.00    -0.450 OA 
HETATM   16  C   UNL     1      -7.101  18.831  67.513  1.00  0.00    -0.216 C  
HETATM   17  C   UNL     1      -9.638  16.569  67.102  1.00  0.00    -0.243 C  
HETATM   18  C   UNL     1      -8.718  17.971  66.458  1.00  0.00    -0.260 C  
HETATM   19  H   UNL     1      -9.275  19.484  65.460  1.00  0.00     0.000 HD 
HETATM   20  C   UNL     1      -5.296  18.931  67.444  1.00  0.00    -0.158 C  
HETATM   21  C   UNL     1     -11.002  15.909  66.693  1.00  0.00    -0.136 C  
ENDROOT
BRANCH  12  22
HETATM   22  O   UNL     1      -7.006  13.591  66.927  1.00  0.00     0.142 OA 
BRANCH  22  23
HETATM   23  C   UNL     1      -7.350  12.384  67.461  1.00  0.00    -0.146 C  
HETATM   24  O   UNL     1      -6.681  11.743  68.261  1.00  0.00    -0.060 OA 
BRANCH  23  25
HETATM   25  C   UNL     1      -8.736  11.984  67.027  1.00  0.00    -0.188 C  
BRANCH  25  26
HETATM   26  S   UNL     1      -9.404  10.673  68.091  1.00  0.00    -0.156 SA 
BRANCH  26  27
HETATM   27  C   UNL     1     -10.836  11.538  68.848  1.00  0.00    -0.218 C  
HETATM   28  C   UNL     1     -10.557  13.032  69.048  1.00  0.00    -0.079 C  
HETATM   29  C   UNL     1     -11.804  13.752  69.561  1.00  0.00    -0.394 C  
HETATM   30  C   UNL     1     -12.315  13.113  70.857  1.00  0.00    -0.307 C  
HETATM   31  N   UNL     1     -13.531  13.784  71.306  1.00  0.00    -0.225 NA 
HETATM   32  C   UNL     1     -12.583  11.615  70.671  1.00  0.00    -0.319 C  
HETATM   33  C   UNL     1     -11.339  10.886  70.154  1.00  0.00    -0.284 C  
HETATM   34  H2  UNL     1     -14.247  13.799  70.580  1.00  0.00     0.000 HD 
HETATM   35  H1  UNL     1     -13.871  13.359  72.168  1.00  0.00     0.000 HD 
HETATM   36  O   UNL     1     -11.670   9.510  69.972  1.00  0.00    -0.442 OA 
HETATM   37  H   UNL     1     -11.979   9.109  70.776  1.00  0.00     0.000 HD 
ENDBRANCH  26  27
ENDBRANCH  25  26
ENDBRANCH  23  25
ENDBRANCH  22  23
ENDBRANCH  12  22
BRANCH  17  38
HETATM   38  C   UNL     1     -10.325  17.383  68.181  1.00  0.00    -0.366 C  
HETATM   39  C   UNL     1     -10.773  17.300  69.425  1.00  0.00     0.019 C  
ENDBRANCH  17  38
TORSDOF 6
ENDMDL
MODEL      117
REMARK 921   NORMALIZED FREE ENERGY PREDICTED BY IDOCK:   -4.37 KCAL/MOL
REMARK 922        TOTAL FREE ENERGY PREDICTED BY IDOCK:   -7.14 KCAL/MOL
REMARK 923 INTER-LIGAND FREE ENERGY PREDICTED BY IDOCK:   -5.22 KCAL/MOL
REMARK 924 INTRA-LIGAND FREE ENERGY PREDICTED BY IDOCK:   -1.91 KCAL/MOL
REMARK 927      BINDING AFFINITY PREDICTED BY RF-SCORE:    0.00 PKD
ROOT
HETATM    1  C   UNL     1      -8.895   8.081  68.310  1.00  0.00    -0.133 C  
HETATM    2  C   UNL     1      -8.579  10.055  68.484  1.00  0.00    -0.119 C  
HETATM    3  C   UNL     1      -9.313  10.852  66.869  1.00  0.00    -0.186 C  
HETATM    4  O   UNL     1      -8.031  10.640  69.411  1.00  0.00    -0.154 OA 
HETATM    5  C   UNL     1      -9.901   9.346  65.708  1.00  0.00    -0.345 C  
HETATM    6  C   UNL     1      -9.854   7.810  66.830  1.00  0.00    -0.312 C  
HETATM    7  C   UNL     1     -11.084   6.949  67.175  1.00  0.00    -0.362 C  
HETATM    8  C   UNL     1     -10.974   6.189  68.552  1.00  0.00    -0.404 C  
HETATM    9  C   UNL     1      -9.568   5.674  68.945  1.00  0.00    -0.168 C  
HETATM   10  C   UNL     1      -9.239   4.587  67.892  1.00  0.00    -0.162 C  
HETATM   11  C   UNL     1      -8.520   6.854  69.189  1.00  0.00    -0.129 C  
HETATM   12  C   UNL     1      -7.064   6.309  68.750  1.00  0.00    -0.082 C  
HETATM   13  C   UNL     1      -8.475   7.359  70.640  1.00  0.00    -0.136 C  
HETATM   14  C   UNL     1      -6.261   7.199  67.785  1.00  0.00    -0.042 C  
HETATM   15  O   UNL     1      -7.420  10.032  65.616  1.00  0.00    -0.123 OA 
HETATM   16  C   UNL     1      -9.820   9.023  67.414  1.00  0.00    -0.244 C  
HETATM   17  C   UNL     1      -6.888   7.649  66.302  1.00  0.00    -0.062 C  
HETATM   18  C   UNL     1      -7.845   9.125  66.669  1.00  0.00    -0.100 C  
HETATM   19  H   UNL     1      -7.926  10.812  65.809  1.00  0.00     0.000 HD 
HETATM   20  C   UNL     1     -10.740   9.294  68.947  1.00  0.00    -0.182 C  
HETATM   21  C   UNL     1      -5.549   7.413  65.517  1.00  0.00    -0.033 C  
ENDROOT
BRANCH  12  22
HETATM   22  O   UNL     1      -6.217   6.077  69.894  1.00  0.00    -0.025 OA 
BRANCH  22  23
HETATM   23  C   UNL     1      -5.999   4.777  70.245  1.00  0.00    -0.018 C  
HETATM   24  O   UNL     1      -6.073   3.815  69.491  1.00  0.00    -0.025 OA 
BRANCH  23  25
HETATM   25  C   UNL     1      -5.531   4.680  71.674  1.00  0.00    -0.004 C  
BRANCH  25  26
HETATM   26  S   UNL     1      -6.141   3.163  72.463  1.00  0.00    -0.009 SA 
BRANCH  26  27
HETATM   27  C   UNL     1      -7.845   3.673  72.921  1.00  0.00    -0.066 C  
HETATM   28  C   UNL     1      -8.843   3.401  71.790  1.00  0.00    -0.133 C  
HETATM   29  C   UNL     1     -10.270   3.716  72.240  1.00  0.00    -0.188 C  
HETATM   30  C   UNL     1     -10.386   5.162  72.735  1.00  0.00    -0.197 C  
HETATM   31  N   UNL     1     -11.742   5.429  73.202  1.00  0.00    -0.538 NA 
HETATM   32  C   UNL     1      -9.381   5.448  73.855  1.00  0.00    -0.133 C  
HETATM   33  C   UNL     1      -7.948   5.132  73.414  1.00  0.00    -0.111 C  
HETATM   34  H2  UNL     1     -12.040   4.758  73.911  1.00  0.00     0.000 HD 
HETATM   35  H1  UNL     1     -11.819   6.391  73.531  1.00  0.00     0.000 HD 
HETATM   36  O   UNL     1      -7.074   5.388  74.514  1.00  0.00    -0.080 OA 
HETATM   37  H   UNL     1      -7.138   6.286  74.817  1.00  0.00     0.000 HD 
ENDBRANCH  26  27
ENDBRANCH  25  26
ENDBRANCH  23  25
ENDBRANCH  22  23
ENDBRANCH  12  22
BRANCH  17  38
HETATM   38  C   UNL     1      -7.702   7.302  65.071  1.00  0.00    -0.115 C  
HETATM   39  C   UNL     1      -7.597   6.752  63.870  1.00  0.00    -0.105 C  
ENDBRANCH  17  38
TORSDOF 6
ENDMDL
MODEL      118
REMARK 921   NORMALIZED FREE ENERGY PREDICTED BY IDOCK:   -4.32 KCAL/MOL
REMARK 922        TOTAL FREE ENERGY PREDICTED BY IDOCK:   -7.08 KCAL/MOL
REMARK 923 INTER-LIGAND FREE ENERGY PREDICTED BY IDOCK:   -5.99 KCAL/MOL
REMARK 924 INTRA-LIGAND FREE ENERGY PREDICTED BY IDOCK:   -1.08 KCAL/MOL
REMARK 927      BINDING AFFINITY PREDICTED BY RF-SCORE:    0.00 PKD
ROOT
HETATM    1  C   UNL     1      -8.882   6.005  69.808  1.00  0.00    -0.134 C  
HETATM    2  C   UNL     1      -7.930   5.982  68.042  1.00  0.00    -0.109 C  
HETATM    3  C   UNL     1      -6.151   5.288  68.411  1.00  0.00    -0.026 C  
HETATM    4  O   UNL     1      -8.371   6.337  66.956  1.00  0.00    -0.109 OA 
HETATM    5  C   UNL     1      -6.024   5.064  70.384  1.00  0.00    -0.018 C  
HETATM    6  C   UNL     1      -7.809   5.249  71.017  1.00  0.00    -0.102 C  
HETATM    7  C   UNL     1      -8.584   4.146  71.762  1.00  0.00    -0.119 C  
HETATM    8  C   UNL     1     -10.151   4.243  71.610  1.00  0.00    -0.216 C  
HETATM    9  C   UNL     1     -10.751   5.670  71.553  1.00  0.00    -0.306 C  
HETATM   10  C   UNL     1     -10.474   6.269  72.955  1.00  0.00    -0.240 C  
HETATM   11  C   UNL     1     -10.290   6.486  70.261  1.00  0.00    -0.241 C  
HETATM   12  C   UNL     1     -10.213   8.046  70.673  1.00  0.00    -0.196 C  
HETATM   13  C   UNL     1     -11.217   6.309  69.047  1.00  0.00    -0.415 C  
HETATM   14  C   UNL     1      -8.909   8.785  70.323  1.00  0.00    -0.171 C  
HETATM   15  O   UNL     1      -5.545   7.400  69.410  1.00  0.00    -0.022 OA 
HETATM   16  C   UNL     1      -7.622   5.031  69.702  1.00  0.00    -0.057 C  
HETATM   17  C   UNL     1      -7.431   8.239  70.882  1.00  0.00    -0.064 C  
HETATM   18  C   UNL     1      -6.928   7.027  69.656  1.00  0.00    -0.062 C  
HETATM   19  H   UNL     1      -5.278   6.759  68.762  1.00  0.00     0.000 HD 
HETATM   20  C   UNL     1      -8.757   3.936  68.815  1.00  0.00    -0.135 C  
HETATM   21  C   UNL     1      -6.897   9.668  71.253  1.00  0.00     0.140 C  
ENDROOT
BRANCH  12  22
HETATM   22  O   UNL     1     -11.286   8.805  70.079  1.00  0.00    -0.173 OA 
BRANCH  22  23
HETATM   23  C   UNL     1     -12.086   9.511  70.930  1.00  0.00    -0.278 C  
HETATM   24  O   UNL     1     -12.518   9.105  72.001  1.00  0.00    -0.353 OA 
BRANCH  23  25
HETATM   25  C   UNL     1     -12.279  10.921  70.436  1.00  0.00    -0.365 C  
BRANCH  25  26
HETATM   26  S   UNL     1     -13.161  11.930  71.661  1.00  0.00    -0.198 SA 
BRANCH  26  27
HETATM   27  C   UNL     1     -12.819  13.620  71.027  1.00  0.00    -0.287 C  
HETATM   28  C   UNL     1     -12.366  13.597  69.563  1.00  0.00    -0.232 C  
HETATM   29  C   UNL     1     -12.209  15.018  69.022  1.00  0.00    -0.160 C  
HETATM   30  C   UNL     1     -11.237  15.832  69.883  1.00  0.00    -0.334 C  
HETATM   31  N   UNL     1     -11.137  17.198  69.377  1.00  0.00    -0.212 NA 
HETATM   32  C   UNL     1     -11.675  15.848  71.351  1.00  0.00    -0.530 C  
HETATM   33  C   UNL     1     -11.836  14.428  71.901  1.00  0.00     0.059 C  
HETATM   34  H2  UNL     1     -12.051  17.646  69.307  1.00  0.00     0.000 HD 
HETATM   35  H1  UNL     1     -10.491  17.739  69.950  1.00  0.00     0.000 HD 
HETATM   36  O   UNL     1     -12.277  14.519  73.255  1.00  0.00    -0.208 OA 
HETATM   37  H   UNL     1     -11.672  15.017  73.794  1.00  0.00     0.000 HD 
ENDBRANCH  26  27
ENDBRANCH  25  26
ENDBRANCH  23  25
ENDBRANCH  22  23
ENDBRANCH  12  22
BRANCH  17  38
HETATM   38  C   UNL     1      -6.607   7.614  71.990  1.00  0.00    -0.054 C  
HETATM   39  C   UNL     1      -6.480   7.587  73.308  1.00  0.00    -0.065 C  
ENDBRANCH  17  38
TORSDOF 6
ENDMDL
MODEL      119
REMARK 921   NORMALIZED FREE ENERGY PREDICTED BY IDOCK:   -4.31 KCAL/MOL
REMARK 922        TOTAL FREE ENERGY PREDICTED BY IDOCK:   -7.06 KCAL/MOL
REMARK 923 INTER-LIGAND FREE ENERGY PREDICTED BY IDOCK:   -5.97 KCAL/MOL
REMARK 924 INTRA-LIGAND FREE ENERGY PREDICTED BY IDOCK:   -1.09 KCAL/MOL
REMARK 927      BINDING AFFINITY PREDICTED BY RF-SCORE:    0.00 PKD
ROOT
HETATM    1  C   UNL     1      -7.439   8.208  67.390  1.00  0.00    -0.093 C  
HETATM    2  C   UNL     1      -6.096   7.187  68.477  1.00  0.00    -0.030 C  
HETATM    3  C   UNL     1      -5.787   5.528  67.511  1.00  0.00    -0.017 C  
HETATM    4  O   UNL     1      -5.582   7.531  69.534  1.00  0.00    -0.022 OA 
HETATM    5  C   UNL     1      -7.049   5.520  65.973  1.00  0.00    -0.068 C  
HETATM    6  C   UNL     1      -7.731   7.294  65.885  1.00  0.00    -0.097 C  
HETATM    7  C   UNL     1      -7.550   8.235  64.679  1.00  0.00    -0.106 C  
HETATM    8  C   UNL     1      -7.593   9.769  65.044  1.00  0.00    -0.127 C  
HETATM    9  C   UNL     1      -8.569  10.181  66.173  1.00  0.00    -0.147 C  
HETATM   10  C   UNL     1      -9.978   9.895  65.598  1.00  0.00    -0.353 C  
HETATM   11  C   UNL     1      -8.174   9.564  67.591  1.00  0.00    -0.121 C  
HETATM   12  C   UNL     1      -9.544   9.310  68.409  1.00  0.00    -0.147 C  
HETATM   13  C   UNL     1      -7.227  10.449  68.417  1.00  0.00    -0.080 C  
HETATM   14  C   UNL     1      -9.730   7.909  69.018  1.00  0.00    -0.162 C  
HETATM   15  O   UNL     1      -7.933   4.707  68.251  1.00  0.00    -0.083 OA 
HETATM   16  C   UNL     1      -6.621   7.077  66.615  1.00  0.00    -0.052 C  
HETATM   17  C   UNL     1      -9.677   6.538  68.063  1.00  0.00    -0.119 C  
HETATM   18  C   UNL     1      -7.928   6.136  67.985  1.00  0.00    -0.110 C  
HETATM   19  H   UNL     1      -7.008   4.494  68.210  1.00  0.00     0.000 HD 
HETATM   20  C   UNL     1      -5.288   8.299  66.586  1.00  0.00    -0.032 C  
HETATM   21  C   UNL     1     -10.901   5.846  68.760  1.00  0.00    -0.353 C  
ENDROOT
BRANCH  12  22
HETATM   22  O   UNL     1      -9.698  10.251  69.491  1.00  0.00    -0.224 OA 
BRANCH  22  23
HETATM   23  C   UNL     1     -10.772  11.091  69.429  1.00  0.00    -0.205 C  
HETATM   24  O   UNL     1     -11.729  11.079  70.192  1.00  0.00    -0.299 OA 
BRANCH  23  25
HETATM   25  C   UNL     1     -10.576  12.131  68.356  1.00  0.00    -0.226 C  
BRANCH  25  26
HETATM   26  S   UNL     1     -11.792  13.469  68.510  1.00  0.00    -0.352 SA 
BRANCH  26  27
HETATM   27  C   UNL     1     -10.862  14.869  67.770  1.00  0.00    -0.286 C  
HETATM   28  C   UNL     1      -9.496  14.424  67.234  1.00  0.00    -0.215 C  
HETATM   29  C   UNL     1      -8.796  15.576  66.513  1.00  0.00    -0.348 C  
HETATM   30  C   UNL     1      -8.652  16.795  67.431  1.00  0.00    -0.193 C  
HETATM   31  N   UNL     1      -8.024  17.898  66.711  1.00  0.00    -0.223 NA 
HETATM   32  C   UNL     1     -10.011  17.238  67.983  1.00  0.00    -0.304 C  
HETATM   33  C   UNL     1     -10.721  16.089  68.705  1.00  0.00    -0.282 C  
HETATM   34  H2  UNL     1      -8.523  18.125  65.851  1.00  0.00     0.000 HD 
HETATM   35  H1  UNL     1      -7.928  18.709  67.321  1.00  0.00     0.000 HD 
HETATM   36  O   UNL     1     -11.989  16.562  69.161  1.00  0.00    -0.117 OA 
HETATM   37  H   UNL     1     -11.902  17.313  69.737  1.00  0.00     0.000 HD 
ENDBRANCH  26  27
ENDBRANCH  25  26
ENDBRANCH  23  25
ENDBRANCH  22  23
ENDBRANCH  12  22
BRANCH  17  38
HETATM   38  C   UNL     1      -9.999   5.850  66.751  1.00  0.00    -0.212 C  
HETATM   39  C   UNL     1     -10.845   4.989  66.204  1.00  0.00    -0.160 C  
ENDBRANCH  17  38
TORSDOF 6
ENDMDL
MODEL      120
REMARK 921   NORMALIZED FREE ENERGY PREDICTED BY IDOCK:   -4.30 KCAL/MOL
REMARK 922        TOTAL FREE ENERGY PREDICTED BY IDOCK:   -7.04 KCAL/MOL
REMARK 923 INTER-LIGAND FREE ENERGY PREDICTED BY IDOCK:   -5.99 KCAL/MOL
REMARK 924 INTRA-LIGAND FREE ENERGY PREDICTED BY IDOCK:   -1.05 KCAL/MOL
REMARK 927      BINDING AFFINITY PREDICTED BY RF-SCORE:    0.00 PKD
ROOT
HETATM    1  C   UNL     1      -8.650   6.188  68.852  1.00  0.00    -0.121 C  
HETATM    2  C   UNL     1      -7.482   4.820  67.961  1.00  0.00    -0.074 C  
HETATM    3  C   UNL     1      -6.864   3.648  69.385  1.00  0.00    -0.041 C  
HETATM    4  O   UNL     1      -7.209   4.740  66.770  1.00  0.00    -0.077 OA 
HETATM    5  C   UNL     1      -7.534   4.422  71.092  1.00  0.00    -0.059 C  
HETATM    6  C   UNL     1      -8.806   5.737  70.571  1.00  0.00    -0.144 C  
HETATM    7  C   UNL     1     -10.298   5.700  70.950  1.00  0.00    -0.303 C  
HETATM    8  C   UNL     1     -11.243   6.452  69.934  1.00  0.00    -0.485 C  
HETATM    9  C   UNL     1     -10.670   7.733  69.281  1.00  0.00    -0.156 C  
HETATM   10  C   UNL     1     -10.510   8.734  70.452  1.00  0.00    -0.240 C  
HETATM   11  C   UNL     1      -9.414   7.442  68.338  1.00  0.00    -0.143 C  
HETATM   12  C   UNL     1      -8.440   8.728  68.416  1.00  0.00    -0.130 C  
HETATM   13  C   UNL     1      -9.785   7.152  66.875  1.00  0.00    -0.242 C  
HETATM   14  C   UNL     1      -6.957   8.449  68.720  1.00  0.00    -0.063 C  
HETATM   15  O   UNL     1      -5.342   5.369  70.127  1.00  0.00    -0.004 OA 
HETATM   16  C   UNL     1      -8.424   4.828  69.655  1.00  0.00    -0.093 C  
HETATM   17  C   UNL     1      -6.500   7.625  70.101  1.00  0.00    -0.034 C  
HETATM   18  C   UNL     1      -6.600   5.896  69.624  1.00  0.00    -0.047 C  
HETATM   19  H   UNL     1      -5.394   4.455  69.875  1.00  0.00     0.000 HD 
HETATM   20  C   UNL     1      -9.652   4.147  68.515  1.00  0.00    -0.192 C  
HETATM   21  C   UNL     1      -5.293   8.574  70.425  1.00  0.00    -0.021 C  
ENDROOT
BRANCH  12  22
HETATM   22  O   UNL     1      -8.471   9.491  67.192  1.00  0.00    -0.129 OA 
BRANCH  22  23
HETATM   23  C   UNL     1      -7.816  10.688  67.196  1.00  0.00    -0.117 C  
HETATM   24  O   UNL     1      -6.884  10.991  66.462  1.00  0.00    -0.122 OA 
BRANCH  23  25
HETATM   25  C   UNL     1      -8.469  11.651  68.153  1.00  0.00    -0.156 C  
BRANCH  25  26
HETATM   26  S   UNL     1     -10.214  11.915  67.728  1.00  0.00    -0.204 SA 
BRANCH  26  27
HETATM   27  C   UNL     1     -10.182  13.678  67.215  1.00  0.00    -0.246 C  
HETATM   28  C   UNL     1      -8.749  14.206  67.083  1.00  0.00    -0.239 C  
HETATM   29  C   UNL     1      -8.746  15.633  66.535  1.00  0.00    -0.342 C  
HETATM   30  C   UNL     1      -9.593  16.563  67.411  1.00  0.00    -0.238 C  
HETATM   31  N   UNL     1      -9.614  17.908  66.846  1.00  0.00    -0.289 NA 
HETATM   32  C   UNL     1     -11.024  16.035  67.560  1.00  0.00    -0.261 C  
HETATM   33  C   UNL     1     -11.036  14.604  68.107  1.00  0.00    -0.274 C  
HETATM   34  H2  UNL     1      -9.928  17.909  65.875  1.00  0.00     0.000 HD 
HETATM   35  H1  UNL     1     -10.178  18.526  67.429  1.00  0.00     0.000 HD 
HETATM   36  O   UNL     1     -12.393  14.167  68.187  1.00  0.00    -0.557 OA 
HETATM   37  H   UNL     1     -12.919  14.737  68.736  1.00  0.00     0.000 HD 
ENDBRANCH  26  27
ENDBRANCH  25  26
ENDBRANCH  23  25
ENDBRANCH  22  23
ENDBRANCH  12  22
BRANCH  17  38
HETATM   38  C   UNL     1      -6.705   7.337  71.575  1.00  0.00    -0.051 C  
HETATM   39  C   UNL     1      -7.090   7.909  72.707  1.00  0.00    -0.098 C  
ENDBRANCH  17  38
TORSDOF 6
ENDMDL
MODEL      121
REMARK 921   NORMALIZED FREE ENERGY PREDICTED BY IDOCK:   -4.29 KCAL/MOL
REMARK 922        TOTAL FREE ENERGY PREDICTED BY IDOCK:   -7.04 KCAL/MOL
REMARK 923 INTER-LIGAND FREE ENERGY PREDICTED BY IDOCK:   -5.72 KCAL/MOL
REMARK 924 INTRA-LIGAND FREE ENERGY PREDICTED BY IDOCK:   -1.32 KCAL/MOL
REMARK 927      BINDING AFFINITY PREDICTED BY RF-SCORE:    0.00 PKD
ROOT
HETATM    1  C   UNL     1      -8.000   5.823  66.566  1.00  0.00    -0.102 C  
HETATM    2  C   UNL     1      -6.265   5.550  65.595  1.00  0.00    -0.034 C  
HETATM    3  C   UNL     1      -5.787   3.688  65.885  1.00  0.00    -0.019 C  
HETATM    4  O   UNL     1      -5.633   6.383  64.958  1.00  0.00    -0.021 OA 
HETATM    5  C   UNL     1      -7.142   2.938  67.136  1.00  0.00    -0.053 C  
HETATM    6  C   UNL     1      -8.528   4.240  67.198  1.00  0.00    -0.100 C  
HETATM    7  C   UNL     1      -9.983   3.981  66.761  1.00  0.00    -0.071 C  
HETATM    8  C   UNL     1     -10.753   5.271  66.283  1.00  0.00    -0.260 C  
HETATM    9  C   UNL     1     -10.420   6.588  67.026  1.00  0.00    -0.364 C  
HETATM   10  C   UNL     1     -10.930   6.363  68.471  1.00  0.00    -0.396 C  
HETATM   11  C   UNL     1      -8.911   7.061  66.805  1.00  0.00    -0.145 C  
HETATM   12  C   UNL     1      -8.438   7.819  68.152  1.00  0.00    -0.124 C  
HETATM   13  C   UNL     1      -8.717   7.982  65.589  1.00  0.00    -0.156 C  
HETATM   14  C   UNL     1      -7.105   7.356  68.766  1.00  0.00    -0.081 C  
HETATM   15  O   UNL     1      -5.149   4.214  68.153  1.00  0.00    -0.006 OA 
HETATM   16  C   UNL     1      -7.633   4.315  66.195  1.00  0.00    -0.089 C  
HETATM   17  C   UNL     1      -6.863   5.760  69.202  1.00  0.00    -0.062 C  
HETATM   18  C   UNL     1      -6.292   4.982  67.688  1.00  0.00    -0.040 C  
HETATM   19  H   UNL     1      -4.847   3.802  67.352  1.00  0.00     0.000 HD 
HETATM   20  C   UNL     1      -8.196   4.764  64.536  1.00  0.00    -0.115 C  
HETATM   21  C   UNL     1      -6.153   6.102  70.560  1.00  0.00    -0.030 C  
ENDROOT
BRANCH  12  22
HETATM   22  O   UNL     1      -8.322   9.242  67.947  1.00  0.00    -0.115 OA 
BRANCH  22  23
HETATM   23  C   UNL     1      -8.806  10.047  68.936  1.00  0.00    -0.148 C  
HETATM   24  O   UNL     1      -8.127  10.713  69.707  1.00  0.00    -0.061 OA 
BRANCH  23  25
HETATM   25  C   UNL     1     -10.311  10.109  68.887  1.00  0.00    -0.206 C  
BRANCH  25  26
HETATM   26  S   UNL     1     -10.889  10.742  67.286  1.00  0.00    -0.278 SA 
BRANCH  26  27
HETATM   27  C   UNL     1     -10.524  12.532  67.470  1.00  0.00    -0.219 C  
HETATM   28  C   UNL     1     -11.402  13.184  68.544  1.00  0.00    -0.321 C  
HETATM   29  C   UNL     1     -10.994  14.641  68.766  1.00  0.00    -0.268 C  
HETATM   30  C   UNL     1     -11.051  15.435  67.456  1.00  0.00    -0.315 C  
HETATM   31  N   UNL     1     -10.614  16.810  67.680  1.00  0.00    -0.331 NA 
HETATM   32  C   UNL     1     -10.188  14.782  66.372  1.00  0.00    -0.299 C  
HETATM   33  C   UNL     1     -10.588  13.322  66.144  1.00  0.00    -0.287 C  
HETATM   34  H2  UNL     1      -9.691  16.851  68.111  1.00  0.00     0.000 HD 
HETATM   35  H1  UNL     1     -10.652  17.338  66.809  1.00  0.00     0.000 HD 
HETATM   36  O   UNL     1      -9.724  12.770  65.151  1.00  0.00    -0.473 OA 
HETATM   37  H   UNL     1      -9.763  13.255  64.336  1.00  0.00     0.000 HD 
ENDBRANCH  26  27
ENDBRANCH  25  26
ENDBRANCH  23  25
ENDBRANCH  22  23
ENDBRANCH  12  22
BRANCH  17  38
HETATM   38  C   UNL     1      -7.410   4.470  69.782  1.00  0.00    -0.051 C  
HETATM   39  C   UNL     1      -8.213   4.009  70.729  1.00  0.00    -0.076 C  
ENDBRANCH  17  38
TORSDOF 6
ENDMDL
MODEL      122
REMARK 921   NORMALIZED FREE ENERGY PREDICTED BY IDOCK:   -4.26 KCAL/MOL
REMARK 922        TOTAL FREE ENERGY PREDICTED BY IDOCK:   -6.98 KCAL/MOL
REMARK 923 INTER-LIGAND FREE ENERGY PREDICTED BY IDOCK:   -5.75 KCAL/MOL
REMARK 924 INTRA-LIGAND FREE ENERGY PREDICTED BY IDOCK:   -1.24 KCAL/MOL
REMARK 927      BINDING AFFINITY PREDICTED BY RF-SCORE:    0.00 PKD
ROOT
HETATM    1  C   UNL     1      -9.902  16.573  67.755  1.00  0.00    -0.240 C  
HETATM    2  C   UNL     1      -9.442  18.402  68.443  1.00  0.00    -0.332 C  
HETATM    3  C   UNL     1      -7.905  18.985  67.405  1.00  0.00    -0.263 C  
HETATM    4  O   UNL     1     -10.006  19.022  69.336  1.00  0.00    -0.256 OA 
HETATM    5  C   UNL     1      -7.386  17.453  66.245  1.00  0.00    -0.347 C  
HETATM    6  C   UNL     1      -8.839  16.231  66.363  1.00  0.00    -0.346 C  
HETATM    7  C   UNL     1      -9.701  15.789  65.165  1.00  0.00     0.187 C  
HETATM    8  C   UNL     1     -11.163  15.340  65.552  1.00  0.00    -0.277 C  
HETATM    9  C   UNL     1     -11.321  14.596  66.901  1.00  0.00    -0.361 C  
HETATM   10  C   UNL     1     -10.560  13.262  66.705  1.00  0.00    -0.276 C  
HETATM   11  C   UNL     1     -10.963  15.511  68.160  1.00  0.00    -0.312 C  
HETATM   12  C   UNL     1     -10.344  14.548  69.300  1.00  0.00    -0.142 C  
HETATM   13  C   UNL     1     -12.161  16.291  68.726  1.00  0.00     0.328 C  
HETATM   14  C   UNL     1      -9.004  14.987  69.916  1.00  0.00     0.247 C  
HETATM   15  O   UNL     1      -6.497  17.481  68.662  1.00  0.00    -0.179 OA 
HETATM   16  C   UNL     1      -9.039  17.495  66.778  1.00  0.00    -0.276 C  
HETATM   17  C   UNL     1      -7.658  15.246  68.958  1.00  0.00    -0.172 C  
HETATM   18  C   UNL     1      -7.830  16.952  68.425  1.00  0.00    -0.229 C  
HETATM   19  H   UNL     1      -6.587  18.383  68.380  1.00  0.00     0.000 HD 
HETATM   20  C   UNL     1     -10.617  18.305  66.424  1.00  0.00    -0.318 C  
HETATM   21  C   UNL     1      -6.662  14.529  69.937  1.00  0.00    -0.132 C  
ENDROOT
BRANCH  12  22
HETATM   22  O   UNL     1     -11.261  14.370  70.399  1.00  0.00    -0.155 OA 
BRANCH  22  23
HETATM   23  C   UNL     1     -11.886  13.160  70.489  1.00  0.00    -0.101 C  
HETATM   24  O   UNL     1     -13.013  12.974  70.929  1.00  0.00    -0.179 OA 
BRANCH  23  25
HETATM   25  C   UNL     1     -11.047  12.077  69.862  1.00  0.00     0.200 C  
BRANCH  25  26
HETATM   26  S   UNL     1     -11.469  10.446  70.539  1.00  0.00    -0.352 SA 
BRANCH  26  27
HETATM   27  C   UNL     1     -10.057   9.443  69.929  1.00  0.00    -0.218 C  
HETATM   28  C   UNL     1      -8.958  10.320  69.320  1.00  0.00    -0.190 C  
HETATM   29  C   UNL     1      -7.742   9.476  68.935  1.00  0.00    -0.076 C  
HETATM   30  C   UNL     1      -8.136   8.347  67.975  1.00  0.00    -0.123 C  
HETATM   31  N   UNL     1      -6.972   7.526  67.657  1.00  0.00    -0.077 NA 
HETATM   32  C   UNL     1      -9.246   7.474  68.571  1.00  0.00    -0.143 C  
HETATM   33  C   UNL     1     -10.467   8.312  68.962  1.00  0.00    -0.197 C  
HETATM   34  H2  UNL     1      -6.516   7.171  68.497  1.00  0.00     0.000 HD 
HETATM   35  H1  UNL     1      -7.235   6.775  67.019  1.00  0.00     0.000 HD 
HETATM   36  O   UNL     1     -11.441   7.442  69.538  1.00  0.00    -0.463 OA 
HETATM   37  H   UNL     1     -11.693   6.746  68.942  1.00  0.00     0.000 HD 
ENDBRANCH  26  27
ENDBRANCH  25  26
ENDBRANCH  23  25
ENDBRANCH  22  23
ENDBRANCH  12  22
BRANCH  17  38
HETATM   38  C   UNL     1      -6.812  14.849  67.764  1.00  0.00    -0.193 C  
HETATM   39  C   UNL     1      -5.946  13.933  67.356  1.00  0.00     0.218 C  
ENDBRANCH  17  38
TORSDOF 6
ENDMDL
MODEL      123
REMARK 921   NORMALIZED FREE ENERGY PREDICTED BY IDOCK:   -4.23 KCAL/MOL
REMARK 922        TOTAL FREE ENERGY PREDICTED BY IDOCK:   -6.95 KCAL/MOL
REMARK 923 INTER-LIGAND FREE ENERGY PREDICTED BY IDOCK:   -5.47 KCAL/MOL
REMARK 924 INTRA-LIGAND FREE ENERGY PREDICTED BY IDOCK:   -1.48 KCAL/MOL
REMARK 927      BINDING AFFINITY PREDICTED BY RF-SCORE:    0.00 PKD
ROOT
HETATM    1  C   UNL     1      -9.774  12.864  66.999  1.00  0.00    -0.230 C  
HETATM    2  C   UNL     1     -11.276  12.590  65.696  1.00  0.00    -0.317 C  
HETATM    3  C   UNL     1     -12.385  14.182  65.827  1.00  0.00    -0.481 C  
HETATM    4  O   UNL     1     -11.462  11.620  64.972  1.00  0.00    -0.234 OA 
HETATM    5  C   UNL     1     -11.624  15.288  67.297  1.00  0.00    -0.164 C  
HETATM    6  C   UNL     1      -9.929  14.509  67.673  1.00  0.00    -0.224 C  
HETATM    7  C   UNL     1      -8.583  15.244  67.525  1.00  0.00    -0.190 C  
HETATM    8  C   UNL     1      -7.354  14.295  67.249  1.00  0.00    -0.052 C  
HETATM    9  C   UNL     1      -7.378  12.916  67.952  1.00  0.00    -0.127 C  
HETATM   10  C   UNL     1      -7.265  13.243  69.462  1.00  0.00     0.333 C  
HETATM   11  C   UNL     1      -8.574  11.984  67.452  1.00  0.00    -0.171 C  
HETATM   12  C   UNL     1      -9.030  11.065  68.700  1.00  0.00    -0.167 C  
HETATM   13  C   UNL     1      -8.213  11.095  66.251  1.00  0.00    -0.153 C  
HETATM   14  C   UNL     1     -10.534  11.045  69.024  1.00  0.00    -0.242 C  
HETATM   15  O   UNL     1     -13.249  13.395  67.939  1.00  0.00     1.360 OA 
HETATM   16  C   UNL     1     -10.534  14.181  66.516  1.00  0.00    -0.280 C  
HETATM   17  C   UNL     1     -11.365  12.457  69.354  1.00  0.00    -0.286 C  
HETATM   18  C   UNL     1     -11.849  13.060  67.733  1.00  0.00    -0.347 C  
HETATM   19  H   UNL     1     -13.505  13.715  67.082  1.00  0.00     0.000 HD 
HETATM   20  C   UNL     1      -9.540  14.002  65.015  1.00  0.00     0.344 C  
HETATM   21  C   UNL     1     -12.177  11.853  70.554  1.00  0.00    -0.426 C  
ENDROOT
BRANCH  12  22
HETATM   22  O   UNL     1      -8.630   9.691  68.521  1.00  0.00    -0.117 OA 
BRANCH  22  23
HETATM   23  C   UNL     1      -7.485   9.296  69.149  1.00  0.00    -0.072 C  
HETATM   24  O   UNL     1      -6.477   8.880  68.593  1.00  0.00    -0.052 OA 
BRANCH  23  25
HETATM   25  C   UNL     1      -7.573   9.550  70.631  1.00  0.00    -0.122 C  
BRANCH  25  26
HETATM   26  S   UNL     1      -7.953   8.023  71.537  1.00  0.00    -0.114 SA 
BRANCH  26  27
HETATM   27  C   UNL     1      -9.775   7.938  71.322  1.00  0.00    -0.157 C  
HETATM   28  C   UNL     1     -10.513   8.111  72.654  1.00  0.00    -0.401 C  
HETATM   29  C   UNL     1     -12.025   8.163  72.432  1.00  0.00    -0.431 C  
HETATM   30  C   UNL     1     -12.517   6.913  71.693  1.00  0.00    -0.375 C  
HETATM   31  N   UNL     1     -13.954   7.002  71.451  1.00  0.00    -0.332 NA 
HETATM   32  C   UNL     1     -11.774   6.723  70.367  1.00  0.00    -0.418 C  
HETATM   33  C   UNL     1     -10.258   6.673  70.579  1.00  0.00    -0.189 C  
HETATM   34  H2  UNL     1     -14.204   7.860  70.958  1.00  0.00     0.000 HD 
HETATM   35  H1  UNL     1     -14.281   6.171  70.959  1.00  0.00     0.000 HD 
HETATM   36  O   UNL     1      -9.631   6.530  69.304  1.00  0.00    -0.139 OA 
HETATM   37  H   UNL     1      -9.928   5.752  68.847  1.00  0.00     0.000 HD 
ENDBRANCH  26  27
ENDBRANCH  25  26
ENDBRANCH  23  25
ENDBRANCH  22  23
ENDBRANCH  12  22
BRANCH  17  38
HETATM   38  C   UNL     1     -11.396  13.833  69.990  1.00  0.00    -0.089 C  
HETATM   39  C   UNL     1     -12.087  14.573  70.845  1.00  0.00    -0.404 C  
ENDBRANCH  17  38
TORSDOF 6
ENDMDL
MODEL      124
REMARK 921   NORMALIZED FREE ENERGY PREDICTED BY IDOCK:   -4.23 KCAL/MOL
REMARK 922        TOTAL FREE ENERGY PREDICTED BY IDOCK:   -6.94 KCAL/MOL
REMARK 923 INTER-LIGAND FREE ENERGY PREDICTED BY IDOCK:   -6.12 KCAL/MOL
REMARK 924 INTRA-LIGAND FREE ENERGY PREDICTED BY IDOCK:   -0.82 KCAL/MOL
REMARK 927      BINDING AFFINITY PREDICTED BY RF-SCORE:    0.00 PKD
ROOT
HETATM    1  C   UNL     1     -10.229  14.608  68.237  1.00  0.00    -0.227 C  
HETATM    2  C   UNL     1     -10.366  15.638  69.954  1.00  0.00    -0.315 C  
HETATM    3  C   UNL     1     -10.358  17.515  69.445  1.00  0.00    -0.067 C  
HETATM    4  O   UNL     1     -10.433  15.183  71.089  1.00  0.00     0.046 OA 
HETATM    5  C   UNL     1     -10.061  17.571  67.478  1.00  0.00    -0.326 C  
HETATM    6  C   UNL     1     -10.303  15.777  66.891  1.00  0.00    -0.295 C  
HETATM    7  C   UNL     1     -11.387  15.330  65.892  1.00  0.00    -0.172 C  
HETATM    8  C   UNL     1     -11.826  13.823  66.047  1.00  0.00    -0.415 C  
HETATM    9  C   UNL     1     -10.715  12.819  66.444  1.00  0.00    -0.282 C  
HETATM   10  C   UNL     1      -9.749  12.804  65.234  1.00  0.00    -0.024 C  
HETATM   11  C   UNL     1     -10.123  13.093  67.901  1.00  0.00    -0.232 C  
HETATM   12  C   UNL     1      -8.567  12.659  67.883  1.00  0.00    -0.181 C  
HETATM   13  C   UNL     1     -10.862  12.349  69.025  1.00  0.00    -0.194 C  
HETATM   14  C   UNL     1      -7.560  13.693  68.416  1.00  0.00    -0.132 C  
HETATM   15  O   UNL     1      -7.990  17.374  68.997  1.00  0.00    -0.221 OA 
HETATM   16  C   UNL     1     -10.754  16.110  68.115  1.00  0.00    -0.315 C  
HETATM   17  C   UNL     1      -7.466  15.226  67.755  1.00  0.00    -0.178 C  
HETATM   18  C   UNL     1      -8.710  16.159  68.654  1.00  0.00    -0.214 C  
HETATM   19  H   UNL     1      -8.648  17.868  69.472  1.00  0.00     0.000 HD 
HETATM   20  C   UNL     1     -12.326  15.429  68.697  1.00  0.00     0.173 C  
HETATM   21  C   UNL     1      -5.897  15.270  67.750  1.00  0.00    -0.144 C  
ENDROOT
BRANCH  12  22
HETATM   22  O   UNL     1      -8.346  11.447  68.633  1.00  0.00    -0.153 OA 
BRANCH  22  23
HETATM   23  C   UNL     1      -8.079  10.318  67.914  1.00  0.00    -0.102 C  
HETATM   24  O   UNL     1      -6.996  10.026  67.424  1.00  0.00    -0.081 OA 
BRANCH  23  25
HETATM   25  C   UNL     1      -9.275   9.401  67.897  1.00  0.00    -0.129 C  
BRANCH  25  26
HETATM   26  S   UNL     1      -9.524   8.679  66.249  1.00  0.00    -0.240 SA 
BRANCH  26  27
HETATM   27  C   UNL     1      -9.270   6.897  66.611  1.00  0.00    -0.157 C  
HETATM   28  C   UNL     1      -8.114   6.309  65.793  1.00  0.00    -0.126 C  
HETATM   29  C   UNL     1      -7.842   4.862  66.203  1.00  0.00    -0.099 C  
HETATM   30  C   UNL     1      -9.104   4.003  66.062  1.00  0.00    -0.144 C  
HETATM   31  N   UNL     1      -8.835   2.637  66.501  1.00  0.00    -0.127 NA 
HETATM   32  C   UNL     1     -10.269   4.590  66.864  1.00  0.00    -0.148 C  
HETATM   33  C   UNL     1     -10.547   6.042  66.463  1.00  0.00    -0.172 C  
HETATM   34  H2  UNL     1      -8.459   2.608  67.448  1.00  0.00     0.000 HD 
HETATM   35  H1  UNL     1      -9.675   2.065  66.407  1.00  0.00     0.000 HD 
HETATM   36  O   UNL     1     -11.616   6.534  67.270  1.00  0.00    -0.737 OA 
HETATM   37  H   UNL     1     -12.402   6.007  67.179  1.00  0.00     0.000 HD 
ENDBRANCH  26  27
ENDBRANCH  25  26
ENDBRANCH  23  25
ENDBRANCH  22  23
ENDBRANCH  12  22
BRANCH  17  38
HETATM   38  C   UNL     1      -7.522  16.126  66.536  1.00  0.00    -0.110 C  
HETATM   39  C   UNL     1      -6.860  17.096  65.923  1.00  0.00     0.117 C  
ENDBRANCH  17  38
TORSDOF 6
ENDMDL
MODEL      125
REMARK 921   NORMALIZED FREE ENERGY PREDICTED BY IDOCK:   -4.21 KCAL/MOL
REMARK 922        TOTAL FREE ENERGY PREDICTED BY IDOCK:   -6.93 KCAL/MOL
REMARK 923 INTER-LIGAND FREE ENERGY PREDICTED BY IDOCK:   -5.60 KCAL/MOL
REMARK 924 INTRA-LIGAND FREE ENERGY PREDICTED BY IDOCK:   -1.33 KCAL/MOL
REMARK 927      BINDING AFFINITY PREDICTED BY RF-SCORE:    0.00 PKD
ROOT
HETATM    1  C   UNL     1      -8.183   5.241  66.299  1.00  0.00    -0.109 C  
HETATM    2  C   UNL     1      -8.835   4.475  64.563  1.00  0.00    -0.151 C  
HETATM    3  C   UNL     1      -7.493   4.952  63.239  1.00  0.00    -0.054 C  
HETATM    4  O   UNL     1      -9.867   3.843  64.371  1.00  0.00    -0.168 OA 
HETATM    5  C   UNL     1      -6.166   6.112  64.164  1.00  0.00    -0.029 C  
HETATM    6  C   UNL     1      -6.563   5.934  66.016  1.00  0.00    -0.047 C  
HETATM    7  C   UNL     1      -5.583   5.373  67.065  1.00  0.00    -0.017 C  
HETATM    8  C   UNL     1      -6.283   4.723  68.320  1.00  0.00    -0.035 C  
HETATM    9  C   UNL     1      -7.591   5.395  68.805  1.00  0.00    -0.079 C  
HETATM   10  C   UNL     1      -7.152   6.794  69.304  1.00  0.00    -0.087 C  
HETATM   11  C   UNL     1      -8.774   5.293  67.737  1.00  0.00    -0.103 C  
HETATM   12  C   UNL     1      -9.684   6.619  67.892  1.00  0.00    -0.122 C  
HETATM   13  C   UNL     1      -9.647   4.037  67.890  1.00  0.00    -0.199 C  
HETATM   14  C   UNL     1      -9.985   7.398  66.600  1.00  0.00    -0.261 C  
HETATM   15  O   UNL     1      -8.302   7.226  63.252  1.00  0.00    -0.355 OA 
HETATM   16  C   UNL     1      -7.078   5.025  65.168  1.00  0.00    -0.063 C  
HETATM   17  C   UNL     1      -8.750   7.976  65.632  1.00  0.00    -0.156 C  
HETATM   18  C   UNL     1      -8.361   6.590  64.558  1.00  0.00     0.039 C  
HETATM   19  H   UNL     1      -8.095   6.493  62.683  1.00  0.00     0.000 HD 
HETATM   20  C   UNL     1      -7.150   3.288  65.667  1.00  0.00    -0.066 C  
HETATM   21  C   UNL     1      -9.427   9.369  65.375  1.00  0.00    -0.322 C  
ENDROOT
BRANCH  12  22
HETATM   22  O   UNL     1     -10.958   6.319  68.497  1.00  0.00    -0.302 OA 
BRANCH  22  23
HETATM   23  C   UNL     1     -11.150   6.754  69.776  1.00  0.00    -0.316 C  
HETATM   24  O   UNL     1     -11.624   6.091  70.689  1.00  0.00    -0.261 OA 
BRANCH  23  25
HETATM   25  C   UNL     1     -10.588   8.140  69.959  1.00  0.00    -0.239 C  
BRANCH  25  26
HETATM   26  S   UNL     1     -11.126   8.863  71.535  1.00  0.00    -0.354 SA 
BRANCH  26  27
HETATM   27  C   UNL     1      -9.637   8.577  72.573  1.00  0.00    -0.254 C  
HETATM   28  C   UNL     1      -8.348   8.634  71.745  1.00  0.00    -0.203 C  
HETATM   29  C   UNL     1      -7.120   8.519  72.648  1.00  0.00    -0.064 C  
HETATM   30  C   UNL     1      -7.172   7.240  73.491  1.00  0.00    -0.075 C  
HETATM   31  N   UNL     1      -6.015   7.172  74.378  1.00  0.00    -0.076 NA 
HETATM   32  C   UNL     1      -8.465   7.167  74.310  1.00  0.00    -0.214 C  
HETATM   33  C   UNL     1      -9.701   7.284  73.414  1.00  0.00    -0.251 C  
HETATM   34  H2  UNL     1      -5.930   8.007  74.958  1.00  0.00     0.000 HD 
HETATM   35  H1  UNL     1      -6.051   6.321  74.939  1.00  0.00     0.000 HD 
HETATM   36  O   UNL     1     -10.862   7.244  74.244  1.00  0.00    -0.444 OA 
HETATM   37  H   UNL     1     -10.902   6.448  74.762  1.00  0.00     0.000 HD 
ENDBRANCH  26  27
ENDBRANCH  25  26
ENDBRANCH  23  25
ENDBRANCH  22  23
ENDBRANCH  12  22
BRANCH  17  38
HETATM   38  C   UNL     1      -7.371   8.593  65.509  1.00  0.00    -0.084 C  
HETATM   39  C   UNL     1      -6.659   9.644  65.890  1.00  0.00    -0.080 C  
ENDBRANCH  17  38
TORSDOF 6
ENDMDL
MODEL      126
REMARK 921   NORMALIZED FREE ENERGY PREDICTED BY IDOCK:   -4.19 KCAL/MOL
REMARK 922        TOTAL FREE ENERGY PREDICTED BY IDOCK:   -6.90 KCAL/MOL
REMARK 923 INTER-LIGAND FREE ENERGY PREDICTED BY IDOCK:   -6.80 KCAL/MOL
REMARK 924 INTRA-LIGAND FREE ENERGY PREDICTED BY IDOCK:   -0.10 KCAL/MOL
REMARK 927      BINDING AFFINITY PREDICTED BY RF-SCORE:    0.00 PKD
ROOT
HETATM    1  C   UNL     1      -9.014  10.526  68.282  1.00  0.00    -0.139 C  
HETATM    2  C   UNL     1     -10.738   9.596  68.719  1.00  0.00    -0.206 C  
HETATM    3  C   UNL     1     -10.349   7.693  68.624  1.00  0.00    -0.220 C  
HETATM    4  O   UNL     1     -11.815  10.116  68.983  1.00  0.00    -0.026 OA 
HETATM    5  C   UNL     1      -8.470   7.526  67.988  1.00  0.00    -0.123 C  
HETATM    6  C   UNL     1      -7.746   9.281  68.122  1.00  0.00    -0.088 C  
HETATM    7  C   UNL     1      -6.549   9.660  69.013  1.00  0.00    -0.049 C  
HETATM    8  C   UNL     1      -6.536  11.169  69.471  1.00  0.00    -0.117 C  
HETATM    9  C   UNL     1      -7.062  12.204  68.446  1.00  0.00    -0.089 C  
HETATM   10  C   UNL     1      -6.040  12.158  67.283  1.00  0.00    -0.153 C  
HETATM   11  C   UNL     1      -8.613  12.021  68.118  1.00  0.00    -0.173 C  
HETATM   12  C   UNL     1      -8.842  12.467  66.582  1.00  0.00    -0.142 C  
HETATM   13  C   UNL     1      -9.546  12.821  69.042  1.00  0.00     0.379 C  
HETATM   14  C   UNL     1      -9.602  11.474  65.685  1.00  0.00    -0.256 C  
HETATM   15  O   UNL     1     -10.313   7.829  66.215  1.00  0.00    -0.462 OA 
HETATM   16  C   UNL     1      -8.890   9.015  68.780  1.00  0.00    -0.137 C  
HETATM   17  C   UNL     1      -9.059   9.907  65.479  1.00  0.00    -0.232 C  
HETATM   18  C   UNL     1      -9.779   9.016  66.862  1.00  0.00    -0.200 C  
HETATM   19  H   UNL     1     -10.694   7.358  66.946  1.00  0.00     0.000 HD 
HETATM   20  C   UNL     1      -9.147   9.714  70.428  1.00  0.00    -0.245 C  
HETATM   21  C   UNL     1      -9.330   9.877  63.933  1.00  0.00    -0.262 C  
ENDROOT
BRANCH  12  22
HETATM   22  O   UNL     1      -9.547  13.722  66.494  1.00  0.00    -0.274 OA 
BRANCH  22  23
HETATM   23  C   UNL     1     -10.293  13.932  65.372  1.00  0.00    -0.348 C  
HETATM   24  O   UNL     1     -10.157  13.343  64.307  1.00  0.00    -0.330 OA 
BRANCH  23  25
HETATM   25  C   UNL     1     -11.403  14.913  65.644  1.00  0.00    -0.325 C  
BRANCH  25  26
HETATM   26  S   UNL     1     -10.962  16.579  65.072  1.00  0.00    -0.074 SA 
BRANCH  26  27
HETATM   27  C   UNL     1     -10.020  17.203  66.520  1.00  0.00    -0.302 C  
HETATM   28  C   UNL     1     -10.521  18.579  66.973  1.00  0.00    -0.440 C  
HETATM   29  C   UNL     1      -9.809  19.020  68.252  1.00  0.00    -0.440 C  
HETATM   30  C   UNL     1      -8.288  19.027  68.062  1.00  0.00    -0.301 C  
HETATM   31  N   UNL     1      -7.626  19.406  69.307  1.00  0.00    -0.281 NA 
HETATM   32  C   UNL     1      -7.780  17.658  67.595  1.00  0.00    -0.211 C  
HETATM   33  C   UNL     1      -8.490  17.207  66.316  1.00  0.00    -0.244 C  
HETATM   34  H2  UNL     1      -7.910  18.812  70.086  1.00  0.00     0.000 HD 
HETATM   35  H1  UNL     1      -6.614  19.409  69.181  1.00  0.00     0.000 HD 
HETATM   36  O   UNL     1      -7.995  15.917  65.960  1.00  0.00    -0.109 OA 
HETATM   37  H   UNL     1      -7.053  15.919  65.833  1.00  0.00     0.000 HD 
ENDBRANCH  26  27
ENDBRANCH  25  26
ENDBRANCH  23  25
ENDBRANCH  22  23
ENDBRANCH  12  22
BRANCH  17  38
HETATM   38  C   UNL     1      -7.904   8.938  65.322  1.00  0.00    -0.104 C  
HETATM   39  C   UNL     1      -6.964   8.562  64.467  1.00  0.00    -0.073 C  
ENDBRANCH  17  38
TORSDOF 6
ENDMDL
MODEL      127
REMARK 921   NORMALIZED FREE ENERGY PREDICTED BY IDOCK:   -4.17 KCAL/MOL
REMARK 922        TOTAL FREE ENERGY PREDICTED BY IDOCK:   -6.87 KCAL/MOL
REMARK 923 INTER-LIGAND FREE ENERGY PREDICTED BY IDOCK:   -5.77 KCAL/MOL
REMARK 924 INTRA-LIGAND FREE ENERGY PREDICTED BY IDOCK:   -1.10 KCAL/MOL
REMARK 927      BINDING AFFINITY PREDICTED BY RF-SCORE:    0.00 PKD
ROOT
HETATM    1  C   UNL     1      -8.159   7.251  66.770  1.00  0.00    -0.119 C  
HETATM    2  C   UNL     1      -6.754   6.205  65.791  1.00  0.00    -0.048 C  
HETATM    3  C   UNL     1      -6.480   4.586  66.834  1.00  0.00    -0.041 C  
HETATM    4  O   UNL     1      -6.181   6.520  64.755  1.00  0.00    -0.036 OA 
HETATM    5  C   UNL     1      -7.593   4.769  68.474  1.00  0.00    -0.073 C  
HETATM    6  C   UNL     1      -8.735   6.252  68.132  1.00  0.00    -0.115 C  
HETATM    7  C   UNL     1     -10.272   6.171  68.084  1.00  0.00    -0.208 C  
HETATM    8  C   UNL     1     -10.950   7.275  67.184  1.00  0.00    -0.285 C  
HETATM    9  C   UNL     1     -10.275   8.668  67.177  1.00  0.00    -0.353 C  
HETATM   10  C   UNL     1     -10.457   9.200  68.621  1.00  0.00    -0.235 C  
HETATM   11  C   UNL     1      -8.811   8.645  66.543  1.00  0.00    -0.163 C  
HETATM   12  C   UNL     1      -7.935   9.772  67.300  1.00  0.00    -0.106 C  
HETATM   13  C   UNL     1      -8.783   8.892  65.026  1.00  0.00    -0.200 C  
HETATM   14  C   UNL     1      -6.571   9.324  67.854  1.00  0.00    -0.063 C  
HETATM   15  O   UNL     1      -5.262   5.864  68.480  1.00  0.00    -0.003 OA 
HETATM   16  C   UNL     1      -8.098   5.689  67.088  1.00  0.00    -0.102 C  
HETATM   17  C   UNL     1      -6.454   8.055  68.937  1.00  0.00    -0.048 C  
HETATM   18  C   UNL     1      -6.366   6.600  67.887  1.00  0.00    -0.047 C  
HETATM   19  H   UNL     1      -5.215   5.094  67.925  1.00  0.00     0.000 HD 
HETATM   20  C   UNL     1      -8.968   5.506  65.513  1.00  0.00    -0.133 C  
HETATM   21  C   UNL     1      -5.405   8.769  69.861  1.00  0.00    -0.029 C  
ENDROOT
BRANCH  12  22
HETATM   22  O   UNL     1      -7.678  10.906  66.447  1.00  0.00    -0.145 OA 
BRANCH  22  23
HETATM   23  C   UNL     1      -7.751  12.140  67.024  1.00  0.00    -0.112 C  
HETATM   24  O   UNL     1      -6.798  12.794  67.428  1.00  0.00    -0.152 OA 
BRANCH  23  25
HETATM   25  C   UNL     1      -9.165  12.660  66.998  1.00  0.00    -0.212 C  
BRANCH  25  26
HETATM   26  S   UNL     1      -9.495  13.737  68.421  1.00  0.00    -0.167 SA 
BRANCH  26  27
HETATM   27  C   UNL     1      -9.635  15.371  67.593  1.00  0.00    -0.210 C  
HETATM   28  C   UNL     1      -8.266  15.906  67.158  1.00  0.00    -0.233 C  
HETATM   29  C   UNL     1      -8.420  17.203  66.362  1.00  0.00    -0.307 C  
HETATM   30  C   UNL     1      -9.189  18.256  67.168  1.00  0.00    -0.264 C  
HETATM   31  N   UNL     1      -9.365  19.469  66.374  1.00  0.00    -0.364 NA 
HETATM   32  C   UNL     1     -10.553  17.724  67.620  1.00  0.00    -0.385 C  
HETATM   33  C   UNL     1     -10.408  16.424  68.415  1.00  0.00    -0.282 C  
HETATM   34  H2  UNL     1      -9.810  19.275  65.477  1.00  0.00     0.000 HD 
HETATM   35  H1  UNL     1      -9.877  20.169  66.910  1.00  0.00     0.000 HD 
HETATM   36  O   UNL     1     -11.714  15.969  68.772  1.00  0.00    -0.385 OA 
HETATM   37  H   UNL     1     -12.190  16.618  69.279  1.00  0.00     0.000 HD 
ENDBRANCH  26  27
ENDBRANCH  25  26
ENDBRANCH  23  25
ENDBRANCH  22  23
ENDBRANCH  12  22
BRANCH  17  38
HETATM   38  C   UNL     1      -7.020   7.295  70.120  1.00  0.00    -0.060 C  
HETATM   39  C   UNL     1      -7.478   7.469  71.351  1.00  0.00    -0.079 C  
ENDBRANCH  17  38
TORSDOF 6
ENDMDL
MODEL      128
REMARK 921   NORMALIZED FREE ENERGY PREDICTED BY IDOCK:   -4.12 KCAL/MOL
REMARK 922        TOTAL FREE ENERGY PREDICTED BY IDOCK:   -6.80 KCAL/MOL
REMARK 923 INTER-LIGAND FREE ENERGY PREDICTED BY IDOCK:   -6.37 KCAL/MOL
REMARK 924 INTRA-LIGAND FREE ENERGY PREDICTED BY IDOCK:   -0.43 KCAL/MOL
REMARK 927      BINDING AFFINITY PREDICTED BY RF-SCORE:    0.00 PKD
ROOT
HETATM    1  C   UNL     1     -10.220  14.714  67.607  1.00  0.00    -0.232 C  
HETATM    2  C   UNL     1      -9.731  16.045  69.026  1.00  0.00    -0.244 C  
HETATM    3  C   UNL     1      -8.022  16.796  68.479  1.00  0.00    -0.235 C  
HETATM    4  O   UNL     1     -10.369  16.324  70.033  1.00  0.00    -0.226 OA 
HETATM    5  C   UNL     1      -7.457  15.800  66.851  1.00  0.00    -0.204 C  
HETATM    6  C   UNL     1      -8.998  14.823  66.311  1.00  0.00    -0.153 C  
HETATM    7  C   UNL     1      -9.711  15.004  64.958  1.00  0.00     0.100 C  
HETATM    8  C   UNL     1     -11.242  14.625  64.977  1.00  0.00    -0.388 C  
HETATM    9  C   UNL     1     -11.644  13.433  65.880  1.00  0.00    -0.370 C  
HETATM   10  C   UNL     1     -10.963  12.203  65.231  1.00  0.00    -0.349 C  
HETATM   11  C   UNL     1     -11.403  13.720  67.432  1.00  0.00    -0.348 C  
HETATM   12  C   UNL     1     -11.025  12.314  68.132  1.00  0.00    -0.231 C  
HETATM   13  C   UNL     1     -12.609  14.354  68.144  1.00  0.00     0.501 C  
HETATM   14  C   UNL     1      -9.758  12.301  69.005  1.00  0.00     0.262 C  
HETATM   15  O   UNL     1      -6.922  14.753  69.143  1.00  0.00    -0.118 OA 
HETATM   16  C   UNL     1      -9.162  15.832  67.186  1.00  0.00    -0.224 C  
HETATM   17  C   UNL     1      -8.274  12.748  68.378  1.00  0.00    -0.128 C  
HETATM   18  C   UNL     1      -8.243  14.533  68.577  1.00  0.00    -0.154 C  
HETATM   19  H   UNL     1      -6.905  15.697  69.248  1.00  0.00     0.000 HD 
HETATM   20  C   UNL     1     -10.610  16.907  67.039  1.00  0.00    -0.230 C  
HETATM   21  C   UNL     1      -7.483  11.583  69.072  1.00  0.00    -0.073 C  
ENDROOT
BRANCH  12  22
HETATM   22  O   UNL     1     -12.100  11.830  68.963  1.00  0.00    -0.305 OA 
BRANCH  22  23
HETATM   23  C   UNL     1     -11.798  10.830  69.842  1.00  0.00    -0.335 C  
HETATM   24  O   UNL     1     -11.917  10.892  71.058  1.00  0.00    -0.326 OA 
BRANCH  23  25
HETATM   25  C   UNL     1     -11.400   9.576  69.107  1.00  0.00     0.133 C  
BRANCH  25  26
HETATM   26  S   UNL     1      -9.844   8.902  69.755  1.00  0.00    -0.187 SA 
BRANCH  26  27
HETATM   27  C   UNL     1     -10.470   7.814  71.096  1.00  0.00    -0.208 C  
HETATM   28  C   UNL     1      -9.574   7.870  72.338  1.00  0.00    -0.270 C  
HETATM   29  C   UNL     1     -10.182   7.057  73.481  1.00  0.00    -0.371 C  
HETATM   30  C   UNL     1     -10.434   5.606  73.053  1.00  0.00    -0.216 C  
HETATM   31  N   UNL     1     -11.056   4.859  74.141  1.00  0.00    -0.376 NA 
HETATM   32  C   UNL     1     -11.317   5.541  71.802  1.00  0.00    -0.104 C  
HETATM   33  C   UNL     1     -10.717   6.356  70.652  1.00  0.00    -0.257 C  
HETATM   34  H2  UNL     1     -11.907   5.311  74.476  1.00  0.00     0.000 HD 
HETATM   35  H1  UNL     1     -11.224   3.895  73.856  1.00  0.00     0.000 HD 
HETATM   36  O   UNL     1     -11.605   6.279  69.538  1.00  0.00    -0.537 OA 
HETATM   37  H   UNL     1     -11.756   5.381  69.265  1.00  0.00     0.000 HD 
ENDBRANCH  26  27
ENDBRANCH  25  26
ENDBRANCH  23  25
ENDBRANCH  22  23
ENDBRANCH  12  22
BRANCH  17  38
HETATM   38  C   UNL     1      -7.298  12.757  67.218  1.00  0.00    -0.095 C  
HETATM   39  C   UNL     1      -6.182  12.187  66.789  1.00  0.00     0.125 C  
ENDBRANCH  17  38
TORSDOF 6
ENDMDL
MODEL      129
REMARK 921   NORMALIZED FREE ENERGY PREDICTED BY IDOCK:   -4.10 KCAL/MOL
REMARK 922        TOTAL FREE ENERGY PREDICTED BY IDOCK:   -6.77 KCAL/MOL
REMARK 923 INTER-LIGAND FREE ENERGY PREDICTED BY IDOCK:   -6.16 KCAL/MOL
REMARK 924 INTRA-LIGAND FREE ENERGY PREDICTED BY IDOCK:   -0.62 KCAL/MOL
REMARK 927      BINDING AFFINITY PREDICTED BY RF-SCORE:    0.00 PKD
ROOT
HETATM    1  C   UNL     1      -9.308  15.284  68.246  1.00  0.00    -0.194 C  
HETATM    2  C   UNL     1      -7.422  15.187  67.566  1.00  0.00    -0.198 C  
HETATM    3  C   UNL     1      -6.737  17.005  67.651  1.00  0.00    -0.162 C  
HETATM    4  O   UNL     1      -6.826  14.193  67.172  1.00  0.00    -0.165 OA 
HETATM    5  C   UNL     1      -8.254  18.161  68.221  1.00  0.00    -0.300 C  
HETATM    6  C   UNL     1      -9.600  16.952  68.811  1.00  0.00    -0.268 C  
HETATM    7  C   UNL     1     -10.161  16.909  70.245  1.00  0.00     0.949 C  
HETATM    8  C   UNL     1     -10.728  15.502  70.675  1.00  0.00    -0.265 C  
HETATM    9  C   UNL     1     -11.436  14.677  69.572  1.00  0.00    -0.334 C  
HETATM   10  C   UNL     1     -12.701  15.498  69.219  1.00  0.00     0.353 C  
HETATM   11  C   UNL     1     -10.449  14.237  68.396  1.00  0.00    -0.249 C  
HETATM   12  C   UNL     1     -11.310  14.190  67.030  1.00  0.00    -0.332 C  
HETATM   13  C   UNL     1      -9.762  12.882  68.631  1.00  0.00    -0.047 C  
HETATM   14  C   UNL     1     -10.729  14.950  65.825  1.00  0.00    -0.338 C  
HETATM   15  O   UNL     1      -8.061  17.585  65.718  1.00  0.00    -0.551 OA 
HETATM   16  C   UNL     1      -8.345  16.484  68.671  1.00  0.00    -0.235 C  
HETATM   17  C   UNL     1     -10.381  16.582  65.920  1.00  0.00    -0.365 C  
HETATM   18  C   UNL     1      -8.717  16.630  66.595  1.00  0.00    -0.246 C  
HETATM   19  H   UNL     1      -7.181  17.611  66.075  1.00  0.00     0.000 HD 
HETATM   20  C   UNL     1      -7.697  15.311  69.885  1.00  0.00     0.030 C  
HETATM   21  C   UNL     1     -10.969  16.923  64.506  1.00  0.00     0.455 C  
ENDROOT
BRANCH  12  22
HETATM   22  O   UNL     1     -11.533  12.834  66.592  1.00  0.00    -0.311 OA 
BRANCH  22  23
HETATM   23  C   UNL     1     -11.150  12.528  65.318  1.00  0.00    -0.297 C  
HETATM   24  O   UNL     1     -11.783  12.789  64.303  1.00  0.00    -0.335 OA 
BRANCH  23  25
HETATM   25  C   UNL     1      -9.771  11.923  65.307  1.00  0.00    -0.192 C  
BRANCH  25  26
HETATM   26  S   UNL     1      -9.849  10.118  65.123  1.00  0.00    -0.307 SA 
BRANCH  26  27
HETATM   27  C   UNL     1      -9.427   9.579  66.828  1.00  0.00    -0.167 C  
HETATM   28  C   UNL     1      -8.327   8.511  66.831  1.00  0.00    -0.109 C  
HETATM   29  C   UNL     1      -7.906   8.171  68.261  1.00  0.00    -0.122 C  
HETATM   30  C   UNL     1      -9.109   7.720  69.097  1.00  0.00    -0.145 C  
HETATM   31  N   UNL     1      -8.696   7.444  70.469  1.00  0.00    -0.146 NA 
HETATM   32  C   UNL     1     -10.221   8.775  69.087  1.00  0.00    -0.215 C  
HETATM   33  C   UNL     1     -10.646   9.124  67.658  1.00  0.00    -0.242 C  
HETATM   34  H2  UNL     1      -8.217   8.241  70.890  1.00  0.00     0.000 HD 
HETATM   35  H1  UNL     1      -9.496   7.144  71.025  1.00  0.00     0.000 HD 
HETATM   36  O   UNL     1     -11.654  10.132  67.725  1.00  0.00    -0.627 OA 
HETATM   37  H   UNL     1     -12.405   9.852  68.235  1.00  0.00     0.000 HD 
ENDBRANCH  26  27
ENDBRANCH  25  26
ENDBRANCH  23  25
ENDBRANCH  22  23
ENDBRANCH  12  22
BRANCH  17  38
HETATM   38  C   UNL     1     -10.740  17.964  66.432  1.00  0.00    -0.114 C  
HETATM   39  C   UNL     1     -10.896  19.217  66.033  1.00  0.00    -0.365 C  
ENDBRANCH  17  38
TORSDOF 6
ENDMDL
MODEL      130
REMARK 921   NORMALIZED FREE ENERGY PREDICTED BY IDOCK:   -4.02 KCAL/MOL
REMARK 922        TOTAL FREE ENERGY PREDICTED BY IDOCK:   -6.66 KCAL/MOL
REMARK 923 INTER-LIGAND FREE ENERGY PREDICTED BY IDOCK:   -5.82 KCAL/MOL
REMARK 924 INTRA-LIGAND FREE ENERGY PREDICTED BY IDOCK:   -0.84 KCAL/MOL
REMARK 927      BINDING AFFINITY PREDICTED BY RF-SCORE:    0.00 PKD
ROOT
HETATM    1  C   UNL     1     -10.068   5.962  71.557  1.00  0.00    -0.238 C  
HETATM    2  C   UNL     1      -9.995   4.005  71.995  1.00  0.00    -0.176 C  
HETATM    3  C   UNL     1      -9.720   3.904  73.917  1.00  0.00    -0.141 C  
HETATM    4  O   UNL     1     -10.095   3.066  71.215  1.00  0.00    -0.060 OA 
HETATM    5  C   UNL     1      -9.478   5.773  74.557  1.00  0.00    -0.165 C  
HETATM    6  C   UNL     1     -10.006   6.868  73.093  1.00  0.00    -0.227 C  
HETATM    7  C   UNL     1     -11.175   7.870  73.136  1.00  0.00    -0.209 C  
HETATM    8  C   UNL     1     -11.831   8.158  71.731  1.00  0.00    -0.346 C  
HETATM    9  C   UNL     1     -10.873   8.179  70.514  1.00  0.00    -0.247 C  
HETATM   10  C   UNL     1      -9.958   9.404  70.756  1.00  0.00    -0.358 C  
HETATM   11  C   UNL     1     -10.202   6.759  70.228  1.00  0.00    -0.216 C  
HETATM   12  C   UNL     1      -8.731   7.031  69.619  1.00  0.00    -0.141 C  
HETATM   13  C   UNL     1     -11.010   5.868  69.271  1.00  0.00    -0.397 C  
HETATM   14  C   UNL     1      -7.563   6.282  70.285  1.00  0.00    -0.096 C  
HETATM   15  O   UNL     1      -7.415   4.555  73.612  1.00  0.00    -0.079 OA 
HETATM   16  C   UNL     1     -10.364   5.570  73.075  1.00  0.00    -0.231 C  
HETATM   17  C   UNL     1      -7.259   6.438  71.922  1.00  0.00    -0.087 C  
HETATM   18  C   UNL     1      -8.321   5.202  72.677  1.00  0.00    -0.113 C  
HETATM   19  H   UNL     1      -7.976   3.901  74.012  1.00  0.00     0.000 HD 
HETATM   20  C   UNL     1     -12.002   5.110  72.461  1.00  0.00     0.136 C  
HETATM   21  C   UNL     1      -5.703   6.551  71.755  1.00  0.00    -0.036 C  
ENDROOT
BRANCH  12  22
HETATM   22  O   UNL     1      -8.672   6.714  68.213  1.00  0.00    -0.119 OA 
BRANCH  22  23
HETATM   23  C   UNL     1      -7.663   7.286  67.494  1.00  0.00    -0.111 C  
HETATM   24  O   UNL     1      -6.514   6.872  67.428  1.00  0.00    -0.045 OA 
BRANCH  23  25
HETATM   25  C   UNL     1      -8.178   8.448  66.684  1.00  0.00    -0.105 C  
BRANCH  25  26
HETATM   26  S   UNL     1      -9.880   8.154  66.125  1.00  0.00     0.107 SA 
BRANCH  26  27
HETATM   27  C   UNL     1     -10.346   9.832  65.542  1.00  0.00     0.114 C  
HETATM   28  C   UNL     1      -9.788  10.124  64.144  1.00  0.00    -0.226 C  
HETATM   29  C   UNL     1     -10.293  11.472  63.630  1.00  0.00    -0.467 C  
HETATM   30  C   UNL     1      -9.942  12.601  64.606  1.00  0.00    -0.143 C  
HETATM   31  N   UNL     1     -10.472  13.871  64.120  1.00  0.00    -0.568 NA 
HETATM   32  C   UNL     1     -10.483  12.311  66.010  1.00  0.00    -0.284 C  
HETATM   33  C   UNL     1      -9.985  10.960  66.532  1.00  0.00    -0.211 C  
HETATM   34  H2  UNL     1     -11.475  13.822  63.940  1.00  0.00     0.000 HD 
HETATM   35  H1  UNL     1     -10.238  14.622  64.770  1.00  0.00     0.000 HD 
HETATM   36  O   UNL     1     -10.553  10.741  67.823  1.00  0.00    -0.197 OA 
HETATM   37  H   UNL     1     -10.330  11.435  68.432  1.00  0.00     0.000 HD 
ENDBRANCH  26  27
ENDBRANCH  25  26
ENDBRANCH  23  25
ENDBRANCH  22  23
ENDBRANCH  12  22
BRANCH  17  38
HETATM   38  C   UNL     1      -7.217   7.309  73.162  1.00  0.00    -0.078 C  
HETATM   39  C   UNL     1      -7.232   8.576  73.549  1.00  0.00    -0.056 C  
ENDBRANCH  17  38
TORSDOF 6
ENDMDL
MODEL      131
REMARK 921   NORMALIZED FREE ENERGY PREDICTED BY IDOCK:   -4.00 KCAL/MOL
REMARK 922        TOTAL FREE ENERGY PREDICTED BY IDOCK:   -6.64 KCAL/MOL
REMARK 923 INTER-LIGAND FREE ENERGY PREDICTED BY IDOCK:   -6.37 KCAL/MOL
REMARK 924 INTRA-LIGAND FREE ENERGY PREDICTED BY IDOCK:   -0.27 KCAL/MOL
REMARK 927      BINDING AFFINITY PREDICTED BY RF-SCORE:    0.00 PKD
ROOT
HETATM    1  C   UNL     1      -8.903   6.541  68.053  1.00  0.00    -0.114 C  
HETATM    2  C   UNL     1      -8.114   6.014  66.285  1.00  0.00    -0.112 C  
HETATM    3  C   UNL     1      -6.332   5.344  66.681  1.00  0.00    -0.036 C  
HETATM    4  O   UNL     1      -8.639   6.102  65.182  1.00  0.00    -0.132 OA 
HETATM    5  C   UNL     1      -6.036   5.626  68.629  1.00  0.00    -0.024 C  
HETATM    6  C   UNL     1      -7.750   6.063  69.329  1.00  0.00    -0.095 C  
HETATM    7  C   UNL     1      -8.491   5.231  70.393  1.00  0.00    -0.116 C  
HETATM    8  C   UNL     1     -10.061   5.370  70.345  1.00  0.00    -0.314 C  
HETATM    9  C   UNL     1     -10.618   6.764  69.966  1.00  0.00    -0.256 C  
HETATM   10  C   UNL     1     -10.198   7.686  71.138  1.00  0.00    -0.207 C  
HETATM   11  C   UNL     1     -10.249   7.196  68.474  1.00  0.00    -0.189 C  
HETATM   12  C   UNL     1     -10.087   8.803  68.459  1.00  0.00    -0.189 C  
HETATM   13  C   UNL     1     -11.286   6.764  67.424  1.00  0.00    -0.262 C  
HETATM   14  C   UNL     1      -8.797   9.356  67.828  1.00  0.00    -0.124 C  
HETATM   15  O   UNL     1      -5.572   7.606  67.047  1.00  0.00    -0.029 OA 
HETATM   16  C   UNL     1      -7.689   5.506  68.105  1.00  0.00    -0.085 C  
HETATM   17  C   UNL     1      -7.292   8.894  68.393  1.00  0.00    -0.082 C  
HETATM   18  C   UNL     1      -6.939   7.383  67.488  1.00  0.00    -0.079 C  
HETATM   19  H   UNL     1      -5.385   6.807  66.569  1.00  0.00     0.000 HD 
HETATM   20  C   UNL     1      -8.932   4.283  67.625  1.00  0.00    -0.135 C  
HETATM   21  C   UNL     1      -6.682  10.339  68.337  1.00  0.00    -0.057 C  
ENDROOT
BRANCH  12  22
HETATM   22  O   UNL     1     -11.184   9.441  67.775  1.00  0.00    -0.040 OA 
BRANCH  22  23
HETATM   23  C   UNL     1     -10.890  10.556  67.045  1.00  0.00    -0.225 C  
HETATM   24  O   UNL     1     -10.187  10.586  66.044  1.00  0.00    -0.248 OA 
BRANCH  23  25
HETATM   25  C   UNL     1     -11.648  11.750  67.567  1.00  0.00    -0.291 C  
BRANCH  25  26
HETATM   26  S   UNL     1     -10.680  12.647  68.814  1.00  0.00    -0.167 SA 
BRANCH  26  27
HETATM   27  C   UNL     1     -12.014  13.531  69.716  1.00  0.00    -0.340 C  
HETATM   28  C   UNL     1     -11.701  15.023  69.872  1.00  0.00    -0.343 C  
HETATM   29  C   UNL     1     -12.879  15.759  70.512  1.00  0.00    -0.189 C  
HETATM   30  C   UNL     1     -13.252  15.134  71.862  1.00  0.00    -0.384 C  
HETATM   31  N   UNL     1     -14.405  15.820  72.434  1.00  0.00    -0.423 NA 
HETATM   32  C   UNL     1     -13.551  13.638  71.718  1.00  0.00    -0.445 C  
HETATM   33  C   UNL     1     -12.377  12.893  71.074  1.00  0.00    -0.225 C  
HETATM   34  H2  UNL     1     -15.197  15.837  71.790  1.00  0.00     0.000 HD 
HETATM   35  H1  UNL     1     -14.653  15.404  73.331  1.00  0.00     0.000 HD 
HETATM   36  O   UNL     1     -12.738  11.519  70.940  1.00  0.00    -0.334 OA 
HETATM   37  H   UNL     1     -12.962  11.127  71.776  1.00  0.00     0.000 HD 
ENDBRANCH  26  27
ENDBRANCH  25  26
ENDBRANCH  23  25
ENDBRANCH  22  23
ENDBRANCH  12  22
BRANCH  17  38
HETATM   38  C   UNL     1      -6.393   8.530  69.558  1.00  0.00    -0.040 C  
HETATM   39  C   UNL     1      -5.565   9.063  70.444  1.00  0.00    -0.033 C  
ENDBRANCH  17  38
TORSDOF 6
ENDMDL
MODEL      132
REMARK 921   NORMALIZED FREE ENERGY PREDICTED BY IDOCK:   -4.00 KCAL/MOL
REMARK 922        TOTAL FREE ENERGY PREDICTED BY IDOCK:   -6.63 KCAL/MOL
REMARK 923 INTER-LIGAND FREE ENERGY PREDICTED BY IDOCK:   -6.22 KCAL/MOL
REMARK 924 INTRA-LIGAND FREE ENERGY PREDICTED BY IDOCK:   -0.42 KCAL/MOL
REMARK 927      BINDING AFFINITY PREDICTED BY RF-SCORE:    0.00 PKD
ROOT
HETATM    1  C   UNL     1      -8.243  18.440  67.952  1.00  0.00    -0.273 C  
HETATM    2  C   UNL     1      -6.858  18.964  69.307  1.00  0.00    -0.266 C  
HETATM    3  C   UNL     1      -6.391  20.807  68.898  1.00  0.00    -0.168 C  
HETATM    4  O   UNL     1      -6.396  18.269  70.203  1.00  0.00    -0.064 OA 
HETATM    5  C   UNL     1      -7.374  21.289  67.235  1.00  0.00    -0.081 C  
HETATM    6  C   UNL     1      -8.636  19.887  66.985  1.00  0.00    -0.389 C  
HETATM    7  C   UNL     1     -10.163  20.087  66.971  1.00  0.00    -0.587 C  
HETATM    8  C   UNL     1     -10.986  18.811  67.400  1.00  0.00    -0.281 C  
HETATM    9  C   UNL     1     -10.408  17.441  66.968  1.00  0.00    -0.318 C  
HETATM   10  C   UNL     1     -10.504  17.445  65.422  1.00  0.00    -0.012 C  
HETATM   11  C   UNL     1      -9.003  17.116  67.653  1.00  0.00    -0.226 C  
HETATM   12  C   UNL     1      -8.144  16.235  66.606  1.00  0.00    -0.288 C  
HETATM   13  C   UNL     1      -9.118  16.372  68.993  1.00  0.00    -0.252 C  
HETATM   14  C   UNL     1      -6.712  16.718  66.315  1.00  0.00     0.097 C  
HETATM   15  O   UNL     1      -5.128  20.052  66.984  1.00  0.00    -0.157 OA 
HETATM   16  C   UNL     1      -8.053  20.006  68.192  1.00  0.00    -0.232 C  
HETATM   17  C   UNL     1      -6.421  18.261  65.740  1.00  0.00    -0.310 C  
HETATM   18  C   UNL     1      -6.325  19.264  67.227  1.00  0.00    -0.187 C  
HETATM   19  H   UNL     1      -5.077  20.583  67.771  1.00  0.00     0.000 HD 
HETATM   20  C   UNL     1      -9.036  19.727  69.684  1.00  0.00     0.435 C  
HETATM   21  C   UNL     1      -5.349  17.808  64.687  1.00  0.00     0.604 C  
ENDROOT
BRANCH  12  22
HETATM   22  O   UNL     1      -8.035  14.862  67.032  1.00  0.00    -0.207 OA 
BRANCH  22  23
HETATM   23  C   UNL     1      -9.090  14.044  66.750  1.00  0.00    -0.232 C  
HETATM   24  O   UNL     1      -9.894  14.208  65.843  1.00  0.00    -0.304 OA 
BRANCH  23  25
HETATM   25  C   UNL     1      -9.074  12.827  67.638  1.00  0.00    -0.193 C  
BRANCH  25  26
HETATM   26  S   UNL     1     -10.711  12.045  67.708  1.00  0.00    -0.219 SA 
BRANCH  26  27
HETATM   27  C   UNL     1     -10.546  11.031  69.231  1.00  0.00    -0.201 C  
HETATM   28  C   UNL     1     -10.168   9.580  68.910  1.00  0.00    -0.213 C  
HETATM   29  C   UNL     1      -9.914   8.790  70.193  1.00  0.00    -0.201 C  
HETATM   30  C   UNL     1     -11.130   8.846  71.125  1.00  0.00    -0.285 C  
HETATM   31  N   UNL     1     -10.850   8.125  72.363  1.00  0.00    -0.314 NA 
HETATM   32  C   UNL     1     -11.524  10.293  71.440  1.00  0.00    -0.119 C  
HETATM   33  C   UNL     1     -11.778  11.093  70.159  1.00  0.00    -0.353 C  
HETATM   34  H2  UNL     1     -10.004   8.466  72.820  1.00  0.00     0.000 HD 
HETATM   35  H1  UNL     1     -11.659   8.162  72.983  1.00  0.00     0.000 HD 
HETATM   36  O   UNL     1     -12.104  12.433  70.525  1.00  0.00    -0.418 OA 
HETATM   37  H   UNL     1     -12.863  12.471  71.096  1.00  0.00     0.000 HD 
ENDBRANCH  26  27
ENDBRANCH  25  26
ENDBRANCH  23  25
ENDBRANCH  22  23
ENDBRANCH  12  22
BRANCH  17  38
HETATM   38  C   UNL     1      -6.835  19.423  64.858  1.00  0.00     0.122 C  
HETATM   39  C   UNL     1      -6.366  20.259  63.945  1.00  0.00    -0.124 C  
ENDBRANCH  17  38
TORSDOF 6
ENDMDL
MODEL      133
REMARK 921   NORMALIZED FREE ENERGY PREDICTED BY IDOCK:   -3.98 KCAL/MOL
REMARK 922        TOTAL FREE ENERGY PREDICTED BY IDOCK:   -6.61 KCAL/MOL
REMARK 923 INTER-LIGAND FREE ENERGY PREDICTED BY IDOCK:   -4.94 KCAL/MOL
REMARK 924 INTRA-LIGAND FREE ENERGY PREDICTED BY IDOCK:   -1.66 KCAL/MOL
REMARK 927      BINDING AFFINITY PREDICTED BY RF-SCORE:    0.00 PKD
ROOT
HETATM    1  C   UNL     1      -9.331  12.639  66.905  1.00  0.00    -0.228 C  
HETATM    2  C   UNL     1     -10.357  11.568  65.552  1.00  0.00    -0.273 C  
HETATM    3  C   UNL     1     -12.131  12.363  65.486  1.00  0.00    -0.417 C  
HETATM    4  O   UNL     1      -9.955  10.609  64.906  1.00  0.00    -0.271 OA 
HETATM    5  C   UNL     1     -12.179  13.770  66.893  1.00  0.00    -0.408 C  
HETATM    6  C   UNL     1     -10.366  13.997  67.425  1.00  0.00    -0.259 C  
HETATM    7  C   UNL     1      -9.579  15.314  67.285  1.00  0.00    -0.214 C  
HETATM    8  C   UNL     1      -8.018  15.124  67.159  1.00  0.00    -0.248 C  
HETATM    9  C   UNL     1      -7.396  13.965  67.976  1.00  0.00    -0.141 C  
HETATM   10  C   UNL     1      -7.604  14.374  69.456  1.00  0.00     0.083 C  
HETATM   11  C   UNL     1      -7.897  12.527  67.495  1.00  0.00    -0.168 C  
HETATM   12  C   UNL     1      -7.929  11.565  68.793  1.00  0.00    -0.107 C  
HETATM   13  C   UNL     1      -7.025  11.898  66.396  1.00  0.00     0.336 C  
HETATM   14  C   UNL     1      -9.233  10.785  69.037  1.00  0.00    -0.157 C  
HETATM   15  O   UNL     1     -12.657  11.342  67.609  1.00  0.00     0.585 OA 
HETATM   16  C   UNL     1     -10.611  13.350  66.270  1.00  0.00    -0.292 C  
HETATM   17  C   UNL     1     -10.695  11.579  69.198  1.00  0.00    -0.210 C  
HETATM   18  C   UNL     1     -11.272  11.769  67.508  1.00  0.00    -0.291 C  
HETATM   19  H   UNL     1     -12.962  11.443  66.715  1.00  0.00     0.000 HD 
HETATM   20  C   UNL     1      -9.534  13.640  64.846  1.00  0.00     0.658 C  
HETATM   21  C   UNL     1     -11.189  10.699  70.401  1.00  0.00    -0.334 C  
ENDROOT
BRANCH  12  22
HETATM   22  O   UNL     1      -6.868  10.588  68.754  1.00  0.00    -0.056 OA 
BRANCH  22  23
HETATM   23  C   UNL     1      -6.518  10.013  69.941  1.00  0.00    -0.077 C  
HETATM   24  O   UNL     1      -6.344  10.609  70.996  1.00  0.00    -0.349 OA 
BRANCH  23  25
HETATM   25  C   UNL     1      -6.485   8.512  69.818  1.00  0.00    -0.035 C  
BRANCH  25  26
HETATM   26  S   UNL     1      -5.958   8.002  68.157  1.00  0.00    -0.042 SA 
BRANCH  26  27
HETATM   27  C   UNL     1      -7.498   7.220  67.530  1.00  0.00    -0.101 C  
HETATM   28  C   UNL     1      -8.415   8.239  66.845  1.00  0.00    -0.118 C  
HETATM   29  C   UNL     1      -9.626   7.546  66.223  1.00  0.00    -0.134 C  
HETATM   30  C   UNL     1     -10.397   6.736  67.273  1.00  0.00    -0.244 C  
HETATM   31  N   UNL     1     -11.522   6.045  66.651  1.00  0.00    -0.515 NA 
HETATM   32  C   UNL     1      -9.484   5.724  67.974  1.00  0.00    -0.116 C  
HETATM   33  C   UNL     1      -8.265   6.410  68.597  1.00  0.00    -0.121 C  
HETATM   34  H2  UNL     1     -11.226   5.466  65.865  1.00  0.00     0.000 HD 
HETATM   35  H1  UNL     1     -12.034   5.506  67.349  1.00  0.00     0.000 HD 
HETATM   36  O   UNL     1      -7.447   5.409  69.200  1.00  0.00    -0.074 OA 
HETATM   37  H   UNL     1      -7.919   4.910  69.857  1.00  0.00     0.000 HD 
ENDBRANCH  26  27
ENDBRANCH  25  26
ENDBRANCH  23  25
ENDBRANCH  22  23
ENDBRANCH  12  22
BRANCH  17  38
HETATM   38  C   UNL     1     -11.483  12.769  69.710  1.00  0.00    -0.199 C  
HETATM   39  C   UNL     1     -12.340  13.125  70.656  1.00  0.00    -0.405 C  
ENDBRANCH  17  38
TORSDOF 6
ENDMDL
MODEL      134
REMARK 921   NORMALIZED FREE ENERGY PREDICTED BY IDOCK:   -3.94 KCAL/MOL
REMARK 922        TOTAL FREE ENERGY PREDICTED BY IDOCK:   -6.56 KCAL/MOL
REMARK 923 INTER-LIGAND FREE ENERGY PREDICTED BY IDOCK:   -5.47 KCAL/MOL
REMARK 924 INTRA-LIGAND FREE ENERGY PREDICTED BY IDOCK:   -1.10 KCAL/MOL
REMARK 927      BINDING AFFINITY PREDICTED BY RF-SCORE:    0.00 PKD
ROOT
HETATM    1  C   UNL     1      -9.932  11.301  66.751  1.00  0.00    -0.238 C  
HETATM    2  C   UNL     1     -11.535  12.075  67.679  1.00  0.00    -0.322 C  
HETATM    3  C   UNL     1     -11.596  13.946  67.152  1.00  0.00    -0.391 C  
HETATM    4  O   UNL     1     -12.310  11.494  68.427  1.00  0.00    -0.461 OA 
HETATM    5  C   UNL     1      -9.965  14.287  66.065  1.00  0.00    -0.337 C  
HETATM    6  C   UNL     1      -9.258  12.562  65.683  1.00  0.00     0.191 C  
HETATM    7  C   UNL     1      -9.091  11.986  64.264  1.00  0.00     0.566 C  
HETATM    8  C   UNL     1      -9.125  10.411  64.197  1.00  0.00    -0.272 C  
HETATM    9  C   UNL     1      -8.485   9.657  65.389  1.00  0.00    -0.155 C  
HETATM   10  C   UNL     1      -6.977  10.001  65.307  1.00  0.00    -0.132 C  
HETATM   11  C   UNL     1      -9.258   9.899  66.764  1.00  0.00    -0.176 C  
HETATM   12  C   UNL     1      -8.165   9.845  67.952  1.00  0.00    -0.113 C  
HETATM   13  C   UNL     1     -10.380   8.884  67.037  1.00  0.00    -0.340 C  
HETATM   14  C   UNL     1      -8.172  11.021  68.945  1.00  0.00    -0.127 C  
HETATM   15  O   UNL     1      -9.744  14.412  68.628  1.00  0.00    -0.217 OA 
HETATM   16  C   UNL     1     -10.527  12.643  66.124  1.00  0.00    -0.278 C  
HETATM   17  C   UNL     1      -7.986  12.597  68.419  1.00  0.00    -0.134 C  
HETATM   18  C   UNL     1      -9.654  13.108  67.993  1.00  0.00    -0.220 C  
HETATM   19  H   UNL     1     -10.626  14.683  68.402  1.00  0.00     0.000 HD 
HETATM   20  C   UNL     1     -11.784  11.554  65.413  1.00  0.00     0.134 C  
HETATM   21  C   UNL     1      -7.007  13.006  69.575  1.00  0.00     0.184 C  
ENDROOT
BRANCH  12  22
HETATM   22  O   UNL     1      -8.295   8.643  68.739  1.00  0.00    -0.119 OA 
BRANCH  22  23
HETATM   23  C   UNL     1      -7.170   8.192  69.366  1.00  0.00    -0.067 C  
HETATM   24  O   UNL     1      -6.244   8.892  69.755  1.00  0.00    -0.034 OA 
BRANCH  23  25
HETATM   25  C   UNL     1      -7.263   6.712  69.629  1.00  0.00    -0.078 C  
BRANCH  25  26
HETATM   26  S   UNL     1      -6.569   5.756  68.250  1.00  0.00    -0.054 SA 
BRANCH  26  27
HETATM   27  C   UNL     1      -8.024   5.655  67.133  1.00  0.00    -0.102 C  
HETATM   28  C   UNL     1      -9.289   5.225  67.884  1.00  0.00    -0.131 C  
HETATM   29  C   UNL     1     -10.507   5.270  66.962  1.00  0.00    -0.290 C  
HETATM   30  C   UNL     1     -10.290   4.403  65.717  1.00  0.00    -0.217 C  
HETATM   31  N   UNL     1     -11.444   4.495  64.829  1.00  0.00    -0.996 NA 
HETATM   32  C   UNL     1      -9.019   4.816  64.968  1.00  0.00    -0.153 C  
HETATM   33  C   UNL     1      -7.792   4.776  65.885  1.00  0.00    -0.095 C  
HETATM   34  H2  UNL     1     -11.662   5.462  64.587  1.00  0.00     0.000 HD 
HETATM   35  H1  UNL     1     -11.299   3.919  64.001  1.00  0.00     0.000 HD 
HETATM   36  O   UNL     1      -6.657   5.204  65.133  1.00  0.00    -0.038 OA 
HETATM   37  H   UNL     1      -6.514   4.663  64.365  1.00  0.00     0.000 HD 
ENDBRANCH  26  27
ENDBRANCH  25  26
ENDBRANCH  23  25
ENDBRANCH  22  23
ENDBRANCH  12  22
BRANCH  17  38
HETATM   38  C   UNL     1      -7.331  13.587  67.476  1.00  0.00    -0.174 C  
HETATM   39  C   UNL     1      -6.504  14.622  67.460  1.00  0.00    -0.079 C  
ENDBRANCH  17  38
TORSDOF 6
ENDMDL
MODEL      135
REMARK 921   NORMALIZED FREE ENERGY PREDICTED BY IDOCK:   -3.92 KCAL/MOL
REMARK 922        TOTAL FREE ENERGY PREDICTED BY IDOCK:   -6.53 KCAL/MOL
REMARK 923 INTER-LIGAND FREE ENERGY PREDICTED BY IDOCK:   -5.75 KCAL/MOL
REMARK 924 INTRA-LIGAND FREE ENERGY PREDICTED BY IDOCK:   -0.78 KCAL/MOL
REMARK 927      BINDING AFFINITY PREDICTED BY RF-SCORE:    0.00 PKD
ROOT
HETATM    1  C   UNL     1      -8.355   9.215  68.296  1.00  0.00    -0.120 C  
HETATM    2  C   UNL     1      -7.266   8.759  69.919  1.00  0.00    -0.051 C  
HETATM    3  C   UNL     1      -8.329   7.477  70.924  1.00  0.00    -0.114 C  
HETATM    4  O   UNL     1      -6.164   9.199  70.221  1.00  0.00    -0.039 OA 
HETATM    5  C   UNL     1     -10.073   7.316  69.978  1.00  0.00    -0.192 C  
HETATM    6  C   UNL     1      -9.805   8.176  68.302  1.00  0.00    -0.191 C  
HETATM    7  C   UNL     1      -9.928   7.473  66.936  1.00  0.00    -0.318 C  
HETATM    8  C   UNL     1      -9.069   8.133  65.790  1.00  0.00    -0.139 C  
HETATM    9  C   UNL     1      -8.940   9.675  65.827  1.00  0.00    -0.207 C  
HETATM   10  C   UNL     1     -10.375  10.196  65.565  1.00  0.00    -0.196 C  
HETATM   11  C   UNL     1      -8.151  10.202  67.111  1.00  0.00    -0.120 C  
HETATM   12  C   UNL     1      -8.769  11.642  67.505  1.00  0.00    -0.156 C  
HETATM   13  C   UNL     1      -6.632  10.321  66.906  1.00  0.00    -0.076 C  
HETATM   14  C   UNL     1      -9.187  11.831  68.974  1.00  0.00     0.220 C  
HETATM   15  O   UNL     1      -9.787   9.262  71.641  1.00  0.00    -0.278 OA 
HETATM   16  C   UNL     1      -8.719   7.842  69.023  1.00  0.00    -0.135 C  
HETATM   17  C   UNL     1     -10.294  10.806  69.695  1.00  0.00    -0.142 C  
HETATM   18  C   UNL     1      -9.293   9.437  70.286  1.00  0.00    -0.252 C  
HETATM   19  H   UNL     1      -9.258   8.537  71.954  1.00  0.00     0.000 HD 
HETATM   20  C   UNL     1      -7.255   7.201  68.176  1.00  0.00    -0.095 C  
HETATM   21  C   UNL     1     -11.074  11.953  70.430  1.00  0.00     0.852 C  
ENDROOT
BRANCH  12  22
HETATM   22  O   UNL     1      -7.854  12.713  67.198  1.00  0.00    -0.166 OA 
BRANCH  22  23
HETATM   23  C   UNL     1      -8.367  13.977  67.187  1.00  0.00    -0.156 C  
HETATM   24  O   UNL     1      -7.845  14.961  67.696  1.00  0.00    -0.142 OA 
BRANCH  23  25
HETATM   25  C   UNL     1      -9.622  14.037  66.356  1.00  0.00    -0.283 C  
BRANCH  25  26
HETATM   26  S   UNL     1     -10.932  14.958  67.212  1.00  0.00    -0.330 SA 
BRANCH  26  27
HETATM   27  C   UNL     1     -10.266  16.668  67.124  1.00  0.00    -0.290 C  
HETATM   28  C   UNL     1     -10.200  17.324  68.508  1.00  0.00    -0.358 C  
HETATM   29  C   UNL     1      -9.528  18.695  68.426  1.00  0.00    -0.377 C  
HETATM   30  C   UNL     1     -10.249  19.603  67.423  1.00  0.00    -0.434 C  
HETATM   31  N   UNL     1      -9.566  20.889  67.325  1.00  0.00    -0.642 NA 
HETATM   32  C   UNL     1     -10.333  18.949  66.040  1.00  0.00    -0.485 C  
HETATM   33  C   UNL     1     -11.003  17.573  66.113  1.00  0.00     0.245 C  
HETATM   34  H2  UNL     1      -8.578  20.779  67.098  1.00  0.00     0.000 HD 
HETATM   35  H1  UNL     1     -10.046  21.493  66.658  1.00  0.00     0.000 HD 
HETATM   36  O   UNL     1     -11.015  17.011  64.802  1.00  0.00    -0.835 OA 
HETATM   37  H   UNL     1     -11.469  17.568  64.180  1.00  0.00     0.000 HD 
ENDBRANCH  26  27
ENDBRANCH  25  26
ENDBRANCH  23  25
ENDBRANCH  22  23
ENDBRANCH  12  22
BRANCH  17  38
HETATM   38  C   UNL     1     -11.558   9.975  69.595  1.00  0.00    -0.156 C  
HETATM   39  C   UNL     1     -12.851  10.003  69.879  1.00  0.00     0.407 C  
ENDBRANCH  17  38
TORSDOF 6
ENDMDL
MODEL      136
REMARK 921   NORMALIZED FREE ENERGY PREDICTED BY IDOCK:   -3.91 KCAL/MOL
REMARK 922        TOTAL FREE ENERGY PREDICTED BY IDOCK:   -6.52 KCAL/MOL
REMARK 923 INTER-LIGAND FREE ENERGY PREDICTED BY IDOCK:   -6.46 KCAL/MOL
REMARK 924 INTRA-LIGAND FREE ENERGY PREDICTED BY IDOCK:   -0.05 KCAL/MOL
REMARK 927      BINDING AFFINITY PREDICTED BY RF-SCORE:    0.00 PKD
ROOT
HETATM    1  C   UNL     1     -10.383  12.602  67.293  1.00  0.00    -0.230 C  
HETATM    2  C   UNL     1     -11.432  13.393  68.810  1.00  0.00    -0.305 C  
HETATM    3  C   UNL     1     -11.237  15.320  68.638  1.00  0.00    -0.303 C  
HETATM    4  O   UNL     1     -12.060  12.790  69.672  1.00  0.00    -0.289 OA 
HETATM    5  C   UNL     1      -9.966  15.633  67.139  1.00  0.00    -0.240 C  
HETATM    6  C   UNL     1      -9.796  13.946  66.276  1.00  0.00    -0.318 C  
HETATM    7  C   UNL     1     -10.186  13.677  64.810  1.00  0.00    -0.363 C  
HETATM    8  C   UNL     1     -10.580  12.180  64.509  1.00  0.00    -0.350 C  
HETATM    9  C   UNL     1      -9.797  11.092  65.285  1.00  0.00    -0.296 C  
HETATM   10  C   UNL     1      -8.344  11.207  64.763  1.00  0.00     0.325 C  
HETATM   11  C   UNL     1     -10.058  11.144  66.860  1.00  0.00    -0.250 C  
HETATM   12  C   UNL     1      -8.702  10.661  67.593  1.00  0.00    -0.121 C  
HETATM   13  C   UNL     1     -11.243  10.281  67.325  1.00  0.00    -0.090 C  
HETATM   14  C   UNL     1      -8.160  11.576  68.705  1.00  0.00    -0.093 C  
HETATM   15  O   UNL     1      -8.977  15.157  69.469  1.00  0.00    -0.368 OA 
HETATM   16  C   UNL     1     -10.829  14.124  67.120  1.00  0.00    -0.291 C  
HETATM   17  C   UNL     1      -7.799  13.180  68.403  1.00  0.00    -0.135 C  
HETATM   18  C   UNL     1      -9.366  14.026  68.642  1.00  0.00    -0.130 C  
HETATM   19  H   UNL     1      -9.806  15.605  69.595  1.00  0.00     0.000 HD 
HETATM   20  C   UNL     1     -12.446  13.428  66.703  1.00  0.00    -0.212 C  
HETATM   21  C   UNL     1      -6.458  13.168  69.219  1.00  0.00    -0.107 C  
ENDROOT
BRANCH  12  22
HETATM   22  O   UNL     1      -8.854   9.351  68.178  1.00  0.00    -0.124 OA 
BRANCH  22  23
HETATM   23  C   UNL     1      -7.735   8.572  68.242  1.00  0.00    -0.102 C  
HETATM   24  O   UNL     1      -6.843   8.676  69.075  1.00  0.00    -0.054 OA 
BRANCH  23  25
HETATM   25  C   UNL     1      -7.789   7.473  67.214  1.00  0.00    -0.118 C  
BRANCH  25  26
HETATM   26  S   UNL     1      -9.505   7.019  66.829  1.00  0.00    -0.166 SA 
BRANCH  26  27
HETATM   27  C   UNL     1      -9.750   5.597  67.965  1.00  0.00    -0.126 C  
HETATM   28  C   UNL     1      -9.077   5.831  69.322  1.00  0.00    -0.128 C  
HETATM   29  C   UNL     1      -9.400   4.692  70.290  1.00  0.00    -0.218 C  
HETATM   30  C   UNL     1      -8.991   3.337  69.703  1.00  0.00    -0.111 C  
HETATM   31  N   UNL     1      -9.349   2.260  70.621  1.00  0.00    -0.129 NA 
HETATM   32  C   UNL     1      -9.647   3.101  68.338  1.00  0.00    -0.124 C  
HETATM   33  C   UNL     1      -9.331   4.238  67.363  1.00  0.00    -0.163 C  
HETATM   34  H2  UNL     1     -10.338   2.285  70.869  1.00  0.00     0.000 HD 
HETATM   35  H1  UNL     1      -9.077   1.358  70.230  1.00  0.00     0.000 HD 
HETATM   36  O   UNL     1      -9.999   3.971  66.130  1.00  0.00    -0.329 OA 
HETATM   37  H   UNL     1      -9.741   3.134  65.760  1.00  0.00     0.000 HD 
ENDBRANCH  26  27
ENDBRANCH  25  26
ENDBRANCH  23  25
ENDBRANCH  22  23
ENDBRANCH  12  22
BRANCH  17  38
HETATM   38  C   UNL     1      -7.252  14.239  67.466  1.00  0.00    -0.197 C  
HETATM   39  C   UNL     1      -6.670  15.429  67.462  1.00  0.00    -0.211 C  
ENDBRANCH  17  38
TORSDOF 6
ENDMDL
MODEL      137
REMARK 921   NORMALIZED FREE ENERGY PREDICTED BY IDOCK:   -3.91 KCAL/MOL
REMARK 922        TOTAL FREE ENERGY PREDICTED BY IDOCK:   -6.51 KCAL/MOL
REMARK 923 INTER-LIGAND FREE ENERGY PREDICTED BY IDOCK:   -7.08 KCAL/MOL
REMARK 924 INTRA-LIGAND FREE ENERGY PREDICTED BY IDOCK:    0.57 KCAL/MOL
REMARK 927      BINDING AFFINITY PREDICTED BY RF-SCORE:    0.00 PKD
ROOT
HETATM    1  C   UNL     1      -9.279  14.976  68.180  1.00  0.00    -0.183 C  
HETATM    2  C   UNL     1      -7.411  14.872  67.451  1.00  0.00    -0.199 C  
HETATM    3  C   UNL     1      -6.691  16.672  67.588  1.00  0.00    -0.161 C  
HETATM    4  O   UNL     1      -6.843  13.883  67.006  1.00  0.00    -0.017 OA 
HETATM    5  C   UNL     1      -8.172  17.832  68.238  1.00  0.00    -0.285 C  
HETATM    6  C   UNL     1      -9.526  16.625  68.814  1.00  0.00    -0.258 C  
HETATM    7  C   UNL     1     -10.054  16.538  70.259  1.00  0.00     0.664 C  
HETATM    8  C   UNL     1     -10.637  15.126  70.650  1.00  0.00    -0.075 C  
HETATM    9  C   UNL     1     -11.385  14.356  69.533  1.00  0.00    -0.318 C  
HETATM   10  C   UNL     1     -12.643  15.212  69.243  1.00  0.00     0.112 C  
HETATM   11  C   UNL     1     -10.435  13.944  68.319  1.00  0.00    -0.252 C  
HETATM   12  C   UNL     1     -11.329  13.964  66.973  1.00  0.00    -0.326 C  
HETATM   13  C   UNL     1      -9.768  12.569  68.486  1.00  0.00    -0.133 C  
HETATM   14  C   UNL     1     -10.762  14.759  65.784  1.00  0.00    -0.333 C  
HETATM   15  O   UNL     1      -8.049  17.349  65.711  1.00  0.00    -0.543 OA 
HETATM   16  C   UNL     1      -8.284  16.141  68.626  1.00  0.00    -0.202 C  
HETATM   17  C   UNL     1     -10.382  16.380  65.932  1.00  0.00    -0.378 C  
HETATM   18  C   UNL     1      -8.702  16.373  66.567  1.00  0.00    -0.289 C  
HETATM   19  H   UNL     1      -7.161  17.345  66.047  1.00  0.00     0.000 HD 
HETATM   20  C   UNL     1      -7.629  14.911  69.779  1.00  0.00    -0.028 C  
HETATM   21  C   UNL     1     -10.997  16.785  64.546  1.00  0.00     0.290 C  
ENDROOT
BRANCH  12  22
HETATM   22  O   UNL     1     -11.588  12.630  66.489  1.00  0.00    -0.339 OA 
BRANCH  22  23
HETATM   23  C   UNL     1     -11.779  12.489  65.146  1.00  0.00    -0.378 C  
HETATM   24  O   UNL     1     -12.863  12.365  64.591  1.00  0.00    -0.714 OA 
BRANCH  23  25
HETATM   25  C   UNL     1     -10.475  12.625  64.403  1.00  0.00    -0.373 C  
BRANCH  25  26
HETATM   26  S   UNL     1     -10.210  11.221  63.282  1.00  0.00    -0.337 SA 
BRANCH  26  27
HETATM   27  C   UNL     1      -9.558   9.963  64.450  1.00  0.00    -0.189 C  
HETATM   28  C   UNL     1      -9.063  10.600  65.754  1.00  0.00    -0.208 C  
HETATM   29  C   UNL     1      -8.644   9.525  66.757  1.00  0.00    -0.133 C  
HETATM   30  C   UNL     1      -7.576   8.601  66.160  1.00  0.00    -0.093 C  
HETATM   31  N   UNL     1      -7.222   7.555  67.115  1.00  0.00    -0.084 NA 
HETATM   32  C   UNL     1      -8.056   7.971  64.848  1.00  0.00    -0.147 C  
HETATM   33  C   UNL     1      -8.481   9.041  63.838  1.00  0.00    -0.160 C  
HETATM   34  H2  UNL     1      -8.041   7.036  67.432  1.00  0.00     0.000 HD 
HETATM   35  H1  UNL     1      -6.512   6.941  66.717  1.00  0.00     0.000 HD 
HETATM   36  O   UNL     1      -8.947   8.385  62.659  1.00  0.00    -0.411 OA 
HETATM   37  H   UNL     1      -8.284   7.818  62.282  1.00  0.00     0.000 HD 
ENDBRANCH  26  27
ENDBRANCH  25  26
ENDBRANCH  23  25
ENDBRANCH  22  23
ENDBRANCH  12  22
BRANCH  17  38
HETATM   38  C   UNL     1     -10.703  17.747  66.504  1.00  0.00    -0.111 C  
HETATM   39  C   UNL     1     -10.645  19.039  66.217  1.00  0.00    -0.493 C  
ENDBRANCH  17  38
TORSDOF 6
ENDMDL
MODEL      138
REMARK 921   NORMALIZED FREE ENERGY PREDICTED BY IDOCK:   -3.89 KCAL/MOL
REMARK 922        TOTAL FREE ENERGY PREDICTED BY IDOCK:   -6.49 KCAL/MOL
REMARK 923 INTER-LIGAND FREE ENERGY PREDICTED BY IDOCK:   -8.31 KCAL/MOL
REMARK 924 INTRA-LIGAND FREE ENERGY PREDICTED BY IDOCK:    1.82 KCAL/MOL
REMARK 927      BINDING AFFINITY PREDICTED BY RF-SCORE:    0.00 PKD
ROOT
HETATM    1  C   UNL     1      -7.246   9.787  68.574  1.00  0.00    -0.070 C  
HETATM    2  C   UNL     1      -6.525  10.268  70.384  1.00  0.00    -0.131 C  
HETATM    3  C   UNL     1      -6.732   8.671  71.475  1.00  0.00    -0.078 C  
HETATM    4  O   UNL     1      -6.058  11.344  70.735  1.00  0.00    -0.348 OA 
HETATM    5  C   UNL     1      -7.702   7.339  70.358  1.00  0.00    -0.094 C  
HETATM    6  C   UNL     1      -7.662   8.052  68.595  1.00  0.00    -0.105 C  
HETATM    7  C   UNL     1      -6.994   7.358  67.393  1.00  0.00    -0.079 C  
HETATM    8  C   UNL     1      -6.512   8.345  66.261  1.00  0.00    -0.054 C  
HETATM    9  C   UNL     1      -7.401   9.588  66.007  1.00  0.00    -0.097 C  
HETATM   10  C   UNL     1      -8.731   9.013  65.459  1.00  0.00    -0.212 C  
HETATM   11  C   UNL     1      -7.445  10.585  67.253  1.00  0.00    -0.095 C  
HETATM   12  C   UNL     1      -8.904  11.280  67.267  1.00  0.00    -0.150 C  
HETATM   13  C   UNL     1      -6.350  11.663  67.230  1.00  0.00    -0.118 C  
HETATM   14  C   UNL     1      -9.671  11.239  68.601  1.00  0.00    -0.200 C  
HETATM   15  O   UNL     1      -9.104   9.091  71.623  1.00  0.00    -0.300 OA 
HETATM   16  C   UNL     1      -6.813   8.565  69.505  1.00  0.00    -0.044 C  
HETATM   17  C   UNL     1     -10.008   9.788  69.359  1.00  0.00    -0.217 C  
HETATM   18  C   UNL     1      -8.537   9.462  70.337  1.00  0.00    -0.230 C  
HETATM   19  H   UNL     1      -8.326   8.918  72.141  1.00  0.00     0.000 HD 
HETATM   20  C   UNL     1      -5.130   8.998  69.003  1.00  0.00    -0.037 C  
HETATM   21  C   UNL     1     -11.479  10.179  69.741  1.00  0.00    -0.288 C  
ENDROOT
BRANCH  12  22
HETATM   22  O   UNL     1      -8.834  12.666  66.876  1.00  0.00    -0.210 OA 
BRANCH  22  23
HETATM   23  C   UNL     1      -9.930  13.436  67.136  1.00  0.00    -0.242 C  
HETATM   24  O   UNL     1     -10.470  14.195  66.342  1.00  0.00    -0.276 OA 
BRANCH  23  25
HETATM   25  C   UNL     1     -10.476  13.141  68.509  1.00  0.00    -0.251 C  
BRANCH  25  26
HETATM   26  S   UNL     1     -12.134  13.851  68.722  1.00  0.00    -0.214 SA 
BRANCH  26  27
HETATM   27  C   UNL     1     -12.056  14.392  70.475  1.00  0.00    -0.334 C  
HETATM   28  C   UNL     1     -13.060  13.633  71.350  1.00  0.00    -0.396 C  
HETATM   29  C   UNL     1     -12.889  14.010  72.821  1.00  0.00    -0.399 C  
HETATM   30  C   UNL     1     -13.024  15.524  73.022  1.00  0.00    -0.499 C  
HETATM   31  N   UNL     1     -12.812  15.867  74.425  1.00  0.00    -0.925 NA 
HETATM   32  C   UNL     1     -12.034  16.292  72.141  1.00  0.00    -0.575 C  
HETATM   33  C   UNL     1     -12.196  15.918  70.664  1.00  0.00    -0.309 C  
HETATM   34  H2  UNL     1     -11.921  15.514  74.773  1.00  0.00     0.000 HD 
HETATM   35  H1  UNL     1     -12.901  16.874  74.559  1.00  0.00     0.000 HD 
HETATM   36  O   UNL     1     -11.224  16.642  69.910  1.00  0.00    -0.399 OA 
HETATM   37  H   UNL     1     -11.310  17.581  70.026  1.00  0.00     0.000 HD 
ENDBRANCH  26  27
ENDBRANCH  25  26
ENDBRANCH  23  25
ENDBRANCH  22  23
ENDBRANCH  12  22
BRANCH  17  38
HETATM   38  C   UNL     1     -10.393   8.325  69.261  1.00  0.00    -0.223 C  
HETATM   39  C   UNL     1     -11.202   7.421  69.793  1.00  0.00    -0.110 C  
ENDBRANCH  17  38
TORSDOF 6
ENDMDL
MODEL      139
REMARK 921   NORMALIZED FREE ENERGY PREDICTED BY IDOCK:   -3.86 KCAL/MOL
REMARK 922        TOTAL FREE ENERGY PREDICTED BY IDOCK:   -6.45 KCAL/MOL
REMARK 923 INTER-LIGAND FREE ENERGY PREDICTED BY IDOCK:   -4.18 KCAL/MOL
REMARK 924 INTRA-LIGAND FREE ENERGY PREDICTED BY IDOCK:   -2.27 KCAL/MOL
REMARK 927      BINDING AFFINITY PREDICTED BY RF-SCORE:    0.00 PKD
ROOT
HETATM    1  C   UNL     1      -8.389   9.403  68.128  1.00  0.00    -0.119 C  
HETATM    2  C   UNL     1      -7.425  11.110  68.561  1.00  0.00    -0.112 C  
HETATM    3  C   UNL     1      -7.882  12.349  67.133  1.00  0.00    -0.138 C  
HETATM    4  O   UNL     1      -6.695  11.327  69.519  1.00  0.00    -0.111 OA 
HETATM    5  C   UNL     1      -8.964  11.325  65.813  1.00  0.00    -0.191 C  
HETATM    6  C   UNL     1      -9.412   9.701  66.697  1.00  0.00    -0.221 C  
HETATM    7  C   UNL     1     -10.853   9.248  67.003  1.00  0.00    -0.077 C  
HETATM    8  C   UNL     1     -10.978   8.285  68.246  1.00  0.00     0.161 C  
HETATM    9  C   UNL     1      -9.818   7.281  68.459  1.00  0.00    -0.159 C  
HETATM   10  C   UNL     1      -9.894   6.329  67.240  1.00  0.00    -0.165 C  
HETATM   11  C   UNL     1      -8.430   7.997  68.793  1.00  0.00    -0.127 C  
HETATM   12  C   UNL     1      -7.250   7.082  68.177  1.00  0.00    -0.091 C  
HETATM   13  C   UNL     1      -8.190   8.223  70.295  1.00  0.00    -0.121 C  
HETATM   14  C   UNL     1      -6.214   7.801  67.295  1.00  0.00    -0.054 C  
HETATM   15  O   UNL     1      -6.399  11.164  65.643  1.00  0.00    -0.365 OA 
HETATM   16  C   UNL     1      -8.962  10.726  67.445  1.00  0.00    -0.141 C  
HETATM   17  C   UNL     1      -6.683   8.661  65.940  1.00  0.00    -0.061 C  
HETATM   18  C   UNL     1      -7.082  10.291  66.583  1.00  0.00    -0.108 C  
HETATM   19  H   UNL     1      -6.610  12.025  65.982  1.00  0.00     0.000 HD 
HETATM   20  C   UNL     1      -9.708  11.037  69.064  1.00  0.00    -0.151 C  
HETATM   21  C   UNL     1      -5.517   8.127  65.036  1.00  0.00    -0.040 C  
ENDROOT
BRANCH  12  22
HETATM   22  O   UNL     1      -6.508   6.406  69.213  1.00  0.00    -0.039 OA 
BRANCH  22  23
HETATM   23  C   UNL     1      -6.717   5.064  69.344  1.00  0.00    -0.052 C  
HETATM   24  O   UNL     1      -7.444   4.536  70.175  1.00  0.00    -0.049 OA 
BRANCH  23  25
HETATM   25  C   UNL     1      -6.020   4.305  68.245  1.00  0.00    -0.027 C  
BRANCH  25  26
HETATM   26  S   UNL     1      -6.848   2.723  67.914  1.00  0.00    -0.049 SA 
BRANCH  26  27
HETATM   27  C   UNL     1      -7.564   3.049  66.254  1.00  0.00    -0.077 C  
HETATM   28  C   UNL     1      -7.039   4.358  65.655  1.00  0.00    -0.067 C  
HETATM   29  C   UNL     1      -7.550   4.543  64.226  1.00  0.00    -0.072 C  
HETATM   30  C   UNL     1      -9.082   4.496  64.178  1.00  0.00    -0.132 C  
HETATM   31  N   UNL     1      -9.548   4.628  62.802  1.00  0.00    -0.341 NA 
HETATM   32  C   UNL     1      -9.617   3.196  64.789  1.00  0.00    -0.136 C  
HETATM   33  C   UNL     1      -9.107   3.001  66.220  1.00  0.00    -0.143 C  
HETATM   34  H2  UNL     1      -9.126   3.931  62.188  1.00  0.00     0.000 HD 
HETATM   35  H1  UNL     1     -10.567   4.596  62.770  1.00  0.00     0.000 HD 
HETATM   36  O   UNL     1      -9.615   1.761  66.712  1.00  0.00    -0.358 OA 
HETATM   37  H   UNL     1     -10.564   1.732  66.691  1.00  0.00     0.000 HD 
ENDBRANCH  26  27
ENDBRANCH  25  26
ENDBRANCH  23  25
ENDBRANCH  22  23
ENDBRANCH  12  22
BRANCH  17  38
HETATM   38  C   UNL     1      -7.591   8.801  64.734  1.00  0.00    -0.107 C  
HETATM   39  C   UNL     1      -7.965   8.170  63.631  1.00  0.00    -0.140 C  
ENDBRANCH  17  38
TORSDOF 6
ENDMDL
MODEL      140
REMARK 921   NORMALIZED FREE ENERGY PREDICTED BY IDOCK:   -3.85 KCAL/MOL
REMARK 922        TOTAL FREE ENERGY PREDICTED BY IDOCK:   -6.43 KCAL/MOL
REMARK 923 INTER-LIGAND FREE ENERGY PREDICTED BY IDOCK:   -6.09 KCAL/MOL
REMARK 924 INTRA-LIGAND FREE ENERGY PREDICTED BY IDOCK:   -0.34 KCAL/MOL
REMARK 927      BINDING AFFINITY PREDICTED BY RF-SCORE:    0.00 PKD
ROOT
HETATM    1  C   UNL     1      -8.981   6.596  70.801  1.00  0.00    -0.151 C  
HETATM    2  C   UNL     1     -10.632   5.599  70.247  1.00  0.00    -0.300 C  
HETATM    3  C   UNL     1     -10.015   3.865  69.620  1.00  0.00     0.071 C  
HETATM    4  O   UNL     1     -11.789   5.999  70.287  1.00  0.00    -0.103 OA 
HETATM    5  C   UNL     1      -8.026   3.918  69.662  1.00  0.00    -0.058 C  
HETATM    6  C   UNL     1      -7.596   5.481  70.657  1.00  0.00    -0.089 C  
HETATM    7  C   UNL     1      -6.810   5.478  71.982  1.00  0.00    -0.071 C  
HETATM    8  C   UNL     1      -7.124   6.704  72.923  1.00  0.00    -0.076 C  
HETATM    9  C   UNL     1      -7.401   8.057  72.223  1.00  0.00    -0.110 C  
HETATM   10  C   UNL     1      -6.056   8.434  71.554  1.00  0.00    -0.043 C  
HETATM   11  C   UNL     1      -8.726   8.036  71.333  1.00  0.00    -0.163 C  
HETATM   12  C   UNL     1      -8.488   9.030  70.082  1.00  0.00    -0.157 C  
HETATM   13  C   UNL     1      -9.997   8.446  72.095  1.00  0.00    -0.376 C  
HETATM   14  C   UNL     1      -8.791   8.461  68.685  1.00  0.00    -0.136 C  
HETATM   15  O   UNL     1      -9.207   4.896  67.592  1.00  0.00    -0.116 OA 
HETATM   16  C   UNL     1      -8.853   5.007  70.735  1.00  0.00    -0.156 C  
HETATM   17  C   UNL     1      -8.031   7.077  68.134  1.00  0.00    -0.119 C  
HETATM   18  C   UNL     1      -9.057   5.743  68.764  1.00  0.00    -0.115 C  
HETATM   19  H   UNL     1      -9.749   4.191  67.925  1.00  0.00     0.000 HD 
HETATM   20  C   UNL     1      -9.717   5.039  72.324  1.00  0.00    -0.201 C  
HETATM   21  C   UNL     1      -7.775   7.635  66.690  1.00  0.00    -0.098 C  
ENDROOT
BRANCH  12  22
HETATM   22  O   UNL     1      -9.266  10.238  70.210  1.00  0.00     0.081 OA 
BRANCH  22  23
HETATM   23  C   UNL     1      -9.679  10.830  69.052  1.00  0.00    -0.187 C  
HETATM   24  O   UNL     1      -8.951  11.170  68.129  1.00  0.00    -0.146 OA 
BRANCH  23  25
HETATM   25  C   UNL     1     -11.183  10.907  68.999  1.00  0.00    -0.266 C  
BRANCH  25  26
HETATM   26  S   UNL     1     -11.734  12.507  68.341  1.00  0.00    -0.315 SA 
BRANCH  26  27
HETATM   27  C   UNL     1     -11.797  13.510  69.878  1.00  0.00    -0.316 C  
HETATM   28  C   UNL     1     -12.703  12.871  70.937  1.00  0.00    -0.291 C  
HETATM   29  C   UNL     1     -12.641  13.655  72.248  1.00  0.00    -0.121 C  
HETATM   30  C   UNL     1     -13.011  15.126  72.028  1.00  0.00    -0.351 C  
HETATM   31  N   UNL     1     -12.901  15.867  73.281  1.00  0.00    -0.506 NA 
HETATM   32  C   UNL     1     -12.120  15.770  70.960  1.00  0.00    -0.464 C  
HETATM   33  C   UNL     1     -12.174  14.989  69.644  1.00  0.00    -0.258 C  
HETATM   34  H2  UNL     1     -11.978  15.765  73.704  1.00  0.00     0.000 HD 
HETATM   35  H1  UNL     1     -13.146  16.846  73.135  1.00  0.00     0.000 HD 
HETATM   36  O   UNL     1     -11.299  15.622  68.711  1.00  0.00    -0.304 OA 
HETATM   37  H   UNL     1     -11.530  16.532  68.567  1.00  0.00     0.000 HD 
ENDBRANCH  26  27
ENDBRANCH  25  26
ENDBRANCH  23  25
ENDBRANCH  22  23
ENDBRANCH  12  22
BRANCH  17  38
HETATM   38  C   UNL     1      -6.784   6.218  68.054  1.00  0.00    -0.064 C  
HETATM   39  C   UNL     1      -5.720   5.992  67.298  1.00  0.00    -0.016 C  
ENDBRANCH  17  38
TORSDOF 6
ENDMDL
MODEL      141
REMARK 921   NORMALIZED FREE ENERGY PREDICTED BY IDOCK:   -3.81 KCAL/MOL
REMARK 922        TOTAL FREE ENERGY PREDICTED BY IDOCK:   -6.39 KCAL/MOL
REMARK 923 INTER-LIGAND FREE ENERGY PREDICTED BY IDOCK:   -6.54 KCAL/MOL
REMARK 924 INTRA-LIGAND FREE ENERGY PREDICTED BY IDOCK:    0.15 KCAL/MOL
REMARK 927      BINDING AFFINITY PREDICTED BY RF-SCORE:    0.00 PKD
ROOT
HETATM    1  C   UNL     1      -8.321  18.424  68.170  1.00  0.00    -0.301 C  
HETATM    2  C   UNL     1      -6.855  18.793  69.490  1.00  0.00    -0.109 C  
HETATM    3  C   UNL     1      -6.339  20.645  69.201  1.00  0.00    -0.185 C  
HETATM    4  O   UNL     1      -6.378  18.013  70.305  1.00  0.00     0.026 OA 
HETATM    5  C   UNL     1      -7.380  21.290  67.632  1.00  0.00     0.043 C  
HETATM    6  C   UNL     1      -8.704  19.955  67.338  1.00  0.00    -0.401 C  
HETATM    7  C   UNL     1     -10.222  20.207  67.416  1.00  0.00    -0.534 C  
HETATM    8  C   UNL     1     -11.071  18.930  67.786  1.00  0.00    -0.053 C  
HETATM    9  C   UNL     1     -10.566  17.580  67.221  1.00  0.00    -0.287 C  
HETATM   10  C   UNL     1     -10.735  17.709  65.686  1.00  0.00    -0.084 C  
HETATM   11  C   UNL     1      -9.143  17.154  67.807  1.00  0.00    -0.233 C  
HETATM   12  C   UNL     1      -8.368  16.330  66.653  1.00  0.00    -0.280 C  
HETATM   13  C   UNL     1      -9.223  16.311  69.090  1.00  0.00    -0.235 C  
HETATM   14  C   UNL     1      -6.935  16.786  66.330  1.00  0.00    -0.028 C  
HETATM   15  O   UNL     1      -5.197  20.002  67.175  1.00  0.00    -0.156 OA 
HETATM   16  C   UNL     1      -8.061  19.959  68.520  1.00  0.00    -0.203 C  
HETATM   17  C   UNL     1      -6.614  18.359  65.862  1.00  0.00    -0.306 C  
HETATM   18  C   UNL     1      -6.409  19.237  67.415  1.00  0.00    -0.195 C  
HETATM   19  H   UNL     1      -5.089  20.467  67.996  1.00  0.00     0.000 HD 
HETATM   20  C   UNL     1      -8.983  19.596  70.033  1.00  0.00     0.949 C  
HETATM   21  C   UNL     1      -5.610  17.954  64.725  1.00  0.00     0.359 C  
ENDROOT
BRANCH  12  22
HETATM   22  O   UNL     1      -8.291  14.925  66.967  1.00  0.00    -0.207 OA 
BRANCH  22  23
HETATM   23  C   UNL     1      -9.369  14.159  66.632  1.00  0.00    -0.282 C  
HETATM   24  O   UNL     1      -9.799  13.993  65.498  1.00  0.00    -0.279 OA 
BRANCH  23  25
HETATM   25  C   UNL     1      -9.906  13.435  67.839  1.00  0.00    -0.237 C  
BRANCH  25  26
HETATM   26  S   UNL     1     -11.613  12.879  67.565  1.00  0.00    -0.369 SA 
BRANCH  26  27
HETATM   27  C   UNL     1     -12.389  13.343  69.163  1.00  0.00    -0.009 C  
HETATM   28  C   UNL     1     -12.088  14.798  69.540  1.00  0.00    -0.328 C  
HETATM   29  C   UNL     1     -12.846  15.197  70.806  1.00  0.00    -0.473 C  
HETATM   30  C   UNL     1     -12.516  14.252  71.967  1.00  0.00    -0.252 C  
HETATM   31  N   UNL     1     -13.284  14.622  73.153  1.00  0.00    -0.572 NA 
HETATM   32  C   UNL     1     -12.801  12.794  71.594  1.00  0.00    -0.363 C  
HETATM   33  C   UNL     1     -12.047  12.385  70.325  1.00  0.00    -0.297 C  
HETATM   34  H2  UNL     1     -14.285  14.657  72.962  1.00  0.00     0.000 HD 
HETATM   35  H1  UNL     1     -13.065  13.993  73.925  1.00  0.00     0.000 HD 
HETATM   36  O   UNL     1     -12.384  11.033  70.019  1.00  0.00    -0.320 OA 
HETATM   37  H   UNL     1     -12.174  10.443  70.734  1.00  0.00     0.000 HD 
ENDBRANCH  26  27
ENDBRANCH  25  26
ENDBRANCH  23  25
ENDBRANCH  22  23
ENDBRANCH  12  22
BRANCH  17  38
HETATM   38  C   UNL     1      -7.025  19.600  65.095  1.00  0.00    -0.110 C  
HETATM   39  C   UNL     1      -6.539  20.725  64.591  1.00  0.00    -0.231 C  
ENDBRANCH  17  38
TORSDOF 6
ENDMDL
MODEL      142
REMARK 921   NORMALIZED FREE ENERGY PREDICTED BY IDOCK:   -3.81 KCAL/MOL
REMARK 922        TOTAL FREE ENERGY PREDICTED BY IDOCK:   -6.38 KCAL/MOL
REMARK 923 INTER-LIGAND FREE ENERGY PREDICTED BY IDOCK:   -5.42 KCAL/MOL
REMARK 924 INTRA-LIGAND FREE ENERGY PREDICTED BY IDOCK:   -0.96 KCAL/MOL
REMARK 927      BINDING AFFINITY PREDICTED BY RF-SCORE:    0.00 PKD
ROOT
HETATM    1  C   UNL     1      -9.697   7.309  69.638  1.00  0.00    -0.159 C  
HETATM    2  C   UNL     1     -10.554   6.419  68.056  1.00  0.00    -0.254 C  
HETATM    3  C   UNL     1      -9.901   4.587  68.065  1.00  0.00    -0.154 C  
HETATM    4  O   UNL     1     -11.322   6.923  67.248  1.00  0.00    -0.263 OA 
HETATM    5  C   UNL     1      -8.565   4.464  69.535  1.00  0.00    -0.104 C  
HETATM    6  C   UNL     1      -8.788   6.065  70.538  1.00  0.00    -0.146 C  
HETATM    7  C   UNL     1      -9.203   6.109  72.021  1.00  0.00    -0.148 C  
HETATM    8  C   UNL     1      -9.939   7.438  72.447  1.00  0.00    -0.221 C  
HETATM    9  C   UNL     1      -9.452   8.742  71.768  1.00  0.00    -0.363 C  
HETATM   10  C   UNL     1      -8.004   8.936  72.282  1.00  0.00     0.169 C  
HETATM   11  C   UNL     1      -9.722   8.761  70.195  1.00  0.00    -0.188 C  
HETATM   12  C   UNL     1      -8.534   9.615  69.509  1.00  0.00    -0.159 C  
HETATM   13  C   UNL     1     -11.086   9.351  69.802  1.00  0.00    -0.193 C  
HETATM   14  C   UNL     1      -7.809   8.952  68.324  1.00  0.00    -0.101 C  
HETATM   15  O   UNL     1      -7.760   5.356  67.256  1.00  0.00    -0.094 OA 
HETATM   16  C   UNL     1      -9.763   5.715  69.679  1.00  0.00    -0.222 C  
HETATM   17  C   UNL     1      -7.070   7.461  68.489  1.00  0.00    -0.084 C  
HETATM   18  C   UNL     1      -8.393   6.287  68.175  1.00  0.00    -0.115 C  
HETATM   19  H   UNL     1      -8.460   4.735  67.090  1.00  0.00     0.000 HD 
HETATM   20  C   UNL     1     -11.491   5.967  70.150  1.00  0.00    -0.072 C  
HETATM   21  C   UNL     1      -5.785   7.862  67.681  1.00  0.00    -0.038 C  
ENDROOT
BRANCH  12  22
HETATM   22  O   UNL     1      -9.004  10.894  69.038  1.00  0.00    -0.158 OA 
BRANCH  22  23
HETATM   23  C   UNL     1      -8.064  11.755  68.551  1.00  0.00    -0.140 C  
HETATM   24  O   UNL     1      -7.054  12.113  69.144  1.00  0.00    -0.090 OA 
BRANCH  23  25
HETATM   25  C   UNL     1      -8.367  12.126  67.123  1.00  0.00    -0.183 C  
BRANCH  25  26
HETATM   26  S   UNL     1      -9.134  13.768  67.021  1.00  0.00    -0.241 SA 
BRANCH  26  27
HETATM   27  C   UNL     1     -10.085  13.804  68.592  1.00  0.00    -0.193 C  
HETATM   28  C   UNL     1     -11.594  13.701  68.346  1.00  0.00    -0.377 C  
HETATM   29  C   UNL     1     -12.353  13.607  69.670  1.00  0.00    -0.257 C  
HETATM   30  C   UNL     1     -12.027  14.797  70.579  1.00  0.00    -0.312 C  
HETATM   31  N   UNL     1     -12.725  14.665  71.854  1.00  0.00    -0.320 NA 
HETATM   32  C   UNL     1     -10.518  14.917  70.818  1.00  0.00     0.331 C  
HETATM   33  C   UNL     1      -9.749  15.009  69.497  1.00  0.00    -0.103 C  
HETATM   34  H2  UNL     1     -12.524  13.773  72.307  1.00  0.00     0.000 HD 
HETATM   35  H1  UNL     1     -12.507  15.457  72.458  1.00  0.00     0.000 HD 
HETATM   36  O   UNL     1      -8.355  15.083  69.794  1.00  0.00    -0.428 OA 
HETATM   37  H   UNL     1      -8.149  15.825  70.351  1.00  0.00     0.000 HD 
ENDBRANCH  26  27
ENDBRANCH  25  26
ENDBRANCH  23  25
ENDBRANCH  22  23
ENDBRANCH  12  22
BRANCH  17  38
HETATM   38  C   UNL     1      -6.268   6.490  69.334  1.00  0.00    -0.034 C  
HETATM   39  C   UNL     1      -5.154   5.773  69.326  1.00  0.00    -0.004 C  
ENDBRANCH  17  38
TORSDOF 6
ENDMDL
MODEL      143
REMARK 921   NORMALIZED FREE ENERGY PREDICTED BY IDOCK:   -3.78 KCAL/MOL
REMARK 922        TOTAL FREE ENERGY PREDICTED BY IDOCK:   -6.34 KCAL/MOL
REMARK 923 INTER-LIGAND FREE ENERGY PREDICTED BY IDOCK:   -5.59 KCAL/MOL
REMARK 924 INTRA-LIGAND FREE ENERGY PREDICTED BY IDOCK:   -0.75 KCAL/MOL
REMARK 927      BINDING AFFINITY PREDICTED BY RF-SCORE:    0.00 PKD
ROOT
HETATM    1  C   UNL     1      -9.318   7.565  69.264  1.00  0.00    -0.151 C  
HETATM    2  C   UNL     1     -10.333   7.147  67.584  1.00  0.00    -0.215 C  
HETATM    3  C   UNL     1     -10.263   5.213  67.392  1.00  0.00    -0.224 C  
HETATM    4  O   UNL     1     -10.879   7.943  66.830  1.00  0.00    -0.234 OA 
HETATM    5  C   UNL     1      -9.091   4.538  68.852  1.00  0.00    -0.171 C  
HETATM    6  C   UNL     1      -8.865   6.017  70.028  1.00  0.00    -0.139 C  
HETATM    7  C   UNL     1      -9.312   6.030  71.502  1.00  0.00    -0.161 C  
HETATM    8  C   UNL     1      -9.632   7.468  72.067  1.00  0.00    -0.189 C  
HETATM    9  C   UNL     1      -8.747   8.626  71.545  1.00  0.00    -0.266 C  
HETATM   10  C   UNL     1      -7.331   8.316  72.091  1.00  0.00    -0.125 C  
HETATM   11  C   UNL     1      -8.929   8.890  69.981  1.00  0.00    -0.172 C  
HETATM   12  C   UNL     1      -7.511   9.409  69.406  1.00  0.00    -0.080 C  
HETATM   13  C   UNL     1     -10.034   9.903  69.643  1.00  0.00    -0.255 C  
HETATM   14  C   UNL     1      -6.968   8.684  68.162  1.00  0.00    -0.074 C  
HETATM   15  O   UNL     1      -7.957   5.375  66.697  1.00  0.00    -0.103 OA 
HETATM   16  C   UNL     1      -9.862   6.071  69.125  1.00  0.00    -0.185 C  
HETATM   17  C   UNL     1      -6.719   7.031  68.166  1.00  0.00    -0.064 C  
HETATM   18  C   UNL     1      -8.319   6.354  67.709  1.00  0.00    -0.118 C  
HETATM   19  H   UNL     1      -8.803   5.017  66.455  1.00  0.00     0.000 HD 
HETATM   20  C   UNL     1     -11.454   6.786  69.604  1.00  0.00    -0.286 C  
HETATM   21  C   UNL     1      -5.340   7.105  67.421  1.00  0.00    -0.020 C  
ENDROOT
BRANCH  12  22
HETATM   22  O   UNL     1      -7.553  10.812  69.078  1.00  0.00    -0.106 OA 
BRANCH  22  23
HETATM   23  C   UNL     1      -6.680  11.626  69.739  1.00  0.00    -0.012 C  
HETATM   24  O   UNL     1      -6.261  11.446  70.875  1.00  0.00    -0.324 OA 
BRANCH  23  25
HETATM   25  C   UNL     1      -6.196  12.733  68.839  1.00  0.00    -0.085 C  
BRANCH  25  26
HETATM   26  S   UNL     1      -5.924  14.266  69.773  1.00  0.00    -0.130 SA 
BRANCH  26  27
HETATM   27  C   UNL     1      -7.235  15.340  69.066  1.00  0.00    -0.151 C  
HETATM   28  C   UNL     1      -8.009  14.632  67.948  1.00  0.00    -0.149 C  
HETATM   29  C   UNL     1      -9.172  15.496  67.464  1.00  0.00    -0.200 C  
HETATM   30  C   UNL     1      -8.682  16.873  67.002  1.00  0.00    -0.209 C  
HETATM   31  N   UNL     1      -9.812  17.698  66.587  1.00  0.00    -0.295 NA 
HETATM   32  C   UNL     1      -7.894  17.582  68.108  1.00  0.00    -0.244 C  
HETATM   33  C   UNL     1      -6.728  16.722  68.602  1.00  0.00    -0.174 C  
HETATM   34  H2  UNL     1     -10.519  17.772  67.318  1.00  0.00     0.000 HD 
HETATM   35  H1  UNL     1      -9.485  18.614  66.280  1.00  0.00     0.000 HD 
HETATM   36  O   UNL     1      -6.063  17.427  69.651  1.00  0.00    -0.239 OA 
HETATM   37  H   UNL     1      -5.751  18.278  69.365  1.00  0.00     0.000 HD 
ENDBRANCH  26  27
ENDBRANCH  25  26
ENDBRANCH  23  25
ENDBRANCH  22  23
ENDBRANCH  12  22
BRANCH  17  38
HETATM   38  C   UNL     1      -6.285   5.780  68.904  1.00  0.00    -0.029 C  
HETATM   39  C   UNL     1      -5.558   4.682  68.759  1.00  0.00    -0.012 C  
ENDBRANCH  17  38
TORSDOF 6
ENDMDL
MODEL      144
REMARK 921   NORMALIZED FREE ENERGY PREDICTED BY IDOCK:   -3.75 KCAL/MOL
REMARK 922        TOTAL FREE ENERGY PREDICTED BY IDOCK:   -6.30 KCAL/MOL
REMARK 923 INTER-LIGAND FREE ENERGY PREDICTED BY IDOCK:   -4.97 KCAL/MOL
REMARK 924 INTRA-LIGAND FREE ENERGY PREDICTED BY IDOCK:   -1.33 KCAL/MOL
REMARK 927      BINDING AFFINITY PREDICTED BY RF-SCORE:    0.00 PKD
ROOT
HETATM    1  C   UNL     1      -8.500   8.476  67.004  1.00  0.00    -0.114 C  
HETATM    2  C   UNL     1     -10.392   8.921  67.503  1.00  0.00    -0.263 C  
HETATM    3  C   UNL     1     -10.381  10.804  67.987  1.00  0.00    -0.211 C  
HETATM    4  O   UNL     1     -11.355   8.164  67.509  1.00  0.00     0.446 OA 
HETATM    5  C   UNL     1      -8.482  11.398  67.923  1.00  0.00    -0.139 C  
HETATM    6  C   UNL     1      -7.554   9.988  67.044  1.00  0.00    -0.092 C  
HETATM    7  C   UNL     1      -6.796  10.146  65.712  1.00  0.00    -0.118 C  
HETATM    8  C   UNL     1      -6.682   8.816  64.872  1.00  0.00    -0.069 C  
HETATM    9  C   UNL     1      -6.512   7.504  65.678  1.00  0.00    -0.045 C  
HETATM   10  C   UNL     1      -5.126   7.637  66.356  1.00  0.00    -0.024 C  
HETATM   11  C   UNL     1      -7.783   7.161  66.581  1.00  0.00    -0.097 C  
HETATM   12  C   UNL     1      -7.250   6.397  67.901  1.00  0.00    -0.087 C  
HETATM   13  C   UNL     1      -8.842   6.303  65.870  1.00  0.00    -0.148 C  
HETATM   14  C   UNL     1      -7.739   6.943  69.254  1.00  0.00    -0.105 C  
HETATM   15  O   UNL     1      -9.306  10.250  70.077  1.00  0.00    -0.400 OA 
HETATM   16  C   UNL     1      -8.896  10.020  66.947  1.00  0.00    -0.142 C  
HETATM   17  C   UNL     1      -7.478   8.536  69.687  1.00  0.00    -0.075 C  
HETATM   18  C   UNL     1      -8.874   9.411  68.971  1.00  0.00    -0.141 C  
HETATM   19  H   UNL     1     -10.044  10.713  69.698  1.00  0.00     0.000 HD 
HETATM   20  C   UNL     1      -9.683   9.587  65.377  1.00  0.00    -0.314 C  
HETATM   21  C   UNL     1      -7.072   8.205  71.167  1.00  0.00    -0.058 C  
ENDROOT
BRANCH  12  22
HETATM   22  O   UNL     1      -7.591   4.996  67.876  1.00  0.00    -0.081 OA 
BRANCH  22  23
HETATM   23  C   UNL     1      -7.670   4.360  69.081  1.00  0.00    -0.055 C  
HETATM   24  O   UNL     1      -6.718   4.052  69.786  1.00  0.00    -0.033 OA 
BRANCH  23  25
HETATM   25  C   UNL     1      -9.106   4.185  69.500  1.00  0.00    -0.121 C  
BRANCH  25  26
HETATM   26  S   UNL     1      -9.249   4.026  71.303  1.00  0.00    -0.143 SA 
BRANCH  26  27
HETATM   27  C   UNL     1     -10.445   5.369  71.675  1.00  0.00    -0.227 C  
HETATM   28  C   UNL     1     -10.720   6.242  70.446  1.00  0.00    -0.329 C  
HETATM   29  C   UNL     1     -11.810   7.272  70.746  1.00  0.00    -0.324 C  
HETATM   30  C   UNL     1     -11.435   8.134  71.957  1.00  0.00    -0.320 C  
HETATM   31  N   UNL     1     -12.507   9.079  72.254  1.00  0.00    -0.374 NA 
HETATM   32  C   UNL     1     -11.144   7.269  73.187  1.00  0.00    -0.336 C  
HETATM   33  C   UNL     1     -10.055   6.232  72.895  1.00  0.00    -0.183 C  
HETATM   34  H2  UNL     1     -13.404   8.609  72.384  1.00  0.00     0.000 HD 
HETATM   35  H1  UNL     1     -12.258   9.652  73.060  1.00  0.00     0.000 HD 
HETATM   36  O   UNL     1      -9.861   5.442  74.068  1.00  0.00    -0.159 OA 
HETATM   37  H   UNL     1      -9.621   5.974  74.818  1.00  0.00     0.000 HD 
ENDBRANCH  26  27
ENDBRANCH  25  26
ENDBRANCH  23  25
ENDBRANCH  22  23
ENDBRANCH  12  22
BRANCH  17  38
HETATM   38  C   UNL     1      -6.579   9.757  69.685  1.00  0.00    -0.052 C  
HETATM   39  C   UNL     1      -5.348  10.148  69.980  1.00  0.00    -0.039 C  
ENDBRANCH  17  38
TORSDOF 6
ENDMDL
MODEL      145
REMARK 921   NORMALIZED FREE ENERGY PREDICTED BY IDOCK:   -3.74 KCAL/MOL
REMARK 922        TOTAL FREE ENERGY PREDICTED BY IDOCK:   -6.29 KCAL/MOL
REMARK 923 INTER-LIGAND FREE ENERGY PREDICTED BY IDOCK:   -4.93 KCAL/MOL
REMARK 924 INTRA-LIGAND FREE ENERGY PREDICTED BY IDOCK:   -1.36 KCAL/MOL
REMARK 927      BINDING AFFINITY PREDICTED BY RF-SCORE:    0.00 PKD
ROOT
HETATM    1  C   UNL     1      -7.477   9.308  67.255  1.00  0.00    -0.091 C  
HETATM    2  C   UNL     1      -8.252   8.810  65.472  1.00  0.00    -0.132 C  
HETATM    3  C   UNL     1      -9.879   9.860  65.292  1.00  0.00    -0.373 C  
HETATM    4  O   UNL     1      -7.800   8.007  64.665  1.00  0.00    -0.124 OA 
HETATM    5  C   UNL     1     -10.125  10.830  67.012  1.00  0.00    -0.249 C  
HETATM    6  C   UNL     1      -8.474  10.622  67.935  1.00  0.00    -0.120 C  
HETATM    7  C   UNL     1      -7.558  11.790  68.349  1.00  0.00    -0.123 C  
HETATM    8  C   UNL     1      -6.036  11.400  68.485  1.00  0.00    -0.045 C  
HETATM    9  C   UNL     1      -5.733   9.983  69.031  1.00  0.00    -0.034 C  
HETATM   10  C   UNL     1      -6.243  10.010  70.494  1.00  0.00    -0.109 C  
HETATM   11  C   UNL     1      -6.238   8.822  68.059  1.00  0.00    -0.052 C  
HETATM   12  C   UNL     1      -6.662   7.565  68.982  1.00  0.00    -0.049 C  
HETATM   13  C   UNL     1      -5.195   8.380  67.020  1.00  0.00    -0.036 C  
HETATM   14  C   UNL     1      -8.054   6.962  68.722  1.00  0.00    -0.121 C  
HETATM   15  O   UNL     1     -10.981   8.405  66.871  1.00  0.00    -0.307 OA 
HETATM   16  C   UNL     1      -8.501  10.353  66.617  1.00  0.00    -0.126 C  
HETATM   17  C   UNL     1      -9.434   7.901  68.816  1.00  0.00    -0.147 C  
HETATM   18  C   UNL     1      -9.577   8.622  67.177  1.00  0.00    -0.173 C  
HETATM   19  H   UNL     1     -11.057   8.786  66.005  1.00  0.00     0.000 HD 
HETATM   20  C   UNL     1      -7.098  10.841  65.584  1.00  0.00    -0.017 C  
HETATM   21  C   UNL     1     -10.275   6.821  69.584  1.00  0.00    -0.207 C  
ENDROOT
BRANCH  12  22
HETATM   22  O   UNL     1      -5.718   6.481  68.869  1.00  0.00    -0.015 OA 
BRANCH  22  23
HETATM   23  C   UNL     1      -5.714   5.560  69.876  1.00  0.00    -0.016 C  
HETATM   24  O   UNL     1      -5.364   5.769  71.030  1.00  0.00    -0.012 OA 
BRANCH  23  25
HETATM   25  C   UNL     1      -6.317   4.260  69.412  1.00  0.00    -0.028 C  
BRANCH  25  26
HETATM   26  S   UNL     1      -5.745   3.830  67.743  1.00  0.00    -0.023 SA 
BRANCH  26  27
HETATM   27  C   UNL     1      -7.342   3.743  66.841  1.00  0.00    -0.071 C  
HETATM   28  C   UNL     1      -7.471   4.865  65.804  1.00  0.00    -0.078 C  
HETATM   29  C   UNL     1      -8.749   4.698  64.982  1.00  0.00    -0.143 C  
HETATM   30  C   UNL     1      -9.985   4.645  65.888  1.00  0.00    -0.239 C  
HETATM   31  N   UNL     1     -11.189   4.439  65.089  1.00  0.00    -1.040 NA 
HETATM   32  C   UNL     1      -9.858   3.536  66.938  1.00  0.00     0.109 C  
HETATM   33  C   UNL     1      -8.578   3.694  67.765  1.00  0.00    -0.099 C  
HETATM   34  H2  UNL     1     -11.115   3.612  64.496  1.00  0.00     0.000 HD 
HETATM   35  H1  UNL     1     -12.010   4.404  65.692  1.00  0.00     0.000 HD 
HETATM   36  O   UNL     1      -8.509   2.613  68.694  1.00  0.00    -0.063 OA 
HETATM   37  H   UNL     1      -9.270   2.583  69.262  1.00  0.00     0.000 HD 
ENDBRANCH  26  27
ENDBRANCH  25  26
ENDBRANCH  23  25
ENDBRANCH  22  23
ENDBRANCH  12  22
BRANCH  17  38
HETATM   38  C   UNL     1     -10.206   9.019  69.489  1.00  0.00    -0.205 C  
HETATM   39  C   UNL     1     -10.484   9.526  70.681  1.00  0.00    -0.374 C  
ENDBRANCH  17  38
TORSDOF 6
ENDMDL
MODEL      146
REMARK 921   NORMALIZED FREE ENERGY PREDICTED BY IDOCK:   -3.74 KCAL/MOL
REMARK 922        TOTAL FREE ENERGY PREDICTED BY IDOCK:   -6.29 KCAL/MOL
REMARK 923 INTER-LIGAND FREE ENERGY PREDICTED BY IDOCK:   -5.24 KCAL/MOL
REMARK 924 INTRA-LIGAND FREE ENERGY PREDICTED BY IDOCK:   -1.04 KCAL/MOL
REMARK 927      BINDING AFFINITY PREDICTED BY RF-SCORE:    0.00 PKD
ROOT
HETATM    1  C   UNL     1      -7.876   8.219  70.576  1.00  0.00    -0.087 C  
HETATM    2  C   UNL     1      -9.093   7.961  72.151  1.00  0.00    -0.150 C  
HETATM    3  C   UNL     1     -10.292   6.512  71.659  1.00  0.00    -0.232 C  
HETATM    4  O   UNL     1      -9.089   8.590  73.202  1.00  0.00    -0.257 OA 
HETATM    5  C   UNL     1      -9.878   6.045  69.769  1.00  0.00    -0.208 C  
HETATM    6  C   UNL     1      -8.242   6.939  69.388  1.00  0.00    -0.131 C  
HETATM    7  C   UNL     1      -6.935   6.226  68.993  1.00  0.00    -0.068 C  
HETATM    8  C   UNL     1      -5.626   7.028  69.357  1.00  0.00    -0.015 C  
HETATM    9  C   UNL     1      -5.705   8.569  69.229  1.00  0.00    -0.035 C  
HETATM   10  C   UNL     1      -5.892   8.828  67.713  1.00  0.00    -0.043 C  
HETATM   11  C   UNL     1      -6.735   9.226  70.256  1.00  0.00    -0.066 C  
HETATM   12  C   UNL     1      -7.363  10.534  69.545  1.00  0.00    -0.148 C  
HETATM   13  C   UNL     1      -6.109   9.613  71.607  1.00  0.00     0.095 C  
HETATM   14  C   UNL     1      -8.898  10.646  69.547  1.00  0.00     0.029 C  
HETATM   15  O   UNL     1     -11.488   8.010  70.193  1.00  0.00    -0.453 OA 
HETATM   16  C   UNL     1      -8.604   6.802  70.677  1.00  0.00    -0.142 C  
HETATM   17  C   UNL     1      -9.851   9.441  68.888  1.00  0.00    -0.176 C  
HETATM   18  C   UNL     1     -10.059   8.270  70.234  1.00  0.00    -0.192 C  
HETATM   19  H   UNL     1     -11.598   7.391  70.905  1.00  0.00     0.000 HD 
HETATM   20  C   UNL     1      -7.341   6.431  71.918  1.00  0.00    -0.092 C  
HETATM   21  C   UNL     1     -10.837  10.432  68.174  1.00  0.00    -0.311 C  
ENDROOT
BRANCH  12  22
HETATM   22  O   UNL     1      -6.863  11.751  70.137  1.00  0.00     0.028 OA 
BRANCH  22  23
HETATM   23  C   UNL     1      -6.509  12.752  69.280  1.00  0.00    -0.105 C  
HETATM   24  O   UNL     1      -5.964  12.599  68.194  1.00  0.00    -0.066 OA 
BRANCH  23  25
HETATM   25  C   UNL     1      -6.985  14.086  69.791  1.00  0.00     0.088 C  
BRANCH  25  26
HETATM   26  S   UNL     1      -6.105  15.452  68.980  1.00  0.00    -0.107 SA 
BRANCH  26  27
HETATM   27  C   UNL     1      -7.497  16.592  68.614  1.00  0.00    -0.202 C  
HETATM   28  C   UNL     1      -8.855  15.940  68.896  1.00  0.00    -0.225 C  
HETATM   29  C   UNL     1      -9.990  16.946  68.705  1.00  0.00    -0.276 C  
HETATM   30  C   UNL     1      -9.957  17.554  67.298  1.00  0.00    -0.312 C  
HETATM   31  N   UNL     1     -11.018  18.545  67.151  1.00  0.00    -0.240 NA 
HETATM   32  C   UNL     1      -8.597  18.195  67.001  1.00  0.00    -0.260 C  
HETATM   33  C   UNL     1      -7.454  17.194  67.193  1.00  0.00    -0.168 C  
HETATM   34  H2  UNL     1     -10.974  19.261  67.876  1.00  0.00     0.000 HD 
HETATM   35  H1  UNL     1     -10.996  18.949  66.215  1.00  0.00     0.000 HD 
HETATM   36  O   UNL     1      -6.222  17.866  66.935  1.00  0.00    -0.147 OA 
HETATM   37  H   UNL     1      -6.195  18.237  66.060  1.00  0.00     0.000 HD 
ENDBRANCH  26  27
ENDBRANCH  25  26
ENDBRANCH  23  25
ENDBRANCH  22  23
ENDBRANCH  12  22
BRANCH  17  38
HETATM   38  C   UNL     1     -10.074   8.399  67.809  1.00  0.00    -0.263 C  
HETATM   39  C   UNL     1      -9.797   8.133  66.542  1.00  0.00    -0.309 C  
ENDBRANCH  17  38
TORSDOF 6
ENDMDL
MODEL      147
REMARK 921   NORMALIZED FREE ENERGY PREDICTED BY IDOCK:   -3.71 KCAL/MOL
REMARK 922        TOTAL FREE ENERGY PREDICTED BY IDOCK:   -6.25 KCAL/MOL
REMARK 923 INTER-LIGAND FREE ENERGY PREDICTED BY IDOCK:   -5.24 KCAL/MOL
REMARK 924 INTRA-LIGAND FREE ENERGY PREDICTED BY IDOCK:   -1.00 KCAL/MOL
REMARK 927      BINDING AFFINITY PREDICTED BY RF-SCORE:    0.00 PKD
ROOT
HETATM    1  C   UNL     1     -10.210  13.535  67.810  1.00  0.00    -0.242 C  
HETATM    2  C   UNL     1      -9.956  14.994  69.165  1.00  0.00    -0.237 C  
HETATM    3  C   UNL     1      -8.499  16.091  68.491  1.00  0.00    -0.189 C  
HETATM    4  O   UNL     1     -10.582  15.158  70.205  1.00  0.00    -0.261 OA 
HETATM    5  C   UNL     1      -7.816  15.190  66.853  1.00  0.00    -0.110 C  
HETATM    6  C   UNL     1      -9.122  13.870  66.436  1.00  0.00    -0.105 C  
HETATM    7  C   UNL     1      -9.935  13.835  65.128  1.00  0.00    -0.240 C  
HETATM    8  C   UNL     1     -11.335  13.120  65.256  1.00  0.00    -0.321 C  
HETATM    9  C   UNL     1     -11.402  11.902  66.209  1.00  0.00    -0.394 C  
HETATM   10  C   UNL     1     -10.496  10.834  65.546  1.00  0.00    -0.264 C  
HETATM   11  C   UNL     1     -11.143  12.292  67.735  1.00  0.00    -0.304 C  
HETATM   12  C   UNL     1     -10.414  11.036  68.442  1.00  0.00    -0.180 C  
HETATM   13  C   UNL     1     -12.418  12.663  68.510  1.00  0.00     0.569 C  
HETATM   14  C   UNL     1      -9.128  11.343  69.230  1.00  0.00     0.323 C  
HETATM   15  O   UNL     1      -6.925  14.377  69.128  1.00  0.00    -0.112 OA 
HETATM   16  C   UNL     1      -9.462  14.848  67.297  1.00  0.00    -0.216 C  
HETATM   17  C   UNL     1      -7.825  12.091  68.499  1.00  0.00    -0.129 C  
HETATM   18  C   UNL     1      -8.191  13.843  68.655  1.00  0.00    -0.088 C  
HETATM   19  H   UNL     1      -7.118  15.303  69.211  1.00  0.00     0.000 HD 
HETATM   20  C   UNL     1     -11.123  15.560  67.219  1.00  0.00    -0.271 C  
HETATM   21  C   UNL     1      -6.750  11.162  69.166  1.00  0.00    -0.092 C  
ENDROOT
BRANCH  12  22
HETATM   22  O   UNL     1     -11.300  10.352  69.351  1.00  0.00    -0.239 OA 
BRANCH  22  23
HETATM   23  C   UNL     1     -10.750   9.374  70.128  1.00  0.00    -0.243 C  
HETATM   24  O   UNL     1     -10.554   9.449  71.334  1.00  0.00    -0.331 OA 
BRANCH  23  25
HETATM   25  C   UNL     1     -10.516   8.121  69.323  1.00  0.00    -0.214 C  
BRANCH  25  26
HETATM   26  S   UNL     1      -8.744   7.840  69.048  1.00  0.00    -0.135 SA 
BRANCH  26  27
HETATM   27  C   UNL     1      -8.536   6.178  69.802  1.00  0.00    -0.132 C  
HETATM   28  C   UNL     1      -8.838   5.058  68.800  1.00  0.00    -0.109 C  
HETATM   29  C   UNL     1      -8.538   3.689  69.411  1.00  0.00    -0.108 C  
HETATM   30  C   UNL     1      -9.319   3.484  70.714  1.00  0.00    -0.157 C  
HETATM   31  N   UNL     1      -8.984   2.192  71.305  1.00  0.00    -0.073 NA 
HETATM   32  C   UNL     1      -9.035   4.607  71.716  1.00  0.00    -0.156 C  
HETATM   33  C   UNL     1      -9.331   5.983  71.111  1.00  0.00    -0.160 C  
HETATM   34  H2  UNL     1      -7.979   2.086  71.443  1.00  0.00     0.000 HD 
HETATM   35  H1  UNL     1      -9.504   2.055  72.172  1.00  0.00     0.000 HD 
HETATM   36  O   UNL     1      -9.012   6.978  72.083  1.00  0.00    -0.131 OA 
HETATM   37  H   UNL     1      -9.502   6.858  72.889  1.00  0.00     0.000 HD 
ENDBRANCH  26  27
ENDBRANCH  25  26
ENDBRANCH  23  25
ENDBRANCH  22  23
ENDBRANCH  12  22
BRANCH  17  38
HETATM   38  C   UNL     1      -6.946  12.278  67.278  1.00  0.00    -0.142 C  
HETATM   39  C   UNL     1      -5.849  11.811  66.700  1.00  0.00    -0.049 C  
ENDBRANCH  17  38
TORSDOF 6
ENDMDL
MODEL      148
REMARK 921   NORMALIZED FREE ENERGY PREDICTED BY IDOCK:   -3.68 KCAL/MOL
REMARK 922        TOTAL FREE ENERGY PREDICTED BY IDOCK:   -6.21 KCAL/MOL
REMARK 923 INTER-LIGAND FREE ENERGY PREDICTED BY IDOCK:   -4.23 KCAL/MOL
REMARK 924 INTRA-LIGAND FREE ENERGY PREDICTED BY IDOCK:   -1.98 KCAL/MOL
REMARK 927      BINDING AFFINITY PREDICTED BY RF-SCORE:    0.00 PKD
ROOT
HETATM    1  C   UNL     1      -7.997   9.569  67.774  1.00  0.00    -0.099 C  
HETATM    2  C   UNL     1      -6.366  10.737  67.748  1.00  0.00    -0.058 C  
HETATM    3  C   UNL     1      -6.082  11.205  65.882  1.00  0.00     0.006 C  
HETATM    4  O   UNL     1      -5.684  11.081  68.705  1.00  0.00    -0.041 OA 
HETATM    5  C   UNL     1      -7.434  10.194  64.828  1.00  0.00    -0.136 C  
HETATM    6  C   UNL     1      -8.659   9.519  66.118  1.00  0.00    -0.143 C  
HETATM    7  C   UNL     1     -10.158   9.875  66.161  1.00  0.00    -0.315 C  
HETATM    8  C   UNL     1     -10.807   9.764  67.594  1.00  0.00    -0.301 C  
HETATM    9  C   UNL     1     -10.284   8.623  68.501  1.00  0.00    -0.221 C  
HETATM   10  C   UNL     1     -10.727   7.321  67.788  1.00  0.00    -0.267 C  
HETATM   11  C   UNL     1      -8.748   8.800  68.899  1.00  0.00    -0.134 C  
HETATM   12  C   UNL     1      -8.111   7.323  69.050  1.00  0.00    -0.124 C  
HETATM   13  C   UNL     1      -8.526   9.602  70.191  1.00  0.00    -0.231 C  
HETATM   14  C   UNL     1      -6.804   7.057  68.283  1.00  0.00    -0.074 C  
HETATM   15  O   UNL     1      -5.253   8.978  65.459  1.00  0.00    -0.036 OA 
HETATM   16  C   UNL     1      -7.824  10.505  66.493  1.00  0.00    -0.134 C  
HETATM   17  C   UNL     1      -6.716   7.269  66.627  1.00  0.00    -0.061 C  
HETATM   18  C   UNL     1      -6.329   9.012  66.435  1.00  0.00    -0.065 C  
HETATM   19  H   UNL     1      -5.048   9.900  65.357  1.00  0.00     0.000 HD 
HETATM   20  C   UNL     1      -8.432  11.817  67.579  1.00  0.00    -0.154 C  
HETATM   21  C   UNL     1      -5.891   5.958  66.372  1.00  0.00    -0.017 C  
ENDROOT
BRANCH  12  22
HETATM   22  O   UNL     1      -7.850   6.997  70.431  1.00  0.00    -0.103 OA 
BRANCH  22  23
HETATM   23  C   UNL     1      -8.713   6.128  71.032  1.00  0.00    -0.132 C  
HETATM   24  O   UNL     1      -9.667   6.443  71.732  1.00  0.00    -0.161 OA 
BRANCH  23  25
HETATM   25  C   UNL     1      -8.412   4.709  70.625  1.00  0.00    -0.095 C  
BRANCH  25  26
HETATM   26  S   UNL     1      -9.785   3.994  69.677  1.00  0.00    -0.098 SA 
BRANCH  26  27
HETATM   27  C   UNL     1      -8.868   3.121  68.346  1.00  0.00    -0.120 C  
HETATM   28  C   UNL     1      -7.422   2.820  68.755  1.00  0.00    -0.048 C  
HETATM   29  C   UNL     1      -6.719   1.985  67.685  1.00  0.00    -0.038 C  
HETATM   30  C   UNL     1      -6.767   2.683  66.321  1.00  0.00    -0.043 C  
HETATM   31  N   UNL     1      -6.132   1.849  65.305  1.00  0.00    -0.018 NA 
HETATM   32  C   UNL     1      -8.209   3.001  65.910  1.00  0.00    -0.088 C  
HETATM   33  C   UNL     1      -8.922   3.835  66.978  1.00  0.00    -0.143 C  
HETATM   34  H2  UNL     1      -6.539   0.915  65.270  1.00  0.00     0.000 HD 
HETATM   35  H1  UNL     1      -6.165   2.313  64.398  1.00  0.00     0.000 HD 
HETATM   36  O   UNL     1     -10.264   4.063  66.547  1.00  0.00    -0.376 OA 
HETATM   37  H   UNL     1     -10.297   4.503  65.705  1.00  0.00     0.000 HD 
ENDBRANCH  26  27
ENDBRANCH  25  26
ENDBRANCH  23  25
ENDBRANCH  22  23
ENDBRANCH  12  22
BRANCH  17  38
HETATM   38  C   UNL     1      -7.368   7.157  65.263  1.00  0.00    -0.080 C  
HETATM   39  C   UNL     1      -7.514   6.327  64.241  1.00  0.00    -0.086 C  
ENDBRANCH  17  38
TORSDOF 6
ENDMDL
MODEL      149
REMARK 921   NORMALIZED FREE ENERGY PREDICTED BY IDOCK:   -3.63 KCAL/MOL
REMARK 922        TOTAL FREE ENERGY PREDICTED BY IDOCK:   -6.13 KCAL/MOL
REMARK 923 INTER-LIGAND FREE ENERGY PREDICTED BY IDOCK:   -5.74 KCAL/MOL
REMARK 924 INTRA-LIGAND FREE ENERGY PREDICTED BY IDOCK:   -0.40 KCAL/MOL
REMARK 927      BINDING AFFINITY PREDICTED BY RF-SCORE:    0.00 PKD
ROOT
HETATM    1  C   UNL     1      -7.823   7.789  67.377  1.00  0.00    -0.118 C  
HETATM    2  C   UNL     1      -6.055   6.844  67.281  1.00  0.00    -0.036 C  
HETATM    3  C   UNL     1      -5.978   6.049  65.508  1.00  0.00    -0.025 C  
HETATM    4  O   UNL     1      -5.202   6.775  68.157  1.00  0.00    -0.010 OA 
HETATM    5  C   UNL     1      -7.741   6.393  64.651  1.00  0.00    -0.107 C  
HETATM    6  C   UNL     1      -8.590   7.677  65.770  1.00  0.00    -0.156 C  
HETATM    7  C   UNL     1      -9.010   9.086  65.311  1.00  0.00    -0.233 C  
HETATM    8  C   UNL     1      -9.070  10.153  66.471  1.00  0.00    -0.166 C  
HETATM    9  C   UNL     1      -9.553   9.642  67.852  1.00  0.00    -0.159 C  
HETATM   10  C   UNL     1     -11.034   9.249  67.629  1.00  0.00    -0.071 C  
HETATM   11  C   UNL     1      -8.559   8.574  68.500  1.00  0.00    -0.138 C  
HETATM   12  C   UNL     1      -9.452   7.546  69.371  1.00  0.00    -0.155 C  
HETATM   13  C   UNL     1      -7.464   9.194  69.382  1.00  0.00    -0.077 C  
HETATM   14  C   UNL     1      -9.225   6.047  69.107  1.00  0.00    -0.131 C  
HETATM   15  O   UNL     1      -7.546   4.353  66.211  1.00  0.00    -0.084 OA 
HETATM   16  C   UNL     1      -7.265   7.491  65.912  1.00  0.00    -0.066 C  
HETATM   17  C   UNL     1      -9.408   5.403  67.575  1.00  0.00    -0.119 C  
HETATM   18  C   UNL     1      -7.804   5.653  66.808  1.00  0.00    -0.101 C  
HETATM   19  H   UNL     1      -6.697   4.486  65.805  1.00  0.00     0.000 HD 
HETATM   20  C   UNL     1      -6.196   8.919  66.212  1.00  0.00    -0.064 C  
HETATM   21  C   UNL     1     -10.169   4.119  68.064  1.00  0.00     0.273 C  
ENDROOT
BRANCH  12  22
HETATM   22  O   UNL     1      -9.262   7.747  70.786  1.00  0.00    -0.155 OA 
BRANCH  22  23
HETATM   23  C   UNL     1     -10.045   8.691  71.384  1.00  0.00    -0.254 C  
HETATM   24  O   UNL     1      -9.699   9.426  72.300  1.00  0.00     0.166 OA 
BRANCH  23  25
HETATM   25  C   UNL     1     -11.377   8.799  70.689  1.00  0.00    -0.254 C  
BRANCH  25  26
HETATM   26  S   UNL     1     -12.623   9.554  71.772  1.00  0.00    -0.419 SA 
BRANCH  26  27
HETATM   27  C   UNL     1     -12.815  11.202  70.982  1.00  0.00    -0.329 C  
HETATM   28  C   UNL     1     -11.618  11.547  70.089  1.00  0.00    -0.336 C  
HETATM   29  C   UNL     1     -11.858  12.861  69.347  1.00  0.00    -0.371 C  
HETATM   30  C   UNL     1     -12.156  14.002  70.327  1.00  0.00    -0.355 C  
HETATM   31  N   UNL     1     -12.427  15.237  69.597  1.00  0.00    -0.591 NA 
HETATM   32  C   UNL     1     -13.343  13.659  71.234  1.00  0.00    -0.259 C  
HETATM   33  C   UNL     1     -13.112  12.342  71.980  1.00  0.00    -0.355 C  
HETATM   34  H2  UNL     1     -13.173  15.118  68.912  1.00  0.00     0.000 HD 
HETATM   35  H1  UNL     1     -12.626  15.995  70.249  1.00  0.00     0.000 HD 
HETATM   36  O   UNL     1     -14.266  12.069  72.775  1.00  0.00    -0.109 OA 
HETATM   37  H   UNL     1     -14.449  12.771  73.389  1.00  0.00     0.000 HD 
ENDBRANCH  26  27
ENDBRANCH  25  26
ENDBRANCH  23  25
ENDBRANCH  22  23
ENDBRANCH  12  22
BRANCH  17  38
HETATM   38  C   UNL     1     -10.151   5.373  66.254  1.00  0.00    -0.209 C  
HETATM   39  C   UNL     1     -10.694   4.538  65.380  1.00  0.00    -0.162 C  
ENDBRANCH  17  38
TORSDOF 6
ENDMDL
MODEL      150
REMARK 921   NORMALIZED FREE ENERGY PREDICTED BY IDOCK:   -3.61 KCAL/MOL
REMARK 922        TOTAL FREE ENERGY PREDICTED BY IDOCK:   -6.12 KCAL/MOL
REMARK 923 INTER-LIGAND FREE ENERGY PREDICTED BY IDOCK:   -4.75 KCAL/MOL
REMARK 924 INTRA-LIGAND FREE ENERGY PREDICTED BY IDOCK:   -1.36 KCAL/MOL
REMARK 927      BINDING AFFINITY PREDICTED BY RF-SCORE:    0.00 PKD
ROOT
HETATM    1  C   UNL     1     -10.468  12.470  67.737  1.00  0.00    -0.230 C  
HETATM    2  C   UNL     1     -10.825  13.912  69.087  1.00  0.00    -0.189 C  
HETATM    3  C   UNL     1      -9.733  15.426  68.543  1.00  0.00    -0.204 C  
HETATM    4  O   UNL     1     -11.570  13.852  70.057  1.00  0.00    -0.262 OA 
HETATM    5  C   UNL     1      -8.641  14.815  66.995  1.00  0.00    -0.260 C  
HETATM    6  C   UNL     1      -9.412  13.156  66.473  1.00  0.00    -0.246 C  
HETATM    7  C   UNL     1     -10.039  12.887  65.091  1.00  0.00    -0.241 C  
HETATM    8  C   UNL     1     -11.145  11.762  65.091  1.00  0.00    -0.341 C  
HETATM    9  C   UNL     1     -10.915  10.570  66.052  1.00  0.00     0.104 C  
HETATM   10  C   UNL     1      -9.657   9.856  65.499  1.00  0.00    -0.341 C  
HETATM   11  C   UNL     1     -10.946  10.997  67.590  1.00  0.00    -0.332 C  
HETATM   12  C   UNL     1      -9.929  10.026  68.385  1.00  0.00    -0.160 C  
HETATM   13  C   UNL     1     -12.342  10.931  68.229  1.00  0.00     0.779 C  
HETATM   14  C   UNL     1      -8.892  10.712  69.292  1.00  0.00    -0.092 C  
HETATM   15  O   UNL     1      -7.767  14.290  69.360  1.00  0.00    -0.332 OA 
HETATM   16  C   UNL     1     -10.128  13.961  67.280  1.00  0.00    -0.242 C  
HETATM   17  C   UNL     1      -7.828  11.848  68.681  1.00  0.00    -0.104 C  
HETATM   18  C   UNL     1      -8.745  13.390  68.772  1.00  0.00     0.128 C  
HETATM   19  H   UNL     1      -8.251  15.106  69.408  1.00  0.00     0.000 HD 
HETATM   20  C   UNL     1     -11.913  14.110  67.027  1.00  0.00    -0.471 C  
HETATM   21  C   UNL     1      -6.585  11.297  69.466  1.00  0.00    -0.129 C  
ENDROOT
BRANCH  12  22
HETATM   22  O   UNL     1     -10.637   9.081  69.214  1.00  0.00    -0.227 OA 
BRANCH  22  23
HETATM   23  C   UNL     1      -9.983   7.925  69.527  1.00  0.00    -0.189 C  
HETATM   24  O   UNL     1      -9.871   7.454  70.651  1.00  0.00    -0.180 OA 
BRANCH  23  25
HETATM   25  C   UNL     1      -9.506   7.227  68.280  1.00  0.00    -0.141 C  
BRANCH  25  26
HETATM   26  S   UNL     1      -7.790   6.661  68.461  1.00  0.00    -0.111 SA 
BRANCH  26  27
HETATM   27  C   UNL     1      -7.390   6.212  66.725  1.00  0.00    -0.079 C  
HETATM   28  C   UNL     1      -8.655   5.960  65.897  1.00  0.00    -0.145 C  
HETATM   29  C   UNL     1      -8.301   5.713  64.431  1.00  0.00    -0.093 C  
HETATM   30  C   UNL     1      -7.315   4.548  64.291  1.00  0.00    -0.066 C  
HETATM   31  N   UNL     1      -6.954   4.357  62.889  1.00  0.00    -0.038 NA 
HETATM   32  C   UNL     1      -6.053   4.784  65.127  1.00  0.00    -0.030 C  
HETATM   33  C   UNL     1      -6.398   5.036  66.598  1.00  0.00    -0.040 C  
HETATM   34  H2  UNL     1      -6.595   5.214  62.468  1.00  0.00     0.000 HD 
HETATM   35  H1  UNL     1      -6.298   3.582  62.796  1.00  0.00     0.000 HD 
HETATM   36  O   UNL     1      -5.184   5.281  67.308  1.00  0.00    -0.007 OA 
HETATM   37  H   UNL     1      -4.574   4.557  67.229  1.00  0.00     0.000 HD 
ENDBRANCH  26  27
ENDBRANCH  25  26
ENDBRANCH  23  25
ENDBRANCH  22  23
ENDBRANCH  12  22
BRANCH  17  38
HETATM   38  C   UNL     1      -6.938  12.323  67.550  1.00  0.00    -0.142 C  
HETATM   39  C   UNL     1      -5.687  12.277  67.116  1.00  0.00    -0.103 C  
ENDBRANCH  17  38
TORSDOF 6
ENDMDL
MODEL      151
REMARK 921   NORMALIZED FREE ENERGY PREDICTED BY IDOCK:   -3.61 KCAL/MOL
REMARK 922        TOTAL FREE ENERGY PREDICTED BY IDOCK:   -6.11 KCAL/MOL
REMARK 923 INTER-LIGAND FREE ENERGY PREDICTED BY IDOCK:   -6.61 KCAL/MOL
REMARK 924 INTRA-LIGAND FREE ENERGY PREDICTED BY IDOCK:    0.50 KCAL/MOL
REMARK 927      BINDING AFFINITY PREDICTED BY RF-SCORE:    0.00 PKD
ROOT
HETATM    1  C   UNL     1      -9.321   6.722  70.077  1.00  0.00    -0.158 C  
HETATM    2  C   UNL     1     -10.151   4.992  69.485  1.00  0.00    -0.231 C  
HETATM    3  C   UNL     1      -9.986   3.783  70.999  1.00  0.00    -0.118 C  
HETATM    4  O   UNL     1     -10.651   4.744  68.396  1.00  0.00     0.111 OA 
HETATM    5  C   UNL     1      -8.936   4.748  72.388  1.00  0.00    -0.138 C  
HETATM    6  C   UNL     1      -8.884   6.556  71.799  1.00  0.00    -0.138 C  
HETATM    7  C   UNL     1      -9.473   7.743  72.586  1.00  0.00    -0.251 C  
HETATM    8  C   UNL     1      -9.902   8.966  71.687  1.00  0.00    -0.387 C  
HETATM    9  C   UNL     1      -9.017   9.255  70.450  1.00  0.00    -0.278 C  
HETATM   10  C   UNL     1      -7.650   9.686  71.038  1.00  0.00     0.181 C  
HETATM   11  C   UNL     1      -9.056   8.081  69.369  1.00  0.00    -0.148 C  
HETATM   12  C   UNL     1      -7.610   8.034  68.650  1.00  0.00    -0.100 C  
HETATM   13  C   UNL     1     -10.162   8.241  68.314  1.00  0.00    -0.246 C  
HETATM   14  C   UNL     1      -6.921   6.659  68.586  1.00  0.00    -0.080 C  
HETATM   15  O   UNL     1      -7.632   3.531  70.530  1.00  0.00    -0.041 OA 
HETATM   16  C   UNL     1      -9.790   5.733  71.239  1.00  0.00    -0.223 C  
HETATM   17  C   UNL     1      -6.609   5.784  69.976  1.00  0.00    -0.043 C  
HETATM   18  C   UNL     1      -8.129   4.870  70.259  1.00  0.00    -0.077 C  
HETATM   19  H   UNL     1      -8.435   3.047  70.680  1.00  0.00     0.000 HD 
HETATM   20  C   UNL     1     -11.447   6.358  70.871  1.00  0.00    -0.406 C  
HETATM   21  C   UNL     1      -5.167   5.347  69.534  1.00  0.00    -0.004 C  
ENDROOT
BRANCH  12  22
HETATM   22  O   UNL     1      -7.676   8.523  67.295  1.00  0.00    -0.095 OA 
BRANCH  22  23
HETATM   23  C   UNL     1      -8.086   7.639  66.340  1.00  0.00    -0.113 C  
HETATM   24  O   UNL     1      -8.117   6.422  66.464  1.00  0.00    -0.107 OA 
BRANCH  23  25
HETATM   25  C   UNL     1      -8.617   8.366  65.132  1.00  0.00    -0.132 C  
BRANCH  25  26
HETATM   26  S   UNL     1      -7.746   9.939  64.878  1.00  0.00    -0.138 SA 
BRANCH  26  27
HETATM   27  C   UNL     1      -9.155  11.118  64.877  1.00  0.00    -0.095 C  
HETATM   28  C   UNL     1     -10.196  10.761  65.943  1.00  0.00    -0.319 C  
HETATM   29  C   UNL     1     -11.293  11.824  66.007  1.00  0.00    -0.335 C  
HETATM   30  C   UNL     1     -11.955  12.016  64.638  1.00  0.00    -0.249 C  
HETATM   31  N   UNL     1     -12.966  13.066  64.709  1.00  0.00    -0.748 NA 
HETATM   32  C   UNL     1     -10.920  12.359  63.562  1.00  0.00    -0.506 C  
HETATM   33  C   UNL     1      -9.815  11.300  63.493  1.00  0.00    -0.359 C  
HETATM   34  H2  UNL     1     -12.584  13.939  65.073  1.00  0.00     0.000 HD 
HETATM   35  H1  UNL     1     -13.407  13.194  63.798  1.00  0.00     0.000 HD 
HETATM   36  O   UNL     1      -8.873  11.700  62.499  1.00  0.00    -0.567 OA 
HETATM   37  H   UNL     1      -9.279  11.811  61.647  1.00  0.00     0.000 HD 
ENDBRANCH  26  27
ENDBRANCH  25  26
ENDBRANCH  23  25
ENDBRANCH  22  23
ENDBRANCH  12  22
BRANCH  17  38
HETATM   38  C   UNL     1      -6.199   5.758  71.435  1.00  0.00    -0.039 C  
HETATM   39  C   UNL     1      -5.486   6.424  72.331  1.00  0.00    -0.036 C  
ENDBRANCH  17  38
TORSDOF 6
ENDMDL
MODEL      152
REMARK 921   NORMALIZED FREE ENERGY PREDICTED BY IDOCK:   -3.51 KCAL/MOL
REMARK 922        TOTAL FREE ENERGY PREDICTED BY IDOCK:   -5.97 KCAL/MOL
REMARK 923 INTER-LIGAND FREE ENERGY PREDICTED BY IDOCK:   -5.28 KCAL/MOL
REMARK 924 INTRA-LIGAND FREE ENERGY PREDICTED BY IDOCK:   -0.69 KCAL/MOL
REMARK 927      BINDING AFFINITY PREDICTED BY RF-SCORE:    0.00 PKD
ROOT
HETATM    1  C   UNL     1     -10.551  14.248  68.331  1.00  0.00    -0.255 C  
HETATM    2  C   UNL     1     -10.716  15.254  70.060  1.00  0.00    -0.279 C  
HETATM    3  C   UNL     1     -10.655  17.138  69.582  1.00  0.00     0.008 C  
HETATM    4  O   UNL     1     -10.826  14.783  71.185  1.00  0.00     0.015 OA 
HETATM    5  C   UNL     1     -10.300  17.219  67.625  1.00  0.00    -0.350 C  
HETATM    6  C   UNL     1     -10.562  15.440  67.003  1.00  0.00    -0.309 C  
HETATM    7  C   UNL     1     -11.625  15.031  65.966  1.00  0.00    -0.158 C  
HETATM    8  C   UNL     1     -12.100  13.531  66.084  1.00  0.00    -0.482 C  
HETATM    9  C   UNL     1     -11.023  12.498  66.496  1.00  0.00    -0.303 C  
HETATM   10  C   UNL     1     -10.022  12.481  65.314  1.00  0.00    -0.226 C  
HETATM   11  C   UNL     1     -10.468  12.737  67.974  1.00  0.00    -0.233 C  
HETATM   12  C   UNL     1      -8.921  12.270  67.994  1.00  0.00    -0.190 C  
HETATM   13  C   UNL     1     -11.255  11.992  69.065  1.00  0.00    -0.313 C  
HETATM   14  C   UNL     1      -7.909  13.274  68.572  1.00  0.00    -0.110 C  
HETATM   15  O   UNL     1      -8.278  16.954  69.199  1.00  0.00    -0.193 OA 
HETATM   16  C   UNL     1     -11.041  15.763  68.219  1.00  0.00    -0.342 C  
HETATM   17  C   UNL     1      -7.763  14.815  67.939  1.00  0.00    -0.146 C  
HETATM   18  C   UNL     1      -9.014  15.760  68.817  1.00  0.00    -0.214 C  
HETATM   19  H   UNL     1      -8.939  17.454  69.663  1.00  0.00     0.000 HD 
HETATM   20  C   UNL     1     -12.643  15.107  68.744  1.00  0.00     0.383 C  
HETATM   21  C   UNL     1      -6.194  14.825  67.979  1.00  0.00    -0.164 C  
ENDROOT
BRANCH  12  22
HETATM   22  O   UNL     1      -8.747  11.042  68.730  1.00  0.00    -0.157 OA 
BRANCH  22  23
HETATM   23  C   UNL     1      -8.023  10.058  68.124  1.00  0.00    -0.100 C  
HETATM   24  O   UNL     1      -7.238  10.220  67.198  1.00  0.00    -0.088 OA 
BRANCH  23  25
HETATM   25  C   UNL     1      -8.222   8.739  68.824  1.00  0.00    -0.116 C  
BRANCH  25  26
HETATM   26  S   UNL     1      -8.525   8.978  70.599  1.00  0.00    -0.212 SA 
BRANCH  26  27
HETATM   27  C   UNL     1      -7.851   7.411  71.279  1.00  0.00    -0.095 C  
HETATM   28  C   UNL     1      -8.887   6.668  72.129  1.00  0.00    -0.134 C  
HETATM   29  C   UNL     1      -8.346   5.310  72.578  1.00  0.00    -0.118 C  
HETATM   30  C   UNL     1      -7.025   5.468  73.340  1.00  0.00    -0.085 C  
HETATM   31  N   UNL     1      -6.502   4.160  73.720  1.00  0.00    -0.047 NA 
HETATM   32  C   UNL     1      -5.987   6.223  72.503  1.00  0.00    -0.038 C  
HETATM   33  C   UNL     1      -6.522   7.584  72.046  1.00  0.00    -0.042 C  
HETATM   34  H2  UNL     1      -6.406   3.539  72.916  1.00  0.00     0.000 HD 
HETATM   35  H1  UNL     1      -5.623   4.265  74.226  1.00  0.00     0.000 HD 
HETATM   36  O   UNL     1      -5.521   8.213  71.246  1.00  0.00    -0.033 OA 
HETATM   37  H   UNL     1      -4.703   8.320  71.719  1.00  0.00     0.000 HD 
ENDBRANCH  26  27
ENDBRANCH  25  26
ENDBRANCH  23  25
ENDBRANCH  22  23
ENDBRANCH  12  22
BRANCH  17  38
HETATM   38  C   UNL     1      -7.766  15.734  66.734  1.00  0.00    -0.216 C  
HETATM   39  C   UNL     1      -7.084  16.723  66.174  1.00  0.00     0.060 C  
ENDBRANCH  17  38
TORSDOF 6
ENDMDL
MODEL      153
REMARK 921   NORMALIZED FREE ENERGY PREDICTED BY IDOCK:   -3.48 KCAL/MOL
REMARK 922        TOTAL FREE ENERGY PREDICTED BY IDOCK:   -5.94 KCAL/MOL
REMARK 923 INTER-LIGAND FREE ENERGY PREDICTED BY IDOCK:   -5.17 KCAL/MOL
REMARK 924 INTRA-LIGAND FREE ENERGY PREDICTED BY IDOCK:   -0.77 KCAL/MOL
REMARK 927      BINDING AFFINITY PREDICTED BY RF-SCORE:    0.00 PKD
ROOT
HETATM    1  C   UNL     1      -8.510  10.193  67.162  1.00  0.00    -0.125 C  
HETATM    2  C   UNL     1      -9.501   9.960  65.433  1.00  0.00    -0.257 C  
HETATM    3  C   UNL     1     -10.009  11.752  64.872  1.00  0.00    -0.280 C  
HETATM    4  O   UNL     1      -9.744   8.910  64.853  1.00  0.00     0.321 OA 
HETATM    5  C   UNL     1      -9.458  12.985  66.333  1.00  0.00    -0.228 C  
HETATM    6  C   UNL     1      -8.333  11.943  67.460  1.00  0.00    -0.158 C  
HETATM    7  C   UNL     1      -6.852  12.261  67.741  1.00  0.00    -0.109 C  
HETATM    8  C   UNL     1      -5.981  11.002  68.120  1.00  0.00    -0.049 C  
HETATM    9  C   UNL     1      -6.683   9.907  68.960  1.00  0.00    -0.053 C  
HETATM   10  C   UNL     1      -6.973  10.584  70.323  1.00  0.00    -0.046 C  
HETATM   11  C   UNL     1      -7.882   9.198  68.180  1.00  0.00    -0.099 C  
HETATM   12  C   UNL     1      -8.995   8.782  69.274  1.00  0.00    -0.144 C  
HETATM   13  C   UNL     1      -7.456   7.963  67.370  1.00  0.00    -0.093 C  
HETATM   14  C   UNL     1     -10.442   9.217  68.980  1.00  0.00    -0.238 C  
HETATM   15  O   UNL     1     -11.726  11.787  66.568  1.00  0.00    -0.530 OA 
HETATM   16  C   UNL     1      -8.596  11.480  66.223  1.00  0.00    -0.133 C  
HETATM   17  C   UNL     1     -10.828  10.825  68.735  1.00  0.00    -0.262 C  
HETATM   18  C   UNL     1     -10.527  11.078  66.982  1.00  0.00    -0.240 C  
HETATM   19  H   UNL     1     -11.567  11.921  65.641  1.00  0.00     0.000 HD 
HETATM   20  C   UNL     1      -7.280  10.673  65.281  1.00  0.00     0.024 C  
HETATM   21  C   UNL     1     -12.139  10.778  69.597  1.00  0.00    -0.361 C  
ENDROOT
BRANCH  12  22
HETATM   22  O   UNL     1      -9.030   7.355  69.480  1.00  0.00    -0.143 OA 
BRANCH  22  23
HETATM   23  C   UNL     1      -9.882   6.892  70.440  1.00  0.00    -0.179 C  
HETATM   24  O   UNL     1     -10.296   7.537  71.395  1.00  0.00    -0.195 OA 
BRANCH  23  25
HETATM   25  C   UNL     1     -10.351   5.499  70.110  1.00  0.00    -0.284 C  
BRANCH  25  26
HETATM   26  S   UNL     1      -8.962   4.438  69.618  1.00  0.00    -0.109 SA 
BRANCH  26  27
HETATM   27  C   UNL     1      -9.538   3.853  67.976  1.00  0.00    -0.129 C  
HETATM   28  C   UNL     1      -8.775   2.605  67.517  1.00  0.00    -0.138 C  
HETATM   29  C   UNL     1      -9.357   2.065  66.211  1.00  0.00     0.118 C  
HETATM   30  C   UNL     1      -9.352   3.141  65.119  1.00  0.00    -0.143 C  
HETATM   31  N   UNL     1      -9.953   2.620  63.894  1.00  0.00    -0.149 NA 
HETATM   32  C   UNL     1     -10.100   4.398  65.574  1.00  0.00    -0.251 C  
HETATM   33  C   UNL     1      -9.526   4.945  66.884  1.00  0.00    -0.148 C  
HETATM   34  H2  UNL     1     -10.888   2.246  64.058  1.00  0.00     0.000 HD 
HETATM   35  H1  UNL     1      -9.950   3.336  63.168  1.00  0.00     0.000 HD 
HETATM   36  O   UNL     1     -10.289   6.089  67.265  1.00  0.00    -0.167 OA 
HETATM   37  H   UNL     1     -10.282   6.761  66.593  1.00  0.00     0.000 HD 
ENDBRANCH  26  27
ENDBRANCH  25  26
ENDBRANCH  23  25
ENDBRANCH  22  23
ENDBRANCH  12  22
BRANCH  17  38
HETATM   38  C   UNL     1     -10.616  12.284  69.088  1.00  0.00    -0.025 C  
HETATM   39  C   UNL     1     -11.246  13.341  69.579  1.00  0.00    -0.163 C  
ENDBRANCH  17  38
TORSDOF 6
ENDMDL
MODEL      154
REMARK 921   NORMALIZED FREE ENERGY PREDICTED BY IDOCK:   -3.44 KCAL/MOL
REMARK 922        TOTAL FREE ENERGY PREDICTED BY IDOCK:   -5.88 KCAL/MOL
REMARK 923 INTER-LIGAND FREE ENERGY PREDICTED BY IDOCK:   -5.14 KCAL/MOL
REMARK 924 INTRA-LIGAND FREE ENERGY PREDICTED BY IDOCK:   -0.74 KCAL/MOL
REMARK 927      BINDING AFFINITY PREDICTED BY RF-SCORE:    0.00 PKD
ROOT
HETATM    1  C   UNL     1      -6.869  17.255  67.433  1.00  0.00    -0.185 C  
HETATM    2  C   UNL     1      -6.687  18.239  65.693  1.00  0.00    -0.256 C  
HETATM    3  C   UNL     1      -7.633  19.920  65.937  1.00  0.00    -0.334 C  
HETATM    4  O   UNL     1      -6.107  17.860  64.683  1.00  0.00     0.213 OA 
HETATM    5  C   UNL     1      -8.484  19.840  67.734  1.00  0.00    -0.359 C  
HETATM    6  C   UNL     1      -7.690  18.337  68.589  1.00  0.00    -0.318 C  
HETATM    7  C   UNL     1      -6.861  18.414  69.886  1.00  0.00     0.269 C  
HETATM    8  C   UNL     1      -5.803  17.255  70.046  1.00  0.00    -0.230 C  
HETATM    9  C   UNL     1      -6.217  15.864  69.505  1.00  0.00    -0.163 C  
HETATM   10  C   UNL     1      -7.393  15.425  70.412  1.00  0.00     0.605 C  
HETATM   11  C   UNL     1      -6.418  15.848  67.921  1.00  0.00    -0.163 C  
HETATM   12  C   UNL     1      -7.576  14.772  67.588  1.00  0.00    -0.174 C  
HETATM   13  C   UNL     1      -5.142  15.507  67.133  1.00  0.00     0.427 C  
HETATM   14  C   UNL     1      -8.722  15.257  66.683  1.00  0.00    -0.327 C  
HETATM   15  O   UNL     1      -9.737  18.750  65.766  1.00  0.00    -0.450 OA 
HETATM   16  C   UNL     1      -7.087  18.834  67.493  1.00  0.00    -0.216 C  
HETATM   17  C   UNL     1      -9.642  16.591  67.093  1.00  0.00    -0.243 C  
HETATM   18  C   UNL     1      -8.706  17.977  66.438  1.00  0.00    -0.227 C  
HETATM   19  H   UNL     1      -9.242  19.483  65.420  1.00  0.00     0.000 HD 
HETATM   20  C   UNL     1      -5.281  18.916  67.434  1.00  0.00    -0.159 C  
HETATM   21  C   UNL     1     -11.009  15.938  66.684  1.00  0.00    -0.136 C  
ENDROOT
BRANCH  12  22
HETATM   22  O   UNL     1      -7.037  13.587  66.969  1.00  0.00     0.014 OA 
BRANCH  22  23
HETATM   23  C   UNL     1      -7.395  12.389  67.515  1.00  0.00    -0.146 C  
HETATM   24  O   UNL     1      -6.737  11.752  68.326  1.00  0.00    -0.060 OA 
BRANCH  23  25
HETATM   25  C   UNL     1      -8.782  11.997  67.076  1.00  0.00    -0.188 C  
BRANCH  25  26
HETATM   26  S   UNL     1      -8.798  10.324  66.370  1.00  0.00    -0.147 SA 
BRANCH  26  27
HETATM   27  C   UNL     1      -9.875   9.450  67.574  1.00  0.00    -0.173 C  
HETATM   28  C   UNL     1      -9.708  10.005  68.993  1.00  0.00    -0.204 C  
HETATM   29  C   UNL     1     -10.703   9.350  69.951  1.00  0.00    -0.258 C  
HETATM   30  C   UNL     1     -10.556   7.824  69.940  1.00  0.00    -0.239 C  
HETATM   31  N   UNL     1     -11.544   7.215  70.825  1.00  0.00    -0.307 NA 
HETATM   32  C   UNL     1     -10.707   7.262  68.522  1.00  0.00    -0.165 C  
HETATM   33  C   UNL     1      -9.716   7.915  67.554  1.00  0.00    -0.159 C  
HETATM   34  H2  UNL     1     -12.494   7.508  70.595  1.00  0.00     0.000 HD 
HETATM   35  H1  UNL     1     -11.447   6.200  70.816  1.00  0.00     0.000 HD 
HETATM   36  O   UNL     1      -9.936   7.371  66.253  1.00  0.00    -0.444 OA 
HETATM   37  H   UNL     1      -9.837   6.426  66.241  1.00  0.00     0.000 HD 
ENDBRANCH  26  27
ENDBRANCH  25  26
ENDBRANCH  23  25
ENDBRANCH  22  23
ENDBRANCH  12  22
BRANCH  17  38
HETATM   38  C   UNL     1     -10.328  17.424  68.159  1.00  0.00    -0.366 C  
HETATM   39  C   UNL     1     -10.785  17.359  69.400  1.00  0.00     0.124 C  
ENDBRANCH  17  38
TORSDOF 6
ENDMDL
MODEL      155
REMARK 921   NORMALIZED FREE ENERGY PREDICTED BY IDOCK:   -3.44 KCAL/MOL
REMARK 922        TOTAL FREE ENERGY PREDICTED BY IDOCK:   -5.88 KCAL/MOL
REMARK 923 INTER-LIGAND FREE ENERGY PREDICTED BY IDOCK:   -5.45 KCAL/MOL
REMARK 924 INTRA-LIGAND FREE ENERGY PREDICTED BY IDOCK:   -0.43 KCAL/MOL
REMARK 927      BINDING AFFINITY PREDICTED BY RF-SCORE:    0.00 PKD
ROOT
HETATM    1  C   UNL     1      -9.696  12.245  66.320  1.00  0.00    -0.254 C  
HETATM    2  C   UNL     1      -9.111  11.256  64.674  1.00  0.00    -0.002 C  
HETATM    3  C   UNL     1      -9.521   9.385  65.010  1.00  0.00    -0.204 C  
HETATM    4  O   UNL     1      -8.596  11.729  63.669  1.00  0.00     0.563 OA 
HETATM    5  C   UNL     1     -10.186   9.273  66.882  1.00  0.00    -0.327 C  
HETATM    6  C   UNL     1     -10.502  11.077  67.401  1.00  0.00    -0.255 C  
HETATM    7  C   UNL     1     -11.879  11.633  67.810  1.00  0.00    -0.247 C  
HETATM    8  C   UNL     1     -12.049  13.182  67.565  1.00  0.00    -0.300 C  
HETATM    9  C   UNL     1     -10.792  14.058  67.792  1.00  0.00    -0.257 C  
HETATM   10  C   UNL     1     -10.507  13.949  69.310  1.00  0.00    -0.001 C  
HETATM   11  C   UNL     1      -9.616  13.735  66.761  1.00  0.00    -0.283 C  
HETATM   12  C   UNL     1      -8.216  13.989  67.526  1.00  0.00    -0.186 C  
HETATM   13  C   UNL     1      -9.669  14.570  65.471  1.00  0.00    -0.232 C  
HETATM   14  C   UNL     1      -7.180  12.853  67.457  1.00  0.00    -0.149 C  
HETATM   15  O   UNL     1      -7.637   9.251  66.513  1.00  0.00    -0.092 OA 
HETATM   16  C   UNL     1     -10.357  10.811  66.090  1.00  0.00    -0.300 C  
HETATM   17  C   UNL     1      -7.552  11.312  67.988  1.00  0.00    -0.105 C  
HETATM   18  C   UNL     1      -8.314  10.536  66.558  1.00  0.00    -0.141 C  
HETATM   19  H   UNL     1      -8.040   8.841  65.757  1.00  0.00     0.000 HD 
HETATM   20  C   UNL     1     -11.402  11.672  64.890  1.00  0.00    -0.252 C  
HETATM   21  C   UNL     1      -6.180  11.090  68.718  1.00  0.00    -0.044 C  
ENDROOT
BRANCH  12  22
HETATM   22  O   UNL     1      -7.556  15.176  67.042  1.00  0.00    -0.199 OA 
BRANCH  22  23
HETATM   23  C   UNL     1      -6.422  15.561  67.697  1.00  0.00    -0.168 C  
HETATM   24  O   UNL     1      -6.017  15.092  68.753  1.00  0.00    -0.082 OA 
BRANCH  23  25
HETATM   25  C   UNL     1      -5.654  16.573  66.887  1.00  0.00     0.001 C  
BRANCH  25  26
HETATM   26  S   UNL     1      -6.714  17.965  66.402  1.00  0.00    -0.264 SA 
BRANCH  26  27
HETATM   27  C   UNL     1      -6.599  19.024  67.898  1.00  0.00    -0.220 C  
HETATM   28  C   UNL     1      -5.298  18.779  68.670  1.00  0.00    -0.193 C  
HETATM   29  C   UNL     1      -5.168  19.757  69.837  1.00  0.00    -0.221 C  
HETATM   30  C   UNL     1      -6.382  19.669  70.769  1.00  0.00     0.009 C  
HETATM   31  N   UNL     1      -6.261  20.642  71.850  1.00  0.00    -0.738 NA 
HETATM   32  C   UNL     1      -7.689  19.898  70.003  1.00  0.00     0.596 C  
HETATM   33  C   UNL     1      -7.826  18.924  68.829  1.00  0.00    -0.324 C  
HETATM   34  H2  UNL     1      -6.120  21.588  71.496  1.00  0.00     0.000 HD 
HETATM   35  H1  UNL     1      -7.069  20.583  72.469  1.00  0.00     0.000 HD 
HETATM   36  O   UNL     1      -9.043  19.217  68.144  1.00  0.00    -0.302 OA 
HETATM   37  H   UNL     1      -9.799  19.154  68.717  1.00  0.00     0.000 HD 
ENDBRANCH  26  27
ENDBRANCH  25  26
ENDBRANCH  23  25
ENDBRANCH  22  23
ENDBRANCH  12  22
BRANCH  17  38
HETATM   38  C   UNL     1      -8.258  10.411  68.982  1.00  0.00    -0.141 C  
HETATM   39  C   UNL     1      -8.040   9.407  69.819  1.00  0.00    -0.134 C  
ENDBRANCH  17  38
TORSDOF 6
ENDMDL
MODEL      156
REMARK 921   NORMALIZED FREE ENERGY PREDICTED BY IDOCK:   -3.42 KCAL/MOL
REMARK 922        TOTAL FREE ENERGY PREDICTED BY IDOCK:   -5.85 KCAL/MOL
REMARK 923 INTER-LIGAND FREE ENERGY PREDICTED BY IDOCK:   -4.80 KCAL/MOL
REMARK 924 INTRA-LIGAND FREE ENERGY PREDICTED BY IDOCK:   -1.06 KCAL/MOL
REMARK 927      BINDING AFFINITY PREDICTED BY RF-SCORE:    0.00 PKD
ROOT
HETATM    1  C   UNL     1      -8.770   5.771  72.151  1.00  0.00    -0.133 C  
HETATM    2  C   UNL     1      -7.066   5.257  73.079  1.00  0.00    -0.088 C  
HETATM    3  C   UNL     1      -6.282   6.923  73.704  1.00  0.00    -0.063 C  
HETATM    4  O   UNL     1      -6.609   4.129  73.219  1.00  0.00    -0.039 OA 
HETATM    5  C   UNL     1      -7.433   8.391  73.010  1.00  0.00    -0.113 C  
HETATM    6  C   UNL     1      -9.004   7.526  72.374  1.00  0.00    -0.172 C  
HETATM    7  C   UNL     1     -10.420   7.780  72.926  1.00  0.00    -0.412 C  
HETATM    8  C   UNL     1     -11.410   6.566  72.750  1.00  0.00    -0.221 C  
HETATM    9  C   UNL     1     -11.253   5.730  71.456  1.00  0.00    -0.243 C  
HETATM   10  C   UNL     1     -11.644   6.700  70.313  1.00  0.00    -0.454 C  
HETATM   11  C   UNL     1      -9.853   4.968  71.375  1.00  0.00    -0.245 C  
HETATM   12  C   UNL     1      -9.436   4.880  69.817  1.00  0.00    -0.154 C  
HETATM   13  C   UNL     1      -9.871   3.561  71.993  1.00  0.00    -0.238 C  
HETATM   14  C   UNL     1      -8.016   5.353  69.459  1.00  0.00    -0.089 C  
HETATM   15  O   UNL     1      -5.619   7.448  71.444  1.00  0.00    -0.035 OA 
HETATM   16  C   UNL     1      -8.186   6.834  73.188  1.00  0.00    -0.119 C  
HETATM   17  C   UNL     1      -7.500   6.899  69.835  1.00  0.00    -0.094 C  
HETATM   18  C   UNL     1      -6.892   6.752  71.519  1.00  0.00    -0.066 C  
HETATM   19  H   UNL     1      -5.297   7.371  72.334  1.00  0.00     0.000 HD 
HETATM   20  C   UNL     1      -8.899   5.746  74.446  1.00  0.00    -0.122 C  
HETATM   21  C   UNL     1      -6.784   7.136  68.459  1.00  0.00    -0.060 C  
ENDROOT
BRANCH  12  22
HETATM   22  O   UNL     1      -9.560   3.536  69.310  1.00  0.00    -0.180 OA 
BRANCH  22  23
HETATM   23  C   UNL     1      -8.807   3.218  68.217  1.00  0.00    -0.119 C  
HETATM   24  O   UNL     1      -7.807   2.513  68.224  1.00  0.00    -0.054 OA 
BRANCH  23  25
HETATM   25  C   UNL     1      -9.438   3.756  66.959  1.00  0.00    -0.200 C  
BRANCH  25  26
HETATM   26  S   UNL     1      -8.802   2.901  65.489  1.00  0.00    -0.134 SA 
BRANCH  26  27
HETATM   27  C   UNL     1      -7.825   4.243  64.704  1.00  0.00    -0.085 C  
HETATM   28  C   UNL     1      -6.754   4.796  65.651  1.00  0.00    -0.056 C  
HETATM   29  C   UNL     1      -5.874   5.821  64.936  1.00  0.00    -0.024 C  
HETATM   30  C   UNL     1      -6.719   6.955  64.345  1.00  0.00    -0.046 C  
HETATM   31  N   UNL     1      -5.867   7.898  63.627  1.00  0.00    -0.057 NA 
HETATM   32  C   UNL     1      -7.803   6.411  63.408  1.00  0.00    -0.107 C  
HETATM   33  C   UNL     1      -8.687   5.381  64.116  1.00  0.00     0.031 C  
HETATM   34  H2  UNL     1      -5.301   7.435  62.916  1.00  0.00     0.000 HD 
HETATM   35  H1  UNL     1      -6.430   8.653  63.234  1.00  0.00     0.000 HD 
HETATM   36  O   UNL     1      -9.647   4.894  63.178  1.00  0.00    -0.358 OA 
HETATM   37  H   UNL     1     -10.178   5.594  62.816  1.00  0.00     0.000 HD 
ENDBRANCH  26  27
ENDBRANCH  25  26
ENDBRANCH  23  25
ENDBRANCH  22  23
ENDBRANCH  12  22
BRANCH  17  38
HETATM   38  C   UNL     1      -7.803   8.379  69.963  1.00  0.00    -0.103 C  
HETATM   39  C   UNL     1      -8.487   9.358  69.390  1.00  0.00    -0.142 C  
ENDBRANCH  17  38
TORSDOF 6
ENDMDL
MODEL      157
REMARK 921   NORMALIZED FREE ENERGY PREDICTED BY IDOCK:   -3.30 KCAL/MOL
REMARK 922        TOTAL FREE ENERGY PREDICTED BY IDOCK:   -5.70 KCAL/MOL
REMARK 923 INTER-LIGAND FREE ENERGY PREDICTED BY IDOCK:   -5.60 KCAL/MOL
REMARK 924 INTRA-LIGAND FREE ENERGY PREDICTED BY IDOCK:   -0.09 KCAL/MOL
REMARK 927      BINDING AFFINITY PREDICTED BY RF-SCORE:    0.00 PKD
ROOT
HETATM    1  C   UNL     1      -9.966  14.046  67.222  1.00  0.00    -0.242 C  
HETATM    2  C   UNL     1      -9.156  15.415  65.998  1.00  0.00    -0.249 C  
HETATM    3  C   UNL     1     -10.577  15.935  64.776  1.00  0.00    -0.146 C  
HETATM    4  O   UNL     1      -8.006  15.833  66.011  1.00  0.00     0.190 OA 
HETATM    5  C   UNL     1     -12.137  14.769  65.185  1.00  0.00    -0.240 C  
HETATM    6  C   UNL     1     -11.704  13.929  66.836  1.00  0.00    -0.425 C  
HETATM    7  C   UNL     1     -12.522  14.089  68.132  1.00  0.00     0.229 C  
HETATM    8  C   UNL     1     -11.686  13.880  69.453  1.00  0.00    -0.367 C  
HETATM    9  C   UNL     1     -10.572  12.806  69.401  1.00  0.00     0.241 C  
HETATM   10  C   UNL     1     -11.326  11.466  69.221  1.00  0.00    -0.355 C  
HETATM   11  C   UNL     1      -9.401  13.175  68.380  1.00  0.00    -0.154 C  
HETATM   12  C   UNL     1      -8.828  11.791  67.775  1.00  0.00    -0.163 C  
HETATM   13  C   UNL     1      -8.256  13.986  69.010  1.00  0.00     0.116 C  
HETATM   14  C   UNL     1      -8.722  11.704  66.242  1.00  0.00    -0.136 C  
HETATM   15  O   UNL     1     -10.327  13.838  63.607  1.00  0.00    -0.129 OA 
HETATM   16  C   UNL     1     -10.992  15.010  66.470  1.00  0.00    -0.327 C  
HETATM   17  C   UNL     1     -10.061  11.942  65.270  1.00  0.00    -0.290 C  
HETATM   18  C   UNL     1     -10.116  13.723  65.041  1.00  0.00    -0.283 C  
HETATM   19  H   UNL     1     -10.356  14.780  63.486  1.00  0.00     0.000 HD 
HETATM   20  C   UNL     1     -10.511  16.221  67.725  1.00  0.00    -0.295 C  
HETATM   21  C   UNL     1      -9.732  10.751  64.302  1.00  0.00    -0.357 C  
ENDROOT
BRANCH  12  22
HETATM   22  O   UNL     1      -7.518  11.487  68.295  1.00  0.00    -0.090 OA 
BRANCH  22  23
HETATM   23  C   UNL     1      -7.442  10.506  69.240  1.00  0.00    -0.122 C  
HETATM   24  O   UNL     1      -7.240  10.683  70.434  1.00  0.00    -0.201 OA 
BRANCH  23  25
HETATM   25  C   UNL     1      -7.761   9.161  68.641  1.00  0.00    -0.092 C  
BRANCH  25  26
HETATM   26  S   UNL     1      -6.311   8.068  68.674  1.00  0.00    -0.053 SA 
BRANCH  26  27
HETATM   27  C   UNL     1      -7.080   6.460  68.230  1.00  0.00    -0.083 C  
HETATM   28  C   UNL     1      -7.308   6.337  66.719  1.00  0.00    -0.079 C  
HETATM   29  C   UNL     1      -7.830   4.945  66.363  1.00  0.00    -0.099 C  
HETATM   30  C   UNL     1      -9.113   4.622  67.137  1.00  0.00    -0.122 C  
HETATM   31  N   UNL     1      -9.570   3.274  66.818  1.00  0.00    -0.401 NA 
HETATM   32  C   UNL     1      -8.899   4.758  68.649  1.00  0.00    -0.121 C  
HETATM   33  C   UNL     1      -8.372   6.149  69.015  1.00  0.00    -0.112 C  
HETATM   34  H2  UNL     1      -8.842   2.577  66.978  1.00  0.00     0.000 HD 
HETATM   35  H1  UNL     1     -10.423   3.059  67.334  1.00  0.00     0.000 HD 
HETATM   36  O   UNL     1      -8.164   6.192  70.426  1.00  0.00    -0.113 OA 
HETATM   37  H   UNL     1      -8.960   6.000  70.909  1.00  0.00     0.000 HD 
ENDBRANCH  26  27
ENDBRANCH  25  26
ENDBRANCH  23  25
ENDBRANCH  22  23
ENDBRANCH  12  22
BRANCH  17  38
HETATM   38  C   UNL     1     -11.547  11.761  65.031  1.00  0.00    -0.214 C  
HETATM   39  C   UNL     1     -12.463  11.798  64.074  1.00  0.00    -0.320 C  
ENDBRANCH  17  38
TORSDOF 6
ENDMDL
MODEL      158
REMARK 921   NORMALIZED FREE ENERGY PREDICTED BY IDOCK:   -3.29 KCAL/MOL
REMARK 922        TOTAL FREE ENERGY PREDICTED BY IDOCK:   -5.67 KCAL/MOL
REMARK 923 INTER-LIGAND FREE ENERGY PREDICTED BY IDOCK:   -4.49 KCAL/MOL
REMARK 924 INTRA-LIGAND FREE ENERGY PREDICTED BY IDOCK:   -1.19 KCAL/MOL
REMARK 927      BINDING AFFINITY PREDICTED BY RF-SCORE:    0.00 PKD
ROOT
HETATM    1  C   UNL     1      -8.994  11.688  68.326  1.00  0.00    -0.185 C  
HETATM    2  C   UNL     1     -10.785  11.836  69.221  1.00  0.00    -0.069 C  
HETATM    3  C   UNL     1     -11.903  10.479  68.390  1.00  0.00     0.056 C  
HETATM    4  O   UNL     1     -11.111  12.622  70.102  1.00  0.00     0.275 OA 
HETATM    5  C   UNL     1     -10.823   9.667  66.929  1.00  0.00    -0.106 C  
HETATM    6  C   UNL     1      -9.049  10.286  67.225  1.00  0.00    -0.150 C  
HETATM    7  C   UNL     1      -7.846   9.368  67.515  1.00  0.00    -0.099 C  
HETATM    8  C   UNL     1      -6.692  10.056  68.341  1.00  0.00    -0.055 C  
HETATM    9  C   UNL     1      -6.434  11.555  68.046  1.00  0.00    -0.054 C  
HETATM   10  C   UNL     1      -5.918  11.584  66.586  1.00  0.00    -0.135 C  
HETATM   11  C   UNL     1      -7.665  12.488  68.448  1.00  0.00    -0.136 C  
HETATM   12  C   UNL     1      -7.693  13.728  67.414  1.00  0.00    -0.143 C  
HETATM   13  C   UNL     1      -7.607  13.010  69.893  1.00  0.00     1.433 C  
HETATM   14  C   UNL     1      -9.040  14.020  66.729  1.00  0.00    -0.250 C  
HETATM   15  O   UNL     1     -12.085  11.852  66.413  1.00  0.00    -0.552 OA 
HETATM   16  C   UNL     1      -9.936  10.404  68.229  1.00  0.00    -0.168 C  
HETATM   17  C   UNL     1      -9.826  12.847  65.834  1.00  0.00    -0.239 C  
HETATM   18  C   UNL     1     -10.784  11.944  67.055  1.00  0.00    -0.240 C  
HETATM   19  H   UNL     1     -12.592  11.374  67.059  1.00  0.00     0.000 HD 
HETATM   20  C   UNL     1      -9.399  10.091  69.928  1.00  0.00    -0.207 C  
HETATM   21  C   UNL     1     -10.227  13.819  64.669  1.00  0.00    -0.313 C  
ENDROOT
BRANCH  12  22
HETATM   22  O   UNL     1      -7.280  14.956  68.047  1.00  0.00    -0.110 OA 
BRANCH  22  23
HETATM   23  C   UNL     1      -6.469  15.780  67.323  1.00  0.00    -0.104 C  
HETATM   24  O   UNL     1      -5.245  15.748  67.318  1.00  0.00    -0.326 OA 
BRANCH  23  25
HETATM   25  C   UNL     1      -7.282  16.675  66.424  1.00  0.00    -0.133 C  
BRANCH  25  26
HETATM   26  S   UNL     1      -7.845  18.157  67.309  1.00  0.00    -0.225 SA 
BRANCH  26  27
HETATM   27  C   UNL     1      -9.462  17.576  67.960  1.00  0.00    -0.280 C  
HETATM   28  C   UNL     1      -9.288  16.652  69.171  1.00  0.00    -0.177 C  
HETATM   29  C   UNL     1     -10.646  16.284  69.770  1.00  0.00    -0.316 C  
HETATM   30  C   UNL     1     -11.558  15.642  68.718  1.00  0.00    -0.384 C  
HETATM   31  N   UNL     1     -12.863  15.341  69.297  1.00  0.00    -0.265 NA 
HETATM   32  C   UNL     1     -11.725  16.553  67.497  1.00  0.00     0.618 C  
HETATM   33  C   UNL     1     -10.369  16.929  66.892  1.00  0.00    -0.304 C  
HETATM   34  H2  UNL     1     -13.291  16.164  69.721  1.00  0.00     0.000 HD 
HETATM   35  H1  UNL     1     -13.469  14.914  68.597  1.00  0.00     0.000 HD 
HETATM   36  O   UNL     1     -10.599  17.802  65.786  1.00  0.00    -0.509 OA 
HETATM   37  H   UNL     1     -11.157  17.403  65.128  1.00  0.00     0.000 HD 
ENDBRANCH  26  27
ENDBRANCH  25  26
ENDBRANCH  23  25
ENDBRANCH  22  23
ENDBRANCH  12  22
BRANCH  17  38
HETATM   38  C   UNL     1      -9.757  11.678  64.871  1.00  0.00    -0.232 C  
HETATM   39  C   UNL     1      -9.954  11.359  63.601  1.00  0.00    -0.402 C  
ENDBRANCH  17  38
TORSDOF 6
ENDMDL
MODEL      159
REMARK 921   NORMALIZED FREE ENERGY PREDICTED BY IDOCK:   -3.23 KCAL/MOL
REMARK 922        TOTAL FREE ENERGY PREDICTED BY IDOCK:   -5.60 KCAL/MOL
REMARK 923 INTER-LIGAND FREE ENERGY PREDICTED BY IDOCK:   -3.96 KCAL/MOL
REMARK 924 INTRA-LIGAND FREE ENERGY PREDICTED BY IDOCK:   -1.64 KCAL/MOL
REMARK 927      BINDING AFFINITY PREDICTED BY RF-SCORE:    0.00 PKD
ROOT
HETATM    1  C   UNL     1     -10.099  12.346  66.864  1.00  0.00    -0.230 C  
HETATM    2  C   UNL     1     -12.061  12.741  66.713  1.00  0.00    -0.220 C  
HETATM    3  C   UNL     1     -12.659  13.142  68.519  1.00  0.00     0.704 C  
HETATM    4  O   UNL     1     -12.745  12.726  65.697  1.00  0.00    -0.549 OA 
HETATM    5  C   UNL     1     -11.102  12.829  69.718  1.00  0.00     0.130 C  
HETATM    6  C   UNL     1      -9.609  12.655  68.551  1.00  0.00    -0.112 C  
HETATM    7  C   UNL     1      -8.387  13.593  68.559  1.00  0.00    -0.110 C  
HETATM    8  C   UNL     1      -7.636  13.688  67.175  1.00  0.00     0.048 C  
HETATM    9  C   UNL     1      -7.576  12.389  66.334  1.00  0.00     0.657 C  
HETATM   10  C   UNL     1      -6.700  11.422  67.168  1.00  0.00    -0.121 C  
HETATM   11  C   UNL     1      -9.014  11.900  65.843  1.00  0.00    -0.009 C  
HETATM   12  C   UNL     1      -8.980  10.286  65.773  1.00  0.00    -0.161 C  
HETATM   13  C   UNL     1      -9.439  12.475  64.482  1.00  0.00     0.338 C  
HETATM   14  C   UNL     1     -10.124   9.545  66.488  1.00  0.00    -0.326 C  
HETATM   15  O   UNL     1     -12.542  10.795  69.069  1.00  0.00    -0.728 OA 
HETATM   16  C   UNL     1     -10.740  13.190  68.057  1.00  0.00    -0.248 C  
HETATM   17  C   UNL     1     -10.421   9.782  68.116  1.00  0.00    -0.258 C  
HETATM   18  C   UNL     1     -11.498  11.220  68.151  1.00  0.00    -0.306 C  
HETATM   19  H   UNL     1     -13.112  11.555  69.088  1.00  0.00     0.000 HD 
HETATM   20  C   UNL     1     -10.633  14.582  66.905  1.00  0.00    -0.279 C  
HETATM   21  C   UNL     1     -10.660   8.263  68.428  1.00  0.00    -0.148 C  
ENDROOT
BRANCH  12  22
HETATM   22  O   UNL     1      -8.975   9.814  64.410  1.00  0.00    -0.214 OA 
BRANCH  22  23
HETATM   23  C   UNL     1      -7.789   9.346  63.925  1.00  0.00    -0.129 C  
HETATM   24  O   UNL     1      -6.680   9.755  64.243  1.00  0.00    -0.107 OA 
BRANCH  23  25
HETATM   25  C   UNL     1      -8.012   8.161  63.022  1.00  0.00    -0.154 C  
BRANCH  25  26
HETATM   26  S   UNL     1      -6.754   6.881  63.297  1.00  0.00    -0.045 SA 
BRANCH  26  27
HETATM   27  C   UNL     1      -7.576   5.859  64.584  1.00  0.00    -0.089 C  
HETATM   28  C   UNL     1      -8.773   5.088  64.018  1.00  0.00    -0.089 C  
HETATM   29  C   UNL     1      -9.362   4.152  65.073  1.00  0.00    -0.165 C  
HETATM   30  C   UNL     1      -9.757   4.924  66.337  1.00  0.00    -0.189 C  
HETATM   31  N   UNL     1     -10.273   4.007  67.349  1.00  0.00    -0.027 NA 
HETATM   32  C   UNL     1      -8.569   5.711  66.902  1.00  0.00    -0.110 C  
HETATM   33  C   UNL     1      -7.971   6.649  65.850  1.00  0.00    -0.112 C  
HETATM   34  H2  UNL     1      -9.615   3.255  67.552  1.00  0.00     0.000 HD 
HETATM   35  H1  UNL     1     -10.535   4.521  68.189  1.00  0.00     0.000 HD 
HETATM   36  O   UNL     1      -6.854   7.321  66.431  1.00  0.00    -0.058 OA 
HETATM   37  H   UNL     1      -7.097   7.807  67.211  1.00  0.00     0.000 HD 
ENDBRANCH  26  27
ENDBRANCH  25  26
ENDBRANCH  23  25
ENDBRANCH  22  23
ENDBRANCH  12  22
BRANCH  17  38
HETATM   38  C   UNL     1      -9.892  10.015  69.517  1.00  0.00    -0.249 C  
HETATM   39  C   UNL     1      -8.978   9.583  70.373  1.00  0.00    -0.291 C  
ENDBRANCH  17  38
TORSDOF 6
ENDMDL
MODEL      160
REMARK 921   NORMALIZED FREE ENERGY PREDICTED BY IDOCK:   -3.21 KCAL/MOL
REMARK 922        TOTAL FREE ENERGY PREDICTED BY IDOCK:   -5.58 KCAL/MOL
REMARK 923 INTER-LIGAND FREE ENERGY PREDICTED BY IDOCK:   -4.51 KCAL/MOL
REMARK 924 INTRA-LIGAND FREE ENERGY PREDICTED BY IDOCK:   -1.07 KCAL/MOL
REMARK 927      BINDING AFFINITY PREDICTED BY RF-SCORE:    0.00 PKD
ROOT
HETATM    1  C   UNL     1      -8.772  10.648  67.451  1.00  0.00    -0.125 C  
HETATM    2  C   UNL     1     -10.032   9.948  66.054  1.00  0.00    -0.268 C  
HETATM    3  C   UNL     1     -10.854  11.517  65.252  1.00  0.00    -0.319 C  
HETATM    4  O   UNL     1     -10.246   8.777  65.769  1.00  0.00     0.083 OA 
HETATM    5  C   UNL     1     -10.198  13.092  66.277  1.00  0.00    -0.291 C  
HETATM    6  C   UNL     1      -8.762  12.428  67.334  1.00  0.00    -0.183 C  
HETATM    7  C   UNL     1      -7.306  12.920  67.227  1.00  0.00    -0.077 C  
HETATM    8  C   UNL     1      -6.230  11.854  67.668  1.00  0.00    -0.083 C  
HETATM    9  C   UNL     1      -6.620  10.927  68.845  1.00  0.00    -0.056 C  
HETATM   10  C   UNL     1      -6.733  11.872  70.068  1.00  0.00     0.231 C  
HETATM   11  C   UNL     1      -7.846   9.965  68.498  1.00  0.00    -0.081 C  
HETATM   12  C   UNL     1      -8.675   9.722  69.863  1.00  0.00    -0.217 C  
HETATM   13  C   UNL     1      -7.429   8.616  67.891  1.00  0.00    -0.097 C  
HETATM   14  C   UNL     1     -10.194   9.961  69.795  1.00  0.00    -0.278 C  
HETATM   15  O   UNL     1     -12.215  11.801  67.225  1.00  0.00    -0.471 OA 
HETATM   16  C   UNL     1      -9.191  11.675  66.304  1.00  0.00    -0.225 C  
HETATM   17  C   UNL     1     -10.816  11.435  69.308  1.00  0.00    -0.242 C  
HETATM   18  C   UNL     1     -10.881  11.304  67.518  1.00  0.00    -0.245 C  
HETATM   19  H   UNL     1     -12.250  11.732  66.278  1.00  0.00     0.000 HD 
HETATM   20  C   UNL     1      -7.984  10.782  65.296  1.00  0.00     0.009 C  
HETATM   21  C   UNL     1     -11.926  11.481  70.416  1.00  0.00    -0.459 C  
ENDROOT
BRANCH  12  22
HETATM   22  O   UNL     1      -8.493   8.382  70.363  1.00  0.00    -0.121 OA 
BRANCH  22  23
HETATM   23  C   UNL     1      -7.902   8.257  71.587  1.00  0.00    -0.114 C  
HETATM   24  O   UNL     1      -7.389   9.166  72.226  1.00  0.00    -0.325 OA 
BRANCH  23  25
HETATM   25  C   UNL     1      -8.066   6.856  72.118  1.00  0.00    -0.098 C  
BRANCH  25  26
HETATM   26  S   UNL     1      -6.580   6.315  73.010  1.00  0.00    -0.070 SA 
BRANCH  26  27
HETATM   27  C   UNL     1      -5.933   5.037  71.860  1.00  0.00    -0.024 C  
HETATM   28  C   UNL     1      -5.800   5.573  70.431  1.00  0.00    -0.021 C  
HETATM   29  C   UNL     1      -5.144   4.534  69.521  1.00  0.00     0.000 C  
HETATM   30  C   UNL     1      -5.924   3.214  69.540  1.00  0.00    -0.023 C  
HETATM   31  N   UNL     1      -5.257   2.222  68.703  1.00  0.00    -0.012 NA 
HETATM   32  C   UNL     1      -6.075   2.678  70.967  1.00  0.00    -0.018 C  
HETATM   33  C   UNL     1      -6.729   3.714  71.886  1.00  0.00    -0.019 C  
HETATM   34  H2  UNL     1      -4.281   2.091  68.971  1.00  0.00     0.000 HD 
HETATM   35  H1  UNL     1      -5.776   1.344  68.715  1.00  0.00     0.000 HD 
HETATM   36  O   UNL     1      -6.807   3.162  73.200  1.00  0.00    -0.035 OA 
HETATM   37  H   UNL     1      -7.297   2.348  73.216  1.00  0.00     0.000 HD 
ENDBRANCH  26  27
ENDBRANCH  25  26
ENDBRANCH  23  25
ENDBRANCH  22  23
ENDBRANCH  12  22
BRANCH  17  38
HETATM   38  C   UNL     1     -10.725  12.948  69.298  1.00  0.00     0.032 C  
HETATM   39  C   UNL     1     -11.389  14.036  69.660  1.00  0.00    -0.270 C  
ENDBRANCH  17  38
TORSDOF 6
ENDMDL
MODEL      161
REMARK 921   NORMALIZED FREE ENERGY PREDICTED BY IDOCK:   -3.19 KCAL/MOL
REMARK 922        TOTAL FREE ENERGY PREDICTED BY IDOCK:   -5.55 KCAL/MOL
REMARK 923 INTER-LIGAND FREE ENERGY PREDICTED BY IDOCK:   -4.16 KCAL/MOL
REMARK 924 INTRA-LIGAND FREE ENERGY PREDICTED BY IDOCK:   -1.39 KCAL/MOL
REMARK 927      BINDING AFFINITY PREDICTED BY RF-SCORE:    0.00 PKD
ROOT
HETATM    1  C   UNL     1      -9.819  11.903  67.867  1.00  0.00    -0.190 C  
HETATM    2  C   UNL     1      -9.723  13.671  68.811  1.00  0.00    -0.034 C  
HETATM    3  C   UNL     1      -8.112  14.536  68.148  1.00  0.00    -0.137 C  
HETATM    4  O   UNL     1     -10.510  14.114  69.638  1.00  0.00     0.009 OA 
HETATM    5  C   UNL     1      -7.207  13.222  66.959  1.00  0.00     0.310 C  
HETATM    6  C   UNL     1      -8.492  11.847  66.675  1.00  0.00    -0.143 C  
HETATM    7  C   UNL     1      -9.065  11.467  65.297  1.00  0.00    -0.087 C  
HETATM    8  C   UNL     1     -10.504  10.822  65.351  1.00  0.00    -0.272 C  
HETATM    9  C   UNL     1     -10.803   9.906  66.564  1.00  0.00     0.024 C  
HETATM   10  C   UNL     1      -9.857   8.694  66.382  1.00  0.00    -0.341 C  
HETATM   11  C   UNL     1     -10.792  10.693  67.953  1.00  0.00    -0.328 C  
HETATM   12  C   UNL     1     -10.268   9.668  69.087  1.00  0.00    -0.202 C  
HETATM   13  C   UNL     1     -12.160  11.267  68.357  1.00  0.00    -0.110 C  
HETATM   14  C   UNL     1      -9.124  10.167  69.987  1.00  0.00    -0.031 C  
HETATM   15  O   UNL     1      -6.770  13.046  69.492  1.00  0.00    -0.266 OA 
HETATM   16  C   UNL     1      -8.921  13.023  67.170  1.00  0.00    -0.223 C  
HETATM   17  C   UNL     1      -7.674  10.682  69.334  1.00  0.00    -0.132 C  
HETATM   18  C   UNL     1      -7.963  12.413  68.953  1.00  0.00     0.150 C  
HETATM   19  H   UNL     1      -6.923  13.962  69.290  1.00  0.00     0.000 HD 
HETATM   20  C   UNL     1     -10.501  13.699  66.606  1.00  0.00    -0.272 C  
HETATM   21  C   UNL     1      -6.784   9.960  70.407  1.00  0.00    -0.136 C  
ENDROOT
BRANCH  12  22
HETATM   22  O   UNL     1     -11.335   9.261  69.968  1.00  0.00    -0.214 OA 
BRANCH  22  23
HETATM   23  C   UNL     1     -11.010   8.393  70.969  1.00  0.00    -0.246 C  
HETATM   24  O   UNL     1     -11.279   8.541  72.154  1.00  0.00    -0.319 OA 
BRANCH  23  25
HETATM   25  C   UNL     1     -10.368   7.149  70.411  1.00  0.00    -0.203 C  
BRANCH  25  26
HETATM   26  S   UNL     1      -9.562   6.183  71.720  1.00  0.00    -0.149 SA 
BRANCH  26  27
HETATM   27  C   UNL     1      -8.213   5.374  70.771  1.00  0.00    -0.115 C  
HETATM   28  C   UNL     1      -7.777   6.220  69.570  1.00  0.00    -0.099 C  
HETATM   29  C   UNL     1      -6.572   5.588  68.872  1.00  0.00    -0.051 C  
HETATM   30  C   UNL     1      -6.875   4.147  68.445  1.00  0.00    -0.047 C  
HETATM   31  N   UNL     1      -5.699   3.547  67.823  1.00  0.00    -0.021 NA 
HETATM   32  C   UNL     1      -7.327   3.297  69.638  1.00  0.00    -0.045 C  
HETATM   33  C   UNL     1      -8.532   3.925  70.345  1.00  0.00    -0.061 C  
HETATM   34  H2  UNL     1      -4.879   3.601  68.428  1.00  0.00     0.000 HD 
HETATM   35  H1  UNL     1      -5.901   2.588  67.540  1.00  0.00     0.000 HD 
HETATM   36  O   UNL     1      -8.875   3.102  71.460  1.00  0.00    -0.075 OA 
HETATM   37  H   UNL     1      -9.072   2.210  71.197  1.00  0.00     0.000 HD 
ENDBRANCH  26  27
ENDBRANCH  25  26
ENDBRANCH  23  25
ENDBRANCH  22  23
ENDBRANCH  12  22
BRANCH  17  38
HETATM   38  C   UNL     1      -6.587  10.526  68.289  1.00  0.00    -0.059 C  
HETATM   39  C   UNL     1      -5.894   9.608  67.631  1.00  0.00    -0.044 C  
ENDBRANCH  17  38
TORSDOF 6
ENDMDL
MODEL      162
REMARK 921   NORMALIZED FREE ENERGY PREDICTED BY IDOCK:   -3.18 KCAL/MOL
REMARK 922        TOTAL FREE ENERGY PREDICTED BY IDOCK:   -5.53 KCAL/MOL
REMARK 923 INTER-LIGAND FREE ENERGY PREDICTED BY IDOCK:   -4.94 KCAL/MOL
REMARK 924 INTRA-LIGAND FREE ENERGY PREDICTED BY IDOCK:   -0.59 KCAL/MOL
REMARK 927      BINDING AFFINITY PREDICTED BY RF-SCORE:    0.00 PKD
ROOT
HETATM    1  C   UNL     1      -9.380  12.455  66.838  1.00  0.00    -0.213 C  
HETATM    2  C   UNL     1     -10.266  11.229  65.520  1.00  0.00    -0.260 C  
HETATM    3  C   UNL     1     -12.082  11.895  65.318  1.00  0.00     0.022 C  
HETATM    4  O   UNL     1      -9.772  10.257  64.962  1.00  0.00    -0.259 OA 
HETATM    5  C   UNL     1     -12.290  13.387  66.619  1.00  0.00    -0.324 C  
HETATM    6  C   UNL     1     -10.524  13.771  67.214  1.00  0.00    -0.264 C  
HETATM    7  C   UNL     1      -9.818  15.126  67.018  1.00  0.00    -0.233 C  
HETATM    8  C   UNL     1      -8.244  15.035  66.975  1.00  0.00    -0.246 C  
HETATM    9  C   UNL     1      -7.590  13.978  67.900  1.00  0.00    -0.159 C  
HETATM   10  C   UNL     1      -7.897  14.471  69.336  1.00  0.00     0.037 C  
HETATM   11  C   UNL     1      -7.972  12.481  67.500  1.00  0.00    -0.175 C  
HETATM   12  C   UNL     1      -8.007  11.608  68.859  1.00  0.00    -0.026 C  
HETATM   13  C   UNL     1      -7.009  11.839  66.488  1.00  0.00     0.115 C  
HETATM   14  C   UNL     1      -9.269  10.760  69.098  1.00  0.00    -0.131 C  
HETATM   15  O   UNL     1     -12.646  10.986  67.482  1.00  0.00     0.959 OA 
HETATM   16  C   UNL     1     -10.670  13.033  66.098  1.00  0.00    -0.288 C  
HETATM   17  C   UNL     1     -10.785  11.462  69.137  1.00  0.00    -0.229 C  
HETATM   18  C   UNL     1     -11.288  11.498  67.413  1.00  0.00    -0.298 C  
HETATM   19  H   UNL     1     -12.912  11.006  66.570  1.00  0.00     0.000 HD 
HETATM   20  C   UNL     1      -9.544  13.298  64.707  1.00  0.00     0.334 C  
HETATM   21  C   UNL     1     -11.280  10.635  70.376  1.00  0.00    -0.334 C  
ENDROOT
BRANCH  12  22
HETATM   22  O   UNL     1      -6.885  10.705  68.938  1.00  0.00    -0.057 OA 
BRANCH  22  23
HETATM   23  C   UNL     1      -6.296  10.561  70.160  1.00  0.00    -0.132 C  
HETATM   24  O   UNL     1      -6.025  11.472  70.931  1.00  0.00    -0.360 OA 
BRANCH  23  25
HETATM   25  C   UNL     1      -6.122   9.103  70.500  1.00  0.00    -0.043 C  
BRANCH  25  26
HETATM   26  S   UNL     1      -7.361   8.080  69.654  1.00  0.00    -0.087 SA 
BRANCH  26  27
HETATM   27  C   UNL     1      -8.126   7.213  71.081  1.00  0.00    -0.104 C  
HETATM   28  C   UNL     1      -9.047   6.075  70.628  1.00  0.00    -0.157 C  
HETATM   29  C   UNL     1      -9.571   5.290  71.830  1.00  0.00    -0.191 C  
HETATM   30  C   UNL     1     -10.290   6.214  72.820  1.00  0.00    -0.199 C  
HETATM   31  N   UNL     1     -10.742   5.455  73.982  1.00  0.00    -0.327 NA 
HETATM   32  C   UNL     1      -9.382   7.364  73.268  1.00  0.00    -0.247 C  
HETATM   33  C   UNL     1      -8.850   8.154  72.069  1.00  0.00    -0.174 C  
HETATM   34  H2  UNL     1      -9.978   4.944  74.424  1.00  0.00     0.000 HD 
HETATM   35  H1  UNL     1     -11.220   6.069  74.641  1.00  0.00     0.000 HD 
HETATM   36  O   UNL     1      -7.988   9.182  72.556  1.00  0.00    -0.184 OA 
HETATM   37  H   UNL     1      -8.433   9.761  73.164  1.00  0.00     0.000 HD 
ENDBRANCH  26  27
ENDBRANCH  25  26
ENDBRANCH  23  25
ENDBRANCH  22  23
ENDBRANCH  12  22
BRANCH  17  38
HETATM   38  C   UNL     1     -11.672  12.628  69.528  1.00  0.00    -0.374 C  
HETATM   39  C   UNL     1     -11.950  13.435  70.541  1.00  0.00    -0.332 C  
ENDBRANCH  17  38
TORSDOF 6
ENDMDL
MODEL      163
REMARK 921   NORMALIZED FREE ENERGY PREDICTED BY IDOCK:   -3.18 KCAL/MOL
REMARK 922        TOTAL FREE ENERGY PREDICTED BY IDOCK:   -5.53 KCAL/MOL
REMARK 923 INTER-LIGAND FREE ENERGY PREDICTED BY IDOCK:   -5.47 KCAL/MOL
REMARK 924 INTRA-LIGAND FREE ENERGY PREDICTED BY IDOCK:   -0.05 KCAL/MOL
REMARK 927      BINDING AFFINITY PREDICTED BY RF-SCORE:    0.00 PKD
ROOT
HETATM    1  C   UNL     1     -10.707  14.392  68.465  1.00  0.00    -0.258 C  
HETATM    2  C   UNL     1     -10.745  15.432  70.180  1.00  0.00    -0.308 C  
HETATM    3  C   UNL     1     -10.653  17.305  69.664  1.00  0.00     0.104 C  
HETATM    4  O   UNL     1     -10.806  14.984  71.318  1.00  0.00    -0.153 OA 
HETATM    5  C   UNL     1     -10.405  17.340  67.689  1.00  0.00    -0.350 C  
HETATM    6  C   UNL     1     -10.756  15.560  67.117  1.00  0.00    -0.315 C  
HETATM    7  C   UNL     1     -11.887  15.166  66.148  1.00  0.00     0.097 C  
HETATM    8  C   UNL     1     -12.399  13.684  66.320  1.00  0.00    -0.464 C  
HETATM    9  C   UNL     1     -11.333  12.625  66.693  1.00  0.00    -0.379 C  
HETATM   10  C   UNL     1     -10.401  12.556  65.458  1.00  0.00    -0.303 C  
HETATM   11  C   UNL     1     -10.689  12.872  68.133  1.00  0.00    -0.258 C  
HETATM   12  C   UNL     1      -9.159  12.357  68.076  1.00  0.00    -0.195 C  
HETATM   13  C   UNL     1     -11.436  12.171  69.279  1.00  0.00    -0.363 C  
HETATM   14  C   UNL     1      -8.085  13.340  68.578  1.00  0.00    -0.094 C  
HETATM   15  O   UNL     1      -8.308  17.040  69.154  1.00  0.00    -0.171 OA 
HETATM   16  C   UNL     1     -11.156  15.919  68.350  1.00  0.00    -0.345 C  
HETATM   17  C   UNL     1      -7.929  14.864  67.909  1.00  0.00    -0.145 C  
HETATM   18  C   UNL     1      -9.099  15.863  68.835  1.00  0.00    -0.233 C  
HETATM   19  H   UNL     1      -8.927  17.568  69.644  1.00  0.00     0.000 HD 
HETATM   20  C   UNL     1     -12.745  15.322  68.975  1.00  0.00     0.444 C  
HETATM   21  C   UNL     1      -6.361  14.825  67.862  1.00  0.00    -0.175 C  
ENDROOT
BRANCH  12  22
HETATM   22  O   UNL     1      -8.981  11.138  68.825  1.00  0.00    -0.169 OA 
BRANCH  22  23
HETATM   23  C   UNL     1      -8.820   9.991  68.104  1.00  0.00    -0.122 C  
HETATM   24  O   UNL     1      -9.503   9.650  67.147  1.00  0.00    -0.143 OA 
BRANCH  23  25
HETATM   25  C   UNL     1      -7.601   9.236  68.567  1.00  0.00    -0.085 C  
BRANCH  25  26
HETATM   26  S   UNL     1      -8.005   7.509  68.953  1.00  0.00    -0.127 SA 
BRANCH  26  27
HETATM   27  C   UNL     1      -7.564   6.688  67.370  1.00  0.00    -0.104 C  
HETATM   28  C   UNL     1      -8.385   5.414  67.142  1.00  0.00    -0.107 C  
HETATM   29  C   UNL     1      -8.091   4.820  65.764  1.00  0.00    -0.111 C  
HETATM   30  C   UNL     1      -6.593   4.544  65.592  1.00  0.00    -0.041 C  
HETATM   31  N   UNL     1      -6.327   4.020  64.255  1.00  0.00    -0.026 NA 
HETATM   32  C   UNL     1      -5.763   5.809  65.832  1.00  0.00    -0.013 C  
HETATM   33  C   UNL     1      -6.053   6.413  67.209  1.00  0.00    -0.025 C  
HETATM   34  H2  UNL     1      -6.688   4.636  63.526  1.00  0.00     0.000 HD 
HETATM   35  H1  UNL     1      -5.331   3.837  64.140  1.00  0.00     0.000 HD 
HETATM   36  O   UNL     1      -5.276   7.601  67.351  1.00  0.00    -0.024 OA 
HETATM   37  H   UNL     1      -4.346   7.432  67.252  1.00  0.00     0.000 HD 
ENDBRANCH  26  27
ENDBRANCH  25  26
ENDBRANCH  23  25
ENDBRANCH  22  23
ENDBRANCH  12  22
BRANCH  17  38
HETATM   38  C   UNL     1      -7.971  15.762  66.688  1.00  0.00    -0.233 C  
HETATM   39  C   UNL     1      -7.488  16.900  66.212  1.00  0.00    -0.282 C  
ENDBRANCH  17  38
TORSDOF 6
ENDMDL
MODEL      164
REMARK 921   NORMALIZED FREE ENERGY PREDICTED BY IDOCK:   -3.16 KCAL/MOL
REMARK 922        TOTAL FREE ENERGY PREDICTED BY IDOCK:   -5.51 KCAL/MOL
REMARK 923 INTER-LIGAND FREE ENERGY PREDICTED BY IDOCK:   -4.70 KCAL/MOL
REMARK 924 INTRA-LIGAND FREE ENERGY PREDICTED BY IDOCK:   -0.81 KCAL/MOL
REMARK 927      BINDING AFFINITY PREDICTED BY RF-SCORE:    0.00 PKD
ROOT
HETATM    1  C   UNL     1      -7.354   7.326  69.357  1.00  0.00    -0.089 C  
HETATM    2  C   UNL     1      -5.774   7.095  70.574  1.00  0.00    -0.024 C  
HETATM    3  C   UNL     1      -5.274   5.220  70.438  1.00  0.00    -0.004 C  
HETATM    4  O   UNL     1      -5.239   7.952  71.265  1.00  0.00    -0.030 OA 
HETATM    5  C   UNL     1      -6.640   4.347  69.284  1.00  0.00    -0.040 C  
HETATM    6  C   UNL     1      -7.613   5.782  68.500  1.00  0.00    -0.089 C  
HETATM    7  C   UNL     1      -7.691   6.052  66.985  1.00  0.00    -0.101 C  
HETATM    8  C   UNL     1      -7.958   7.561  66.610  1.00  0.00    -0.110 C  
HETATM    9  C   UNL     1      -8.892   8.352  67.559  1.00  0.00    -0.139 C  
HETATM   10  C   UNL     1     -10.277   7.676  67.399  1.00  0.00    -0.320 C  
HETATM   11  C   UNL     1      -8.285   8.527  69.025  1.00  0.00    -0.116 C  
HETATM   12  C   UNL     1      -9.521   8.545  70.065  1.00  0.00    -0.164 C  
HETATM   13  C   UNL     1      -7.433   9.794  69.201  1.00  0.00    -0.082 C  
HETATM   14  C   UNL     1      -9.421   7.590  71.267  1.00  0.00    -0.158 C  
HETATM   15  O   UNL     1      -7.185   4.622  71.787  1.00  0.00    -0.060 OA 
HETATM   16  C   UNL     1      -6.426   6.059  69.071  1.00  0.00    -0.043 C  
HETATM   17  C   UNL     1      -9.219   5.945  71.048  1.00  0.00    -0.163 C  
HETATM   18  C   UNL     1      -7.440   5.745  70.899  1.00  0.00    -0.090 C  
HETATM   19  H   UNL     1      -6.244   4.516  71.708  1.00  0.00     0.000 HD 
HETATM   20  C   UNL     1      -5.321   7.257  68.286  1.00  0.00    -0.021 C  
HETATM   21  C   UNL     1     -10.249   5.538  72.160  1.00  0.00    -0.247 C  
ENDROOT
BRANCH  12  22
HETATM   22  O   UNL     1      -9.739   9.864  70.606  1.00  0.00    -0.158 OA 
BRANCH  22  23
HETATM   23  C   UNL     1     -10.828  10.546  70.146  1.00  0.00    -0.227 C  
HETATM   24  O   UNL     1     -11.878  10.704  70.755  1.00  0.00    -0.323 OA 
BRANCH  23  25
HETATM   25  C   UNL     1     -10.531  11.193  68.818  1.00  0.00    -0.203 C  
BRANCH  25  26
HETATM   26  S   UNL     1     -11.742  12.491  68.436  1.00  0.00    -0.315 SA 
BRANCH  26  27
HETATM   27  C   UNL     1     -10.644  13.956  68.293  1.00  0.00    -0.257 C  
HETATM   28  C   UNL     1     -10.864  14.945  69.443  1.00  0.00    -0.274 C  
HETATM   29  C   UNL     1      -9.856  16.092  69.372  1.00  0.00    -0.254 C  
HETATM   30  C   UNL     1      -9.925  16.804  68.016  1.00  0.00    -0.272 C  
HETATM   31  N   UNL     1      -8.924  17.865  67.951  1.00  0.00    -0.259 NA 
HETATM   32  C   UNL     1      -9.721  15.820  66.860  1.00  0.00    -0.240 C  
HETATM   33  C   UNL     1     -10.726  14.667  66.925  1.00  0.00    -0.294 C  
HETATM   34  H2  UNL     1      -7.987  17.516  68.151  1.00  0.00     0.000 HD 
HETATM   35  H1  UNL     1      -8.971  18.338  67.050  1.00  0.00     0.000 HD 
HETATM   36  O   UNL     1     -10.456  13.776  65.843  1.00  0.00    -0.284 OA 
HETATM   37  H   UNL     1     -10.507  14.213  65.001  1.00  0.00     0.000 HD 
ENDBRANCH  26  27
ENDBRANCH  25  26
ENDBRANCH  23  25
ENDBRANCH  22  23
ENDBRANCH  12  22
BRANCH  17  38
HETATM   38  C   UNL     1      -9.530   4.687  70.261  1.00  0.00    -0.240 C  
HETATM   39  C   UNL     1     -10.488   4.110  69.551  1.00  0.00     0.987 C  
ENDBRANCH  17  38
TORSDOF 6
ENDMDL
MODEL      165
REMARK 921   NORMALIZED FREE ENERGY PREDICTED BY IDOCK:   -3.05 KCAL/MOL
REMARK 922        TOTAL FREE ENERGY PREDICTED BY IDOCK:   -5.36 KCAL/MOL
REMARK 923 INTER-LIGAND FREE ENERGY PREDICTED BY IDOCK:   -4.75 KCAL/MOL
REMARK 924 INTRA-LIGAND FREE ENERGY PREDICTED BY IDOCK:   -0.61 KCAL/MOL
REMARK 927      BINDING AFFINITY PREDICTED BY RF-SCORE:    0.00 PKD
ROOT
HETATM    1  C   UNL     1      -8.821   5.801  68.483  1.00  0.00    -0.110 C  
HETATM    2  C   UNL     1     -10.506   6.696  69.107  1.00  0.00    -0.219 C  
HETATM    3  C   UNL     1     -10.417   8.517  68.431  1.00  0.00    -0.215 C  
HETATM    4  O   UNL     1     -11.403   6.202  69.779  1.00  0.00    -0.411 OA 
HETATM    5  C   UNL     1      -8.636   8.718  67.566  1.00  0.00    -0.127 C  
HETATM    6  C   UNL     1      -7.952   6.948  67.428  1.00  0.00    -0.112 C  
HETATM    7  C   UNL     1      -7.611   6.250  66.097  1.00  0.00    -0.090 C  
HETATM    8  C   UNL     1      -7.698   4.676  66.151  1.00  0.00    -0.091 C  
HETATM    9  C   UNL     1      -7.264   4.007  67.478  1.00  0.00    -0.067 C  
HETATM   10  C   UNL     1      -5.747   4.301  67.587  1.00  0.00    -0.022 C  
HETATM   11  C   UNL     1      -8.213   4.386  68.705  1.00  0.00    -0.083 C  
HETATM   12  C   UNL     1      -7.301   4.402  70.039  1.00  0.00    -0.046 C  
HETATM   13  C   UNL     1      -9.402   3.431  68.893  1.00  0.00    -0.237 C  
HETATM   14  C   UNL     1      -7.401   5.657  70.924  1.00  0.00    -0.084 C  
HETATM   15  O   UNL     1      -8.774   9.053  70.116  1.00  0.00    -0.143 OA 
HETATM   16  C   UNL     1      -9.267   7.102  67.674  1.00  0.00    -0.127 C  
HETATM   17  C   UNL     1      -7.079   7.176  70.306  1.00  0.00    -0.066 C  
HETATM   18  C   UNL     1      -8.649   7.698  69.605  1.00  0.00    -0.136 C  
HETATM   19  H   UNL     1      -9.604   9.329  69.745  1.00  0.00     0.000 HD 
HETATM   20  C   UNL     1     -10.454   5.993  66.877  1.00  0.00    -0.344 C  
HETATM   21  C   UNL     1      -6.258   7.653  71.555  1.00  0.00    -0.035 C  
ENDROOT
BRANCH  12  22
HETATM   22  O   UNL     1      -7.590   3.275  70.891  1.00  0.00    -0.039 OA 
BRANCH  22  23
HETATM   23  C   UNL     1      -6.736   3.056  71.932  1.00  0.00    -0.022 C  
HETATM   24  O   UNL     1      -5.521   3.199  71.898  1.00  0.00    -0.007 OA 
BRANCH  23  25
HETATM   25  C   UNL     1      -7.499   2.721  73.187  1.00  0.00    -0.046 C  
BRANCH  25  26
HETATM   26  S   UNL     1      -7.540   4.134  74.327  1.00  0.00    -0.076 SA 
BRANCH  26  27
HETATM   27  C   UNL     1      -9.215   4.805  73.986  1.00  0.00    -0.114 C  
HETATM   28  C   UNL     1      -9.979   3.941  72.977  1.00  0.00    -0.194 C  
HETATM   29  C   UNL     1     -11.412   4.447  72.806  1.00  0.00     0.064 C  
HETATM   30  C   UNL     1     -11.429   5.921  72.387  1.00  0.00    -0.306 C  
HETATM   31  N   UNL     1     -12.804   6.397  72.274  1.00  0.00    -0.519 NA 
HETATM   32  C   UNL     1     -10.655   6.791  73.383  1.00  0.00    -0.351 C  
HETATM   33  C   UNL     1      -9.219   6.290  73.563  1.00  0.00    -0.131 C  
HETATM   34  H2  UNL     1     -13.335   6.238  73.131  1.00  0.00     0.000 HD 
HETATM   35  H1  UNL     1     -12.816   7.378  71.996  1.00  0.00     0.000 HD 
HETATM   36  O   UNL     1      -8.571   7.121  74.526  1.00  0.00    -0.181 OA 
HETATM   37  H   UNL     1      -8.574   8.035  74.265  1.00  0.00     0.000 HD 
ENDBRANCH  26  27
ENDBRANCH  25  26
ENDBRANCH  23  25
ENDBRANCH  22  23
ENDBRANCH  12  22
BRANCH  17  38
HETATM   38  C   UNL     1      -6.258   8.065  69.393  1.00  0.00    -0.034 C  
HETATM   39  C   UNL     1      -5.305   8.020  68.474  1.00  0.00    -0.032 C  
ENDBRANCH  17  38
TORSDOF 6
ENDMDL
MODEL      166
REMARK 921   NORMALIZED FREE ENERGY PREDICTED BY IDOCK:   -3.04 KCAL/MOL
REMARK 922        TOTAL FREE ENERGY PREDICTED BY IDOCK:   -5.34 KCAL/MOL
REMARK 923 INTER-LIGAND FREE ENERGY PREDICTED BY IDOCK:   -5.30 KCAL/MOL
REMARK 924 INTRA-LIGAND FREE ENERGY PREDICTED BY IDOCK:   -0.03 KCAL/MOL
REMARK 927      BINDING AFFINITY PREDICTED BY RF-SCORE:    0.00 PKD
ROOT
HETATM    1  C   UNL     1      -8.350  18.540  67.792  1.00  0.00    -0.273 C  
HETATM    2  C   UNL     1      -6.937  18.866  69.180  1.00  0.00    -0.281 C  
HETATM    3  C   UNL     1      -6.340  20.696  68.905  1.00  0.00    -0.251 C  
HETATM    4  O   UNL     1      -6.529  18.076  70.023  1.00  0.00    -0.060 OA 
HETATM    5  C   UNL     1      -7.279  21.365  67.283  1.00  0.00     0.009 C  
HETATM    6  C   UNL     1      -8.636  20.077  66.933  1.00  0.00    -0.402 C  
HETATM    7  C   UNL     1     -10.146  20.384  66.935  1.00  0.00    -0.503 C  
HETATM    8  C   UNL     1     -11.057  19.141  67.271  1.00  0.00    -0.238 C  
HETATM    9  C   UNL     1     -10.575  17.769  66.740  1.00  0.00    -0.235 C  
HETATM   10  C   UNL     1     -10.664  17.891  65.199  1.00  0.00     0.503 C  
HETATM   11  C   UNL     1      -9.199  17.297  67.398  1.00  0.00    -0.231 C  
HETATM   12  C   UNL     1      -8.400  16.436  66.289  1.00  0.00    -0.327 C  
HETATM   13  C   UNL     1      -9.372  16.468  68.681  1.00  0.00    -0.241 C  
HETATM   14  C   UNL     1      -6.936  16.837  66.033  1.00  0.00     0.356 C  
HETATM   15  O   UNL     1      -5.125  19.995  66.941  1.00  0.00    -0.159 OA 
HETATM   16  C   UNL     1      -8.051  20.067  68.145  1.00  0.00    -0.232 C  
HETATM   17  C   UNL     1      -6.535  18.393  65.571  1.00  0.00    -0.303 C  
HETATM   18  C   UNL     1      -6.375  19.276  67.127  1.00  0.00    -0.190 C  
HETATM   19  H   UNL     1      -5.040  20.462  67.764  1.00  0.00     0.000 HD 
HETATM   20  C   UNL     1      -9.058  19.750  69.613  1.00  0.00     0.435 C  
HETATM   21  C   UNL     1      -5.493  17.943  64.487  1.00  0.00     0.527 C  
ENDROOT
BRANCH  12  22
HETATM   22  O   UNL     1      -8.389  15.032  66.615  1.00  0.00    -0.218 OA 
BRANCH  22  23
HETATM   23  C   UNL     1      -9.507  14.317  66.298  1.00  0.00    -0.252 C  
HETATM   24  O   UNL     1     -10.123  14.391  65.242  1.00  0.00    -0.369 OA 
BRANCH  23  25
HETATM   25  C   UNL     1      -9.831  13.322  67.381  1.00  0.00    -0.227 C  
BRANCH  25  26
HETATM   26  S   UNL     1     -11.091  12.137  66.829  1.00  0.00    -0.318 SA 
BRANCH  26  27
HETATM   27  C   UNL     1     -10.119  11.126  65.644  1.00  0.00    -0.253 C  
HETATM   28  C   UNL     1      -8.681  10.910  66.126  1.00  0.00    -0.189 C  
HETATM   29  C   UNL     1      -7.931   9.964  65.189  1.00  0.00    -0.139 C  
HETATM   30  C   UNL     1      -7.952  10.485  63.747  1.00  0.00    -0.013 C  
HETATM   31  N   UNL     1      -7.272   9.546  62.861  1.00  0.00    -0.103 NA 
HETATM   32  C   UNL     1      -9.386  10.718  63.261  1.00  0.00    -0.324 C  
HETATM   33  C   UNL     1     -10.146  11.663  64.196  1.00  0.00    -0.297 C  
HETATM   34  H2  UNL     1      -7.661   8.605  62.932  1.00  0.00     0.000 HD 
HETATM   35  H1  UNL     1      -7.286   9.892  61.902  1.00  0.00     0.000 HD 
HETATM   36  O   UNL     1     -11.478  11.806  63.704  1.00  0.00    -0.420 OA 
HETATM   37  H   UNL     1     -11.494  12.137  62.813  1.00  0.00     0.000 HD 
ENDBRANCH  26  27
ENDBRANCH  25  26
ENDBRANCH  23  25
ENDBRANCH  22  23
ENDBRANCH  12  22
BRANCH  17  38
HETATM   38  C   UNL     1      -6.863  19.642  64.777  1.00  0.00     0.139 C  
HETATM   39  C   UNL     1      -6.330  20.512  63.931  1.00  0.00    -0.227 C  
ENDBRANCH  17  38
TORSDOF 6
ENDMDL
MODEL      167
REMARK 921   NORMALIZED FREE ENERGY PREDICTED BY IDOCK:   -3.01 KCAL/MOL
REMARK 922        TOTAL FREE ENERGY PREDICTED BY IDOCK:   -5.31 KCAL/MOL
REMARK 923 INTER-LIGAND FREE ENERGY PREDICTED BY IDOCK:   -5.16 KCAL/MOL
REMARK 924 INTRA-LIGAND FREE ENERGY PREDICTED BY IDOCK:   -0.14 KCAL/MOL
REMARK 927      BINDING AFFINITY PREDICTED BY RF-SCORE:    0.00 PKD
ROOT
HETATM    1  C   UNL     1      -9.490   5.734  70.963  1.00  0.00    -0.195 C  
HETATM    2  C   UNL     1      -8.262   4.570  69.883  1.00  0.00    -0.066 C  
HETATM    3  C   UNL     1      -6.953   3.874  71.142  1.00  0.00    -0.032 C  
HETATM    4  O   UNL     1      -8.318   4.347  68.680  1.00  0.00    -0.083 OA 
HETATM    5  C   UNL     1      -7.322   4.748  72.891  1.00  0.00    -0.085 C  
HETATM    6  C   UNL     1      -9.021   5.579  72.678  1.00  0.00    -0.129 C  
HETATM    7  C   UNL     1     -10.268   5.231  73.513  1.00  0.00    -0.229 C  
HETATM    8  C   UNL     1     -11.636   5.520  72.783  1.00  0.00    -0.298 C  
HETATM    9  C   UNL     1     -11.677   6.764  71.862  1.00  0.00    -0.349 C  
HETATM   10  C   UNL     1     -11.505   7.968  72.821  1.00  0.00    -0.420 C  
HETATM   11  C   UNL     1     -10.704   6.636  70.602  1.00  0.00    -0.286 C  
HETATM   12  C   UNL     1     -10.177   8.120  70.243  1.00  0.00    -0.200 C  
HETATM   13  C   UNL     1     -11.362   6.000  69.367  1.00  0.00    -0.282 C  
HETATM   14  C   UNL     1      -8.655   8.288  70.086  1.00  0.00    -0.128 C  
HETATM   15  O   UNL     1      -5.871   6.032  71.194  1.00  0.00    -0.021 OA 
HETATM   16  C   UNL     1      -8.655   4.646  71.779  1.00  0.00    -0.129 C  
HETATM   17  C   UNL     1      -7.609   7.874  71.322  1.00  0.00    -0.081 C  
HETATM   18  C   UNL     1      -7.316   6.120  71.069  1.00  0.00    -0.083 C  
HETATM   19  H   UNL     1      -5.716   5.104  71.061  1.00  0.00     0.000 HD 
HETATM   20  C   UNL     1      -9.890   3.479  71.159  1.00  0.00    -0.185 C  
HETATM   21  C   UNL     1      -6.700   9.142  71.155  1.00  0.00    -0.090 C  
ENDROOT
BRANCH  12  22
HETATM   22  O   UNL     1     -10.771   8.614  69.025  1.00  0.00    -0.198 OA 
BRANCH  22  23
HETATM   23  C   UNL     1      -9.922   8.898  67.996  1.00  0.00    -0.178 C  
HETATM   24  O   UNL     1      -9.350   9.966  67.820  1.00  0.00    -0.140 OA 
BRANCH  23  25
HETATM   25  C   UNL     1      -9.678   7.674  67.151  1.00  0.00    -0.183 C  
BRANCH  25  26
HETATM   26  S   UNL     1      -8.197   7.873  66.121  1.00  0.00    -0.124 SA 
BRANCH  26  27
HETATM   27  C   UNL     1      -8.220   6.299  65.175  1.00  0.00    -0.138 C  
HETATM   28  C   UNL     1      -9.072   5.231  65.870  1.00  0.00    -0.159 C  
HETATM   29  C   UNL     1      -9.178   3.975  65.004  1.00  0.00    -0.151 C  
HETATM   30  C   UNL     1      -7.789   3.427  64.656  1.00  0.00    -0.078 C  
HETATM   31  N   UNL     1      -7.911   2.256  63.792  1.00  0.00    -0.071 NA 
HETATM   32  C   UNL     1      -6.926   4.493  63.974  1.00  0.00    -0.045 C  
HETATM   33  C   UNL     1      -6.816   5.755  64.833  1.00  0.00    -0.051 C  
HETATM   34  H2  UNL     1      -8.463   2.455  62.957  1.00  0.00     0.000 HD 
HETATM   35  H1  UNL     1      -6.988   1.892  63.560  1.00  0.00     0.000 HD 
HETATM   36  O   UNL     1      -6.030   6.713  64.124  1.00  0.00    -0.033 OA 
HETATM   37  H   UNL     1      -5.166   6.379  63.914  1.00  0.00     0.000 HD 
ENDBRANCH  26  27
ENDBRANCH  25  26
ENDBRANCH  23  25
ENDBRANCH  22  23
ENDBRANCH  12  22
BRANCH  17  38
HETATM   38  C   UNL     1      -7.302   7.816  72.806  1.00  0.00    -0.104 C  
HETATM   39  C   UNL     1      -6.486   8.314  73.723  1.00  0.00    -0.138 C  
ENDBRANCH  17  38
TORSDOF 6
ENDMDL
MODEL      168
REMARK 921   NORMALIZED FREE ENERGY PREDICTED BY IDOCK:   -2.98 KCAL/MOL
REMARK 922        TOTAL FREE ENERGY PREDICTED BY IDOCK:   -5.26 KCAL/MOL
REMARK 923 INTER-LIGAND FREE ENERGY PREDICTED BY IDOCK:   -6.50 KCAL/MOL
REMARK 924 INTRA-LIGAND FREE ENERGY PREDICTED BY IDOCK:    1.24 KCAL/MOL
REMARK 927      BINDING AFFINITY PREDICTED BY RF-SCORE:    0.00 PKD
ROOT
HETATM    1  C   UNL     1      -9.730  12.691  67.371  1.00  0.00    -0.199 C  
HETATM    2  C   UNL     1      -9.051  14.532  66.949  1.00  0.00    -0.255 C  
HETATM    3  C   UNL     1     -10.626  15.589  66.522  1.00  0.00    -0.307 C  
HETATM    4  O   UNL     1      -7.887  14.912  66.952  1.00  0.00    -0.155 OA 
HETATM    5  C   UNL     1     -12.175  14.339  66.542  1.00  0.00    -0.419 C  
HETATM    6  C   UNL     1     -11.513  12.747  67.346  1.00  0.00    -0.396 C  
HETATM    7  C   UNL     1     -12.056  12.146  68.656  1.00  0.00    -0.146 C  
HETATM    8  C   UNL     1     -11.008  11.276  69.451  1.00  0.00    -0.282 C  
HETATM    9  C   UNL     1     -10.018  10.442  68.601  1.00  0.00    -0.186 C  
HETATM   10  C   UNL     1     -10.903   9.395  67.882  1.00  0.00    -0.215 C  
HETATM   11  C   UNL     1      -9.032  11.348  67.731  1.00  0.00    -0.147 C  
HETATM   12  C   UNL     1      -8.702  10.539  66.371  1.00  0.00    -0.145 C  
HETATM   13  C   UNL     1      -7.726  11.719  68.450  1.00  0.00    -0.131 C  
HETATM   14  C   UNL     1      -8.894  11.308  65.052  1.00  0.00     0.059 C  
HETATM   15  O   UNL     1     -10.778  14.482  64.382  1.00  0.00    -0.614 OA 
HETATM   16  C   UNL     1     -10.793  13.875  67.488  1.00  0.00    -0.274 C  
HETATM   17  C   UNL     1     -10.366  11.995  64.659  1.00  0.00    -0.325 C  
HETATM   18  C   UNL     1     -10.312  13.608  65.447  1.00  0.00    -0.332 C  
HETATM   19  H   UNL     1     -10.750  15.335  64.799  1.00  0.00     0.000 HD 
HETATM   20  C   UNL     1      -9.985  14.218  69.070  1.00  0.00    -0.104 C  
HETATM   21  C   UNL     1     -10.327  11.539  63.158  1.00  0.00    -0.376 C  
ENDROOT
BRANCH  12  22
HETATM   22  O   UNL     1      -7.348  10.043  66.364  1.00  0.00    -0.098 OA 
BRANCH  22  23
HETATM   23  C   UNL     1      -7.174   8.733  66.027  1.00  0.00    -0.088 C  
HETATM   24  O   UNL     1      -7.037   8.303  64.889  1.00  0.00    -0.076 OA 
BRANCH  23  25
HETATM   25  C   UNL     1      -7.051   7.876  67.260  1.00  0.00    -0.083 C  
BRANCH  25  26
HETATM   26  S   UNL     1      -8.521   8.030  68.315  1.00  0.00    -0.123 SA 
BRANCH  26  27
HETATM   27  C   UNL     1      -7.783   7.767  69.977  1.00  0.00    -0.091 C  
HETATM   28  C   UNL     1      -6.844   8.912  70.370  1.00  0.00    -0.049 C  
HETATM   29  C   UNL     1      -6.342   8.734  71.802  1.00  0.00    -0.074 C  
HETATM   30  C   UNL     1      -5.653   7.376  71.981  1.00  0.00    -0.036 C  
HETATM   31  N   UNL     1      -5.222   7.206  73.365  1.00  0.00    -0.041 NA 
HETATM   32  C   UNL     1      -6.579   6.225  71.576  1.00  0.00    -0.054 C  
HETATM   33  C   UNL     1      -7.089   6.397  70.142  1.00  0.00    -0.074 C  
HETATM   34  H2  UNL     1      -5.993   7.332  74.021  1.00  0.00     0.000 HD 
HETATM   35  H1  UNL     1      -4.764   6.303  73.483  1.00  0.00     0.000 HD 
HETATM   36  O   UNL     1      -7.969   5.313  69.846  1.00  0.00    -0.081 OA 
HETATM   37  H   UNL     1      -7.542   4.470  69.948  1.00  0.00     0.000 HD 
ENDBRANCH  26  27
ENDBRANCH  25  26
ENDBRANCH  23  25
ENDBRANCH  22  23
ENDBRANCH  12  22
BRANCH  17  38
HETATM   38  C   UNL     1     -11.881  11.926  64.668  1.00  0.00    -0.282 C  
HETATM   39  C   UNL     1     -12.935  12.008  63.870  1.00  0.00    -0.299 C  
ENDBRANCH  17  38
TORSDOF 6
ENDMDL
MODEL      169
REMARK 921   NORMALIZED FREE ENERGY PREDICTED BY IDOCK:   -2.93 KCAL/MOL
REMARK 922        TOTAL FREE ENERGY PREDICTED BY IDOCK:   -5.20 KCAL/MOL
REMARK 923 INTER-LIGAND FREE ENERGY PREDICTED BY IDOCK:   -4.36 KCAL/MOL
REMARK 924 INTRA-LIGAND FREE ENERGY PREDICTED BY IDOCK:   -0.84 KCAL/MOL
REMARK 927      BINDING AFFINITY PREDICTED BY RF-SCORE:    0.00 PKD
ROOT
HETATM    1  C   UNL     1     -10.230  15.235  68.057  1.00  0.00    -0.230 C  
HETATM    2  C   UNL     1     -10.210  16.527  69.593  1.00  0.00    -0.156 C  
HETATM    3  C   UNL     1      -8.803  17.806  69.188  1.00  0.00     0.126 C  
HETATM    4  O   UNL     1     -10.929  16.512  70.584  1.00  0.00    -0.232 OA 
HETATM    5  C   UNL     1      -7.917  17.172  67.522  1.00  0.00    -0.190 C  
HETATM    6  C   UNL     1      -9.068  15.821  66.836  1.00  0.00    -0.259 C  
HETATM    7  C   UNL     1      -9.767  15.890  65.465  1.00  0.00    -0.215 C  
HETATM    8  C   UNL     1     -11.107  15.062  65.381  1.00  0.00    -0.377 C  
HETATM    9  C   UNL     1     -11.146  13.732  66.172  1.00  0.00    -0.296 C  
HETATM   10  C   UNL     1     -10.102  12.827  65.471  1.00  0.00    -0.278 C  
HETATM   11  C   UNL     1     -11.044  13.946  67.751  1.00  0.00    -0.281 C  
HETATM   12  C   UNL     1     -10.270  12.668  68.366  1.00  0.00    -0.232 C  
HETATM   13  C   UNL     1     -12.404  14.119  68.447  1.00  0.00    -0.018 C  
HETATM   14  C   UNL     1      -9.082  12.969  69.298  1.00  0.00     0.932 C  
HETATM   15  O   UNL     1      -7.144  16.148  69.756  1.00  0.00    -0.151 OA 
HETATM   16  C   UNL     1      -9.558  16.654  67.773  1.00  0.00    -0.236 C  
HETATM   17  C   UNL     1      -7.793  13.899  68.781  1.00  0.00    -0.079 C  
HETATM   18  C   UNL     1      -8.318  15.585  69.110  1.00  0.00    -0.253 C  
HETATM   19  H   UNL     1      -7.421  17.040  69.930  1.00  0.00     0.000 HD 
HETATM   20  C   UNL     1     -11.262  17.244  67.631  1.00  0.00     0.165 C  
HETATM   21  C   UNL     1      -6.699  12.976  69.426  1.00  0.00    -0.018 C  
ENDROOT
BRANCH  12  22
HETATM   22  O   UNL     1     -11.164  11.811  69.105  1.00  0.00    -0.236 OA 
BRANCH  22  23
HETATM   23  C   UNL     1     -11.362  10.555  68.610  1.00  0.00    -0.252 C  
HETATM   24  O   UNL     1     -11.215  10.219  67.442  1.00  0.00    -0.274 OA 
BRANCH  23  25
HETATM   25  C   UNL     1     -11.676   9.586  69.720  1.00  0.00     0.173 C  
BRANCH  25  26
HETATM   26  S   UNL     1     -10.528   8.180  69.709  1.00  0.00    -0.227 SA 
BRANCH  26  27
HETATM   27  C   UNL     1      -9.537   8.531  71.215  1.00  0.00    -0.203 C  
HETATM   28  C   UNL     1      -8.032   8.487  70.928  1.00  0.00    -0.120 C  
HETATM   29  C   UNL     1      -7.233   8.905  72.162  1.00  0.00     0.087 C  
HETATM   30  C   UNL     1      -7.585   8.027  73.369  1.00  0.00    -0.154 C  
HETATM   31  N   UNL     1      -6.846   8.471  74.548  1.00  0.00    -0.190 NA 
HETATM   32  C   UNL     1      -9.090   8.053  73.655  1.00  0.00    -0.299 C  
HETATM   33  C   UNL     1      -9.899   7.639  72.422  1.00  0.00    -0.181 C  
HETATM   34  H2  UNL     1      -6.995   9.461  74.740  1.00  0.00     0.000 HD 
HETATM   35  H1  UNL     1      -7.081   7.887  75.350  1.00  0.00     0.000 HD 
HETATM   36  O   UNL     1     -11.286   7.718  72.748  1.00  0.00    -0.354 OA 
HETATM   37  H   UNL     1     -11.509   7.169  73.491  1.00  0.00     0.000 HD 
ENDBRANCH  26  27
ENDBRANCH  25  26
ENDBRANCH  23  25
ENDBRANCH  22  23
ENDBRANCH  12  22
BRANCH  17  38
HETATM   38  C   UNL     1      -6.838  14.303  67.674  1.00  0.00    -0.201 C  
HETATM   39  C   UNL     1      -5.562  14.574  67.444  1.00  0.00     0.352 C  
ENDBRANCH  17  38
TORSDOF 6
ENDMDL
MODEL      170
REMARK 921   NORMALIZED FREE ENERGY PREDICTED BY IDOCK:   -2.92 KCAL/MOL
REMARK 922        TOTAL FREE ENERGY PREDICTED BY IDOCK:   -5.19 KCAL/MOL
REMARK 923 INTER-LIGAND FREE ENERGY PREDICTED BY IDOCK:   -5.06 KCAL/MOL
REMARK 924 INTRA-LIGAND FREE ENERGY PREDICTED BY IDOCK:   -0.13 KCAL/MOL
REMARK 927      BINDING AFFINITY PREDICTED BY RF-SCORE:    0.00 PKD
ROOT
HETATM    1  C   UNL     1     -10.332  12.607  67.282  1.00  0.00    -0.230 C  
HETATM    2  C   UNL     1     -11.356  13.157  68.918  1.00  0.00    -0.289 C  
HETATM    3  C   UNL     1     -11.440  15.099  68.860  1.00  0.00    -0.337 C  
HETATM    4  O   UNL     1     -11.826  12.426  69.780  1.00  0.00    -0.317 OA 
HETATM    5  C   UNL     1     -10.345  15.671  67.299  1.00  0.00    -0.277 C  
HETATM    6  C   UNL     1     -10.015  14.074  66.317  1.00  0.00    -0.317 C  
HETATM    7  C   UNL     1     -10.479  13.835  64.867  1.00  0.00    -0.437 C  
HETATM    8  C   UNL     1     -10.688  12.316  64.498  1.00  0.00    -0.358 C  
HETATM    9  C   UNL     1      -9.706  11.308  65.144  1.00  0.00    -0.285 C  
HETATM   10  C   UNL     1      -8.327  11.655  64.530  1.00  0.00     1.125 C  
HETATM   11  C   UNL     1      -9.846  11.235  66.732  1.00  0.00    -0.227 C  
HETATM   12  C   UNL     1      -8.384  10.908  67.335  1.00  0.00    -0.117 C  
HETATM   13  C   UNL     1     -10.862  10.190  67.222  1.00  0.00    -0.295 C  
HETATM   14  C   UNL     1      -7.885  11.828  68.464  1.00  0.00    -0.144 C  
HETATM   15  O   UNL     1      -9.120  15.210  69.517  1.00  0.00    -0.366 OA 
HETATM   16  C   UNL     1     -10.993  14.059  67.242  1.00  0.00    -0.303 C  
HETATM   17  C   UNL     1      -7.771  13.481  68.244  1.00  0.00    -0.137 C  
HETATM   18  C   UNL     1      -9.414  14.084  68.647  1.00  0.00    -0.142 C  
HETATM   19  H   UNL     1      -9.989  15.529  69.730  1.00  0.00     0.000 HD 
HETATM   20  C   UNL     1     -12.528  13.166  66.895  1.00  0.00     0.052 C  
HETATM   21  C   UNL     1      -6.381  13.612  68.960  1.00  0.00    -0.102 C  
ENDROOT
BRANCH  12  22
HETATM   22  O   UNL     1      -8.308   9.560  67.842  1.00  0.00    -0.114 OA 
BRANCH  22  23
HETATM   23  C   UNL     1      -7.084   8.958  67.811  1.00  0.00    -0.079 C  
HETATM   24  O   UNL     1      -6.170   9.164  68.598  1.00  0.00    -0.045 OA 
BRANCH  23  25
HETATM   25  C   UNL     1      -7.036   7.901  66.738  1.00  0.00    -0.073 C  
BRANCH  25  26
HETATM   26  S   UNL     1      -8.676   7.176  66.456  1.00  0.00    -0.139 SA 
BRANCH  26  27
HETATM   27  C   UNL     1      -8.219   5.468  65.960  1.00  0.00    -0.114 C  
HETATM   28  C   UNL     1      -7.030   4.940  66.770  1.00  0.00    -0.067 C  
HETATM   29  C   UNL     1      -6.749   3.477  66.429  1.00  0.00    -0.052 C  
HETATM   30  C   UNL     1      -6.510   3.297  64.925  1.00  0.00    -0.031 C  
HETATM   31  N   UNL     1      -6.289   1.889  64.614  1.00  0.00    -0.018 NA 
HETATM   32  C   UNL     1      -7.688   3.836  64.107  1.00  0.00    -0.083 C  
HETATM   33  C   UNL     1      -7.978   5.301  64.445  1.00  0.00    -0.114 C  
HETATM   34  H2  UNL     1      -7.051   1.300  64.951  1.00  0.00     0.000 HD 
HETATM   35  H1  UNL     1      -6.130   1.769  63.614  1.00  0.00     0.000 HD 
HETATM   36  O   UNL     1      -9.103   5.724  63.675  1.00  0.00    -0.187 OA 
HETATM   37  H   UNL     1      -8.954   5.622  62.742  1.00  0.00     0.000 HD 
ENDBRANCH  26  27
ENDBRANCH  25  26
ENDBRANCH  23  25
ENDBRANCH  22  23
ENDBRANCH  12  22
BRANCH  17  38
HETATM   38  C   UNL     1      -7.448  14.656  67.342  1.00  0.00    -0.212 C  
HETATM   39  C   UNL     1      -7.075  15.927  67.377  1.00  0.00    -0.230 C  
ENDBRANCH  17  38
TORSDOF 6
ENDMDL
MODEL      171
REMARK 921   NORMALIZED FREE ENERGY PREDICTED BY IDOCK:   -2.92 KCAL/MOL
REMARK 922        TOTAL FREE ENERGY PREDICTED BY IDOCK:   -5.18 KCAL/MOL
REMARK 923 INTER-LIGAND FREE ENERGY PREDICTED BY IDOCK:   -5.70 KCAL/MOL
REMARK 924 INTRA-LIGAND FREE ENERGY PREDICTED BY IDOCK:    0.52 KCAL/MOL
REMARK 927      BINDING AFFINITY PREDICTED BY RF-SCORE:    0.00 PKD
ROOT
HETATM    1  C   UNL     1      -7.805   5.937  68.663  1.00  0.00    -0.102 C  
HETATM    2  C   UNL     1      -5.867   5.484  68.919  1.00  0.00    -0.019 C  
HETATM    3  C   UNL     1      -5.348   4.478  67.338  1.00  0.00    -0.012 C  
HETATM    4  O   UNL     1      -5.157   5.773  69.874  1.00  0.00    -0.004 OA 
HETATM    5  C   UNL     1      -7.001   4.216  66.260  1.00  0.00    -0.063 C  
HETATM    6  C   UNL     1      -8.284   5.388  67.035  1.00  0.00    -0.104 C  
HETATM    7  C   UNL     1      -8.960   6.552  66.286  1.00  0.00    -0.168 C  
HETATM    8  C   UNL     1      -9.441   7.729  67.221  1.00  0.00    -0.187 C  
HETATM    9  C   UNL     1      -9.979   7.325  68.616  1.00  0.00    -0.169 C  
HETATM   10  C   UNL     1     -11.274   6.529  68.321  1.00  0.00    -0.259 C  
HETATM   11  C   UNL     1      -8.861   6.663  69.545  1.00  0.00    -0.139 C  
HETATM   12  C   UNL     1      -9.596   5.582  70.494  1.00  0.00    -0.173 C  
HETATM   13  C   UNL     1      -8.085   7.674  70.404  1.00  0.00    -0.113 C  
HETATM   14  C   UNL     1      -8.980   4.172  70.532  1.00  0.00    -0.154 C  
HETATM   15  O   UNL     1      -6.546   2.558  68.178  1.00  0.00    -0.034 OA 
HETATM   16  C   UNL     1      -6.988   5.578  67.341  1.00  0.00    -0.069 C  
HETATM   17  C   UNL     1      -8.782   3.278  69.133  1.00  0.00    -0.134 C  
HETATM   18  C   UNL     1      -7.192   3.820  68.498  1.00  0.00    -0.054 C  
HETATM   19  H   UNL     1      -5.705   2.845  67.841  1.00  0.00     0.000 HD 
HETATM   20  C   UNL     1      -6.347   7.264  67.480  1.00  0.00    -0.048 C  
HETATM   21  C   UNL     1      -9.274   1.930  69.769  1.00  0.00    -0.168 C  
ENDROOT
BRANCH  12  22
HETATM   22  O   UNL     1      -9.665   6.037  71.861  1.00  0.00    -0.155 OA 
BRANCH  22  23
HETATM   23  C   UNL     1     -10.798   6.701  72.232  1.00  0.00    -0.229 C  
HETATM   24  O   UNL     1     -10.972   7.265  73.304  1.00  0.00    -0.352 OA 
BRANCH  23  25
HETATM   25  C   UNL     1     -11.783   6.756  71.094  1.00  0.00    -0.345 C  
BRANCH  25  26
HETATM   26  S   UNL     1     -13.380   7.425  71.640  1.00  0.00    -0.317 SA 
BRANCH  26  27
HETATM   27  C   UNL     1     -13.226   9.173  71.096  1.00  0.00    -0.149 C  
HETATM   28  C   UNL     1     -12.009   9.381  70.187  1.00  0.00     0.105 C  
HETATM   29  C   UNL     1     -11.973  10.810  69.648  1.00  0.00    -0.385 C  
HETATM   30  C   UNL     1     -11.983  11.832  70.791  1.00  0.00    -0.127 C  
HETATM   31  N   UNL     1     -11.995  13.189  70.255  1.00  0.00    -0.482 NA 
HETATM   32  C   UNL     1     -13.189  11.622  71.713  1.00  0.00    -0.438 C  
HETATM   33  C   UNL     1     -13.234  10.191  72.257  1.00  0.00    -0.261 C  
HETATM   34  H2  UNL     1     -12.769  13.336  69.607  1.00  0.00     0.000 HD 
HETATM   35  H1  UNL     1     -12.002  13.868  71.016  1.00  0.00     0.000 HD 
HETATM   36  O   UNL     1     -14.395  10.059  73.076  1.00  0.00    -0.164 OA 
HETATM   37  H   UNL     1     -14.400  10.685  73.790  1.00  0.00     0.000 HD 
ENDBRANCH  26  27
ENDBRANCH  25  26
ENDBRANCH  23  25
ENDBRANCH  22  23
ENDBRANCH  12  22
BRANCH  17  38
HETATM   38  C   UNL     1      -9.299   2.856  67.772  1.00  0.00    -0.247 C  
HETATM   39  C   UNL     1      -9.398   1.804  66.973  1.00  0.00     0.022 C  
ENDBRANCH  17  38
TORSDOF 6
ENDMDL
MODEL      172
REMARK 921   NORMALIZED FREE ENERGY PREDICTED BY IDOCK:   -2.92 KCAL/MOL
REMARK 922        TOTAL FREE ENERGY PREDICTED BY IDOCK:   -5.18 KCAL/MOL
REMARK 923 INTER-LIGAND FREE ENERGY PREDICTED BY IDOCK:   -4.41 KCAL/MOL
REMARK 924 INTRA-LIGAND FREE ENERGY PREDICTED BY IDOCK:   -0.77 KCAL/MOL
REMARK 927      BINDING AFFINITY PREDICTED BY RF-SCORE:    0.00 PKD
ROOT
HETATM    1  C   UNL     1      -9.321  12.357  66.939  1.00  0.00    -0.213 C  
HETATM    2  C   UNL     1     -10.482  11.368  65.634  1.00  0.00    -0.262 C  
HETATM    3  C   UNL     1     -12.213  12.253  65.692  1.00  0.00    -0.203 C  
HETATM    4  O   UNL     1     -10.170  10.404  64.947  1.00  0.00    -0.338 OA 
HETATM    5  C   UNL     1     -12.102  13.630  67.125  1.00  0.00    -0.404 C  
HETATM    6  C   UNL     1     -10.251  13.754  67.547  1.00  0.00    -0.241 C  
HETATM    7  C   UNL     1      -9.406  15.032  67.383  1.00  0.00    -0.204 C  
HETATM    8  C   UNL     1      -7.868  14.767  67.156  1.00  0.00    -0.180 C  
HETATM    9  C   UNL     1      -7.259  13.561  67.913  1.00  0.00    -0.139 C  
HETATM   10  C   UNL     1      -7.354  13.948  69.409  1.00  0.00     0.127 C  
HETATM   11  C   UNL     1      -7.861  12.161  67.438  1.00  0.00    -0.168 C  
HETATM   12  C   UNL     1      -7.864  11.174  68.717  1.00  0.00    -0.142 C  
HETATM   13  C   UNL     1      -7.092  11.511  66.276  1.00  0.00     0.150 C  
HETATM   14  C   UNL     1      -9.190  10.456  69.028  1.00  0.00    -0.194 C  
HETATM   15  O   UNL     1     -12.661  11.215  67.825  1.00  0.00     0.438 OA 
HETATM   16  C   UNL     1     -10.599  13.145  66.398  1.00  0.00    -0.293 C  
HETATM   17  C   UNL     1     -10.596  11.319  69.294  1.00  0.00    -0.187 C  
HETATM   18  C   UNL     1     -11.264  11.574  67.646  1.00  0.00    -0.281 C  
HETATM   19  H   UNL     1     -13.014  11.350  66.953  1.00  0.00     0.000 HD 
HETATM   20  C   UNL     1      -9.597  13.410  64.915  1.00  0.00     0.300 C  
HETATM   21  C   UNL     1     -11.060  10.441  70.509  1.00  0.00    -0.343 C  
ENDROOT
BRANCH  12  22
HETATM   22  O   UNL     1      -6.860  10.146  68.596  1.00  0.00    -0.056 OA 
BRANCH  22  23
HETATM   23  C   UNL     1      -7.009   9.043  69.385  1.00  0.00    -0.052 C  
HETATM   24  O   UNL     1      -7.648   8.996  70.428  1.00  0.00    -0.074 OA 
BRANCH  23  25
HETATM   25  C   UNL     1      -6.376   7.836  68.743  1.00  0.00    -0.043 C  
BRANCH  25  26
HETATM   26  S   UNL     1      -7.629   6.610  68.272  1.00  0.00    -0.106 SA 
BRANCH  26  27
HETATM   27  C   UNL     1      -7.435   6.602  66.445  1.00  0.00    -0.085 C  
HETATM   28  C   UNL     1      -5.965   6.723  66.029  1.00  0.00    -0.034 C  
HETATM   29  C   UNL     1      -5.818   6.587  64.514  1.00  0.00    -0.030 C  
HETATM   30  C   UNL     1      -6.680   7.621  63.781  1.00  0.00    -0.057 C  
HETATM   31  N   UNL     1      -6.562   7.445  62.337  1.00  0.00    -0.068 NA 
HETATM   32  C   UNL     1      -8.150   7.517  64.202  1.00  0.00    -0.055 C  
HETATM   33  C   UNL     1      -8.306   7.649  65.720  1.00  0.00    -0.141 C  
HETATM   34  H2  UNL     1      -6.784   6.492  62.050  1.00  0.00     0.000 HD 
HETATM   35  H1  UNL     1      -7.136   8.133  61.850  1.00  0.00     0.000 HD 
HETATM   36  O   UNL     1      -9.690   7.509  66.042  1.00  0.00    -0.427 OA 
HETATM   37  H   UNL     1     -10.226   8.154  65.595  1.00  0.00     0.000 HD 
ENDBRANCH  26  27
ENDBRANCH  25  26
ENDBRANCH  23  25
ENDBRANCH  22  23
ENDBRANCH  12  22
BRANCH  17  38
HETATM   38  C   UNL     1     -11.289  12.537  69.875  1.00  0.00    -0.052 C  
HETATM   39  C   UNL     1     -12.170  12.896  70.796  1.00  0.00    -0.348 C  
ENDBRANCH  17  38
TORSDOF 6
ENDMDL
MODEL      173
REMARK 921   NORMALIZED FREE ENERGY PREDICTED BY IDOCK:   -2.82 KCAL/MOL
REMARK 922        TOTAL FREE ENERGY PREDICTED BY IDOCK:   -5.05 KCAL/MOL
REMARK 923 INTER-LIGAND FREE ENERGY PREDICTED BY IDOCK:   -3.54 KCAL/MOL
REMARK 924 INTRA-LIGAND FREE ENERGY PREDICTED BY IDOCK:   -1.51 KCAL/MOL
REMARK 927      BINDING AFFINITY PREDICTED BY RF-SCORE:    0.00 PKD
ROOT
HETATM    1  C   UNL     1      -8.004   9.916  68.068  1.00  0.00    -0.100 C  
HETATM    2  C   UNL     1      -6.008  10.044  67.899  1.00  0.00    -0.038 C  
HETATM    3  C   UNL     1      -5.657  11.784  67.105  1.00  0.00    -0.121 C  
HETATM    4  O   UNL     1      -5.181   9.201  68.221  1.00  0.00    -0.037 OA 
HETATM    5  C   UNL     1      -7.429  12.583  66.675  1.00  0.00     0.410 C  
HETATM    6  C   UNL     1      -8.696  11.484  67.574  1.00  0.00    -0.145 C  
HETATM    7  C   UNL     1      -9.652  11.984  68.674  1.00  0.00    -0.087 C  
HETATM    8  C   UNL     1     -10.108  10.867  69.690  1.00  0.00     0.039 C  
HETATM    9  C   UNL     1     -10.319   9.449  69.105  1.00  0.00    -0.221 C  
HETATM   10  C   UNL     1     -11.525   9.596  68.145  1.00  0.00     0.375 C  
HETATM   11  C   UNL     1      -8.969   8.797  68.556  1.00  0.00    -0.138 C  
HETATM   12  C   UNL     1      -9.360   7.850  67.307  1.00  0.00    -0.148 C  
HETATM   13  C   UNL     1      -8.194   7.986  69.606  1.00  0.00    -0.121 C  
HETATM   14  C   UNL     1      -8.560   8.060  66.009  1.00  0.00    -0.162 C  
HETATM   15  O   UNL     1      -6.405  10.949  64.967  1.00  0.00    -0.370 OA 
HETATM   16  C   UNL     1      -7.403  11.388  67.937  1.00  0.00    -0.093 C  
HETATM   17  C   UNL     1      -8.503   9.556  65.263  1.00  0.00    -0.159 C  
HETATM   18  C   UNL     1      -7.147  10.397  66.088  1.00  0.00    -0.130 C  
HETATM   19  H   UNL     1      -5.688  11.394  65.403  1.00  0.00     0.000 HD 
HETATM   20  C   UNL     1      -6.986  11.191  69.686  1.00  0.00    -0.088 C  
HETATM   21  C   UNL     1      -8.679   8.984  63.812  1.00  0.00    -0.100 C  
ENDROOT
BRANCH  12  22
HETATM   22  O   UNL     1      -9.238   6.453  67.642  1.00  0.00    -0.118 OA 
BRANCH  22  23
HETATM   23  C   UNL     1     -10.398   5.750  67.789  1.00  0.00    -0.213 C  
HETATM   24  O   UNL     1     -11.366   6.105  68.449  1.00  0.00    -0.271 OA 
BRANCH  23  25
HETATM   25  C   UNL     1     -10.387   4.515  66.927  1.00  0.00    -0.003 C  
BRANCH  25  26
HETATM   26  S   UNL     1      -9.175   3.305  67.531  1.00  0.00    -0.198 SA 
BRANCH  26  27
HETATM   27  C   UNL     1      -8.050   3.190  66.083  1.00  0.00    -0.089 C  
HETATM   28  C   UNL     1      -7.092   4.383  66.012  1.00  0.00    -0.071 C  
HETATM   29  C   UNL     1      -6.086   4.203  64.875  1.00  0.00    -0.023 C  
HETATM   30  C   UNL     1      -6.800   3.994  63.535  1.00  0.00    -0.044 C  
HETATM   31  N   UNL     1      -5.824   3.778  62.471  1.00  0.00    -0.013 NA 
HETATM   32  C   UNL     1      -7.772   2.812  63.601  1.00  0.00    -0.068 C  
HETATM   33  C   UNL     1      -8.782   2.983  64.739  1.00  0.00    -0.104 C  
HETATM   34  H2  UNL     1      -5.188   3.010  62.688  1.00  0.00     0.000 HD 
HETATM   35  H1  UNL     1      -6.299   3.639  61.580  1.00  0.00     0.000 HD 
HETATM   36  O   UNL     1      -9.629   1.835  64.763  1.00  0.00    -0.270 OA 
HETATM   37  H   UNL     1     -10.079   1.707  63.936  1.00  0.00     0.000 HD 
ENDBRANCH  26  27
ENDBRANCH  25  26
ENDBRANCH  23  25
ENDBRANCH  22  23
ENDBRANCH  12  22
BRANCH  17  38
HETATM   38  C   UNL     1      -9.200  10.843  64.870  1.00  0.00    -0.230 C  
HETATM   39  C   UNL     1     -10.191  11.309  64.124  1.00  0.00    -0.391 C  
ENDBRANCH  17  38
TORSDOF 6
ENDMDL
MODEL      174
REMARK 921   NORMALIZED FREE ENERGY PREDICTED BY IDOCK:   -2.76 KCAL/MOL
REMARK 922        TOTAL FREE ENERGY PREDICTED BY IDOCK:   -4.96 KCAL/MOL
REMARK 923 INTER-LIGAND FREE ENERGY PREDICTED BY IDOCK:   -4.62 KCAL/MOL
REMARK 924 INTRA-LIGAND FREE ENERGY PREDICTED BY IDOCK:   -0.34 KCAL/MOL
REMARK 927      BINDING AFFINITY PREDICTED BY RF-SCORE:    0.00 PKD
ROOT
HETATM    1  C   UNL     1      -7.997   5.452  71.083  1.00  0.00    -0.109 C  
HETATM    2  C   UNL     1      -9.198   4.092  71.941  1.00  0.00    -0.126 C  
HETATM    3  C   UNL     1      -8.725   2.387  71.135  1.00  0.00    -0.115 C  
HETATM    4  O   UNL     1     -10.057   4.292  72.790  1.00  0.00    -0.147 OA 
HETATM    5  C   UNL     1      -7.382   2.778  69.719  1.00  0.00    -0.044 C  
HETATM    6  C   UNL     1      -6.853   4.580  70.026  1.00  0.00    -0.041 C  
HETATM    7  C   UNL     1      -5.416   5.018  70.367  1.00  0.00    -0.008 C  
HETATM    8  C   UNL     1      -5.327   6.360  71.190  1.00  0.00    -0.019 C  
HETATM    9  C   UNL     1      -6.378   7.446  70.853  1.00  0.00    -0.039 C  
HETATM   10  C   UNL     1      -6.046   7.875  69.402  1.00  0.00    -0.034 C  
HETATM   11  C   UNL     1      -7.869   6.997  71.203  1.00  0.00    -0.099 C  
HETATM   12  C   UNL     1      -8.852   7.698  70.129  1.00  0.00    -0.146 C  
HETATM   13  C   UNL     1      -8.311   7.357  72.631  1.00  0.00    -0.131 C  
HETATM   14  C   UNL     1      -9.854   6.775  69.412  1.00  0.00    -0.162 C  
HETATM   15  O   UNL     1      -9.871   3.035  69.112  1.00  0.00     0.049 OA 
HETATM   16  C   UNL     1      -7.506   3.935  71.011  1.00  0.00    -0.040 C  
HETATM   17  C   UNL     1      -9.332   5.446  68.541  1.00  0.00    -0.144 C  
HETATM   18  C   UNL     1      -9.206   4.146  69.773  1.00  0.00    -0.143 C  
HETATM   19  H   UNL     1      -9.805   2.347  69.763  1.00  0.00     0.000 HD 
HETATM   20  C   UNL     1      -6.999   4.194  72.728  1.00  0.00    -0.057 C  
HETATM   21  C   UNL     1     -10.312   5.686  67.338  1.00  0.00    -0.284 C  
ENDROOT
BRANCH  12  22
HETATM   22  O   UNL     1      -9.627   8.755  70.730  1.00  0.00    -0.178 OA 
BRANCH  22  23
HETATM   23  C   UNL     1     -10.690   9.223  70.014  1.00  0.00    -0.232 C  
HETATM   24  O   UNL     1     -11.766   8.654  69.884  1.00  0.00     0.140 OA 
BRANCH  23  25
HETATM   25  C   UNL     1     -10.412  10.608  69.489  1.00  0.00    -0.204 C  
BRANCH  25  26
HETATM   26  S   UNL     1      -8.720  10.737  68.844  1.00  0.00    -0.126 SA 
BRANCH  26  27
HETATM   27  C   UNL     1      -9.046  11.307  67.129  1.00  0.00    -0.157 C  
HETATM   28  C   UNL     1     -10.532  11.605  66.902  1.00  0.00    -0.262 C  
HETATM   29  C   UNL     1     -10.760  12.195  65.511  1.00  0.00    -0.321 C  
HETATM   30  C   UNL     1     -10.216  11.265  64.420  1.00  0.00    -0.320 C  
HETATM   31  N   UNL     1     -10.401  11.867  63.104  1.00  0.00    -0.628 NA 
HETATM   32  C   UNL     1      -8.734  10.950  64.648  1.00  0.00    -0.037 C  
HETATM   33  C   UNL     1      -8.496  10.360  66.041  1.00  0.00    -0.146 C  
HETATM   34  H2  UNL     1      -9.989  12.799  63.050  1.00  0.00     0.000 HD 
HETATM   35  H1  UNL     1     -10.039  11.248  62.379  1.00  0.00     0.000 HD 
HETATM   36  O   UNL     1      -7.097  10.124  66.195  1.00  0.00    -0.101 OA 
HETATM   37  H   UNL     1      -6.758   9.541  65.525  1.00  0.00     0.000 HD 
ENDBRANCH  26  27
ENDBRANCH  25  26
ENDBRANCH  23  25
ENDBRANCH  22  23
ENDBRANCH  12  22
BRANCH  17  38
HETATM   38  C   UNL     1      -8.310   4.813  67.617  1.00  0.00    -0.104 C  
HETATM   39  C   UNL     1      -8.085   4.539  66.341  1.00  0.00    -0.103 C  
ENDBRANCH  17  38
TORSDOF 6
ENDMDL
MODEL      175
REMARK 921   NORMALIZED FREE ENERGY PREDICTED BY IDOCK:   -2.75 KCAL/MOL
REMARK 922        TOTAL FREE ENERGY PREDICTED BY IDOCK:   -4.95 KCAL/MOL
REMARK 923 INTER-LIGAND FREE ENERGY PREDICTED BY IDOCK:   -6.66 KCAL/MOL
REMARK 924 INTRA-LIGAND FREE ENERGY PREDICTED BY IDOCK:    1.71 KCAL/MOL
REMARK 927      BINDING AFFINITY PREDICTED BY RF-SCORE:    0.00 PKD
ROOT
HETATM    1  C   UNL     1      -8.383  18.536  67.770  1.00  0.00    -0.273 C  
HETATM    2  C   UNL     1      -6.976  18.792  69.178  1.00  0.00    -0.265 C  
HETATM    3  C   UNL     1      -6.345  20.620  68.967  1.00  0.00    -0.220 C  
HETATM    4  O   UNL     1      -6.587  17.969  69.996  1.00  0.00     0.018 OA 
HETATM    5  C   UNL     1      -7.261  21.357  67.361  1.00  0.00     0.033 C  
HETATM    6  C   UNL     1      -8.636  20.106  66.960  1.00  0.00    -0.408 C  
HETATM    7  C   UNL     1     -10.141  20.439  66.962  1.00  0.00    -0.507 C  
HETATM    8  C   UNL     1     -11.076  19.202  67.251  1.00  0.00    -0.238 C  
HETATM    9  C   UNL     1     -10.614  17.840  66.678  1.00  0.00    -0.224 C  
HETATM   10  C   UNL     1     -10.690  18.014  65.141  1.00  0.00     0.593 C  
HETATM   11  C   UNL     1      -9.251  17.323  67.330  1.00  0.00    -0.233 C  
HETATM   12  C   UNL     1      -8.459  16.485  66.198  1.00  0.00    -0.285 C  
HETATM   13  C   UNL     1      -9.448  16.455  68.584  1.00  0.00    -0.239 C  
HETATM   14  C   UNL     1      -6.986  16.868  65.965  1.00  0.00     0.177 C  
HETATM   15  O   UNL     1      -5.128  19.962  66.989  1.00  0.00    -0.158 OA 
HETATM   16  C   UNL     1      -8.060  20.046  68.175  1.00  0.00    -0.232 C  
HETATM   17  C   UNL     1      -6.556  18.431  65.558  1.00  0.00    -0.287 C  
HETATM   18  C   UNL     1      -6.391  19.260  67.143  1.00  0.00    -0.190 C  
HETATM   19  H   UNL     1      -5.041  20.401  67.827  1.00  0.00     0.000 HD 
HETATM   20  C   UNL     1      -9.084  19.698  69.625  1.00  0.00     0.390 C  
HETATM   21  C   UNL     1      -5.514  17.999  64.466  1.00  0.00     0.307 C  
ENDROOT
BRANCH  12  22
HETATM   22  O   UNL     1      -8.475  15.070  66.478  1.00  0.00    -0.217 OA 
BRANCH  22  23
HETATM   23  C   UNL     1      -7.651  14.630  67.473  1.00  0.00    -0.194 C  
HETATM   24  O   UNL     1      -6.668  15.222  67.896  1.00  0.00    -0.121 OA 
BRANCH  23  25
HETATM   25  C   UNL     1      -8.180  13.355  68.079  1.00  0.00    -0.161 C  
BRANCH  25  26
HETATM   26  S   UNL     1      -9.932  13.519  68.524  1.00  0.00    -0.159 SA 
BRANCH  26  27
HETATM   27  C   UNL     1     -10.737  12.823  67.027  1.00  0.00    -0.253 C  
HETATM   28  C   UNL     1      -9.711  12.226  66.056  1.00  0.00    -0.254 C  
HETATM   29  C   UNL     1     -10.411  11.544  64.881  1.00  0.00    -0.345 C  
HETATM   30  C   UNL     1     -11.348  12.517  64.157  1.00  0.00    -0.380 C  
HETATM   31  N   UNL     1     -12.041  11.835  63.068  1.00  0.00    -0.888 NA 
HETATM   32  C   UNL     1     -12.367  13.130  65.122  1.00  0.00    -0.525 C  
HETATM   33  C   UNL     1     -11.675  13.814  66.305  1.00  0.00    -0.376 C  
HETATM   34  H2  UNL     1     -12.533  11.003  63.392  1.00  0.00     0.000 HD 
HETATM   35  H1  UNL     1     -12.664  12.483  62.586  1.00  0.00     0.000 HD 
HETATM   36  O   UNL     1     -12.681  14.330  67.176  1.00  0.00    -0.459 OA 
HETATM   37  H   UNL     1     -13.258  14.940  66.732  1.00  0.00     0.000 HD 
ENDBRANCH  26  27
ENDBRANCH  25  26
ENDBRANCH  23  25
ENDBRANCH  22  23
ENDBRANCH  12  22
BRANCH  17  38
HETATM   38  C   UNL     1      -6.856  19.711  64.802  1.00  0.00     0.139 C  
HETATM   39  C   UNL     1      -6.386  20.490  63.839  1.00  0.00    -0.227 C  
ENDBRANCH  17  38
TORSDOF 6
ENDMDL
MODEL      176
REMARK 921   NORMALIZED FREE ENERGY PREDICTED BY IDOCK:   -2.72 KCAL/MOL
REMARK 922        TOTAL FREE ENERGY PREDICTED BY IDOCK:   -4.91 KCAL/MOL
REMARK 923 INTER-LIGAND FREE ENERGY PREDICTED BY IDOCK:   -4.80 KCAL/MOL
REMARK 924 INTRA-LIGAND FREE ENERGY PREDICTED BY IDOCK:   -0.11 KCAL/MOL
REMARK 927      BINDING AFFINITY PREDICTED BY RF-SCORE:    0.00 PKD
ROOT
HETATM    1  C   UNL     1      -8.806  15.304  68.112  1.00  0.00    -0.171 C  
HETATM    2  C   UNL     1      -6.964  15.698  67.419  1.00  0.00    -0.200 C  
HETATM    3  C   UNL     1      -6.796  17.635  67.440  1.00  0.00    -0.183 C  
HETATM    4  O   UNL     1      -6.120  14.889  67.052  1.00  0.00    -0.128 OA 
HETATM    5  C   UNL     1      -8.569  18.356  67.985  1.00  0.00    -0.287 C  
HETATM    6  C   UNL     1      -9.538  16.848  68.624  1.00  0.00    -0.265 C  
HETATM    7  C   UNL     1     -10.067  16.703  70.064  1.00  0.00     0.337 C  
HETATM    8  C   UNL     1     -10.233  15.210  70.544  1.00  0.00     0.163 C  
HETATM    9  C   UNL     1     -10.691  14.189  69.474  1.00  0.00    -0.051 C  
HETATM   10  C   UNL     1     -12.131  14.625  69.106  1.00  0.00    -0.283 C  
HETATM   11  C   UNL     1      -9.621  13.993  68.305  1.00  0.00    -0.224 C  
HETATM   12  C   UNL     1     -10.437  13.669  66.949  1.00  0.00    -0.272 C  
HETATM   13  C   UNL     1      -8.594  12.883  68.578  1.00  0.00    -0.042 C  
HETATM   14  C   UNL     1     -10.082  14.517  65.715  1.00  0.00    -0.365 C  
HETATM   15  O   UNL     1      -8.226  17.771  65.500  1.00  0.00    -0.291 OA 
HETATM   16  C   UNL     1      -8.204  16.733  68.489  1.00  0.00    -0.242 C  
HETATM   17  C   UNL     1     -10.189  16.185  65.754  1.00  0.00    -0.397 C  
HETATM   18  C   UNL     1      -8.600  16.703  66.413  1.00  0.00    -0.310 C  
HETATM   19  H   UNL     1      -7.386  18.045  65.849  1.00  0.00     0.000 HD 
HETATM   20  C   UNL     1      -7.262  15.819  69.735  1.00  0.00    -0.046 C  
HETATM   21  C   UNL     1     -10.846  16.307  64.334  1.00  0.00     0.300 C  
ENDROOT
BRANCH  12  22
HETATM   22  O   UNL     1     -10.285  12.290  66.556  1.00  0.00    -0.211 OA 
BRANCH  22  23
HETATM   23  C   UNL     1     -11.173  11.398  67.082  1.00  0.00    -0.296 C  
HETATM   24  O   UNL     1     -12.238  11.684  67.612  1.00  0.00    -0.544 OA 
BRANCH  23  25
HETATM   25  C   UNL     1     -10.726   9.982  66.821  1.00  0.00    -0.101 C  
BRANCH  25  26
HETATM   26  S   UNL     1      -9.381   9.502  67.942  1.00  0.00    -0.131 SA 
BRANCH  26  27
HETATM   27  C   UNL     1      -8.597   8.147  66.981  1.00  0.00    -0.123 C  
HETATM   28  C   UNL     1      -8.478   8.501  65.494  1.00  0.00    -0.183 C  
HETATM   29  C   UNL     1      -7.712   7.415  64.739  1.00  0.00    -0.114 C  
HETATM   30  C   UNL     1      -8.373   6.044  64.924  1.00  0.00    -0.104 C  
HETATM   31  N   UNL     1      -7.601   5.014  64.235  1.00  0.00    -0.071 NA 
HETATM   32  C   UNL     1      -8.510   5.689  66.408  1.00  0.00    -0.121 C  
HETATM   33  C   UNL     1      -9.274   6.773  67.173  1.00  0.00    -0.134 C  
HETATM   34  H2  UNL     1      -6.624   5.009  64.529  1.00  0.00     0.000 HD 
HETATM   35  H1  UNL     1      -8.041   4.102  64.358  1.00  0.00     0.000 HD 
HETATM   36  O   UNL     1      -9.333   6.395  68.548  1.00  0.00    -0.124 OA 
HETATM   37  H   UNL     1      -9.750   5.549  68.667  1.00  0.00     0.000 HD 
ENDBRANCH  26  27
ENDBRANCH  25  26
ENDBRANCH  23  25
ENDBRANCH  22  23
ENDBRANCH  12  22
BRANCH  17  38
HETATM   38  C   UNL     1     -10.908  17.434  66.224  1.00  0.00     0.057 C  
HETATM   39  C   UNL     1     -11.150  18.691  65.882  1.00  0.00     0.361 C  
ENDBRANCH  17  38
TORSDOF 6
ENDMDL
MODEL      177
REMARK 921   NORMALIZED FREE ENERGY PREDICTED BY IDOCK:   -2.68 KCAL/MOL
REMARK 922        TOTAL FREE ENERGY PREDICTED BY IDOCK:   -4.86 KCAL/MOL
REMARK 923 INTER-LIGAND FREE ENERGY PREDICTED BY IDOCK:   -3.84 KCAL/MOL
REMARK 924 INTRA-LIGAND FREE ENERGY PREDICTED BY IDOCK:   -1.02 KCAL/MOL
REMARK 927      BINDING AFFINITY PREDICTED BY RF-SCORE:    0.00 PKD
ROOT
HETATM    1  C   UNL     1      -7.780   6.092  71.823  1.00  0.00    -0.101 C  
HETATM    2  C   UNL     1      -6.374   6.912  70.650  1.00  0.00    -0.046 C  
HETATM    3  C   UNL     1      -6.664   8.833  70.743  1.00  0.00    -0.053 C  
HETATM    4  O   UNL     1      -5.515   6.327  70.002  1.00  0.00    -0.013 OA 
HETATM    5  C   UNL     1      -8.310   9.109  71.827  1.00  0.00     0.239 C  
HETATM    6  C   UNL     1      -8.665   7.418  72.624  1.00  0.00    -0.155 C  
HETATM    7  C   UNL     1      -8.691   7.163  74.144  1.00  0.00    -0.235 C  
HETATM    8  C   UNL     1      -8.353   5.678  74.556  1.00  0.00    -0.105 C  
HETATM    9  C   UNL     1      -8.858   4.567  73.603  1.00  0.00    -0.105 C  
HETATM   10  C   UNL     1     -10.402   4.639  73.699  1.00  0.00    -0.249 C  
HETATM   11  C   UNL     1      -8.172   4.625  72.163  1.00  0.00    -0.110 C  
HETATM   12  C   UNL     1      -9.256   4.100  71.086  1.00  0.00    -0.131 C  
HETATM   13  C   UNL     1      -6.881   3.797  72.052  1.00  0.00    -0.026 C  
HETATM   14  C   UNL     1      -9.494   4.998  69.858  1.00  0.00    -0.225 C  
HETATM   15  O   UNL     1      -8.599   8.601  69.319  1.00  0.00    -0.128 OA 
HETATM   16  C   UNL     1      -7.444   7.627  72.099  1.00  0.00    -0.078 C  
HETATM   17  C   UNL     1      -9.970   6.591  70.033  1.00  0.00    -0.193 C  
HETATM   18  C   UNL     1      -8.423   7.483  70.231  1.00  0.00    -0.138 C  
HETATM   19  H   UNL     1      -7.781   9.073  69.423  1.00  0.00     0.000 HD 
HETATM   20  C   UNL     1      -5.987   6.979  72.955  1.00  0.00    -0.045 C  
HETATM   21  C   UNL     1     -11.031   6.538  68.878  1.00  0.00    -0.376 C  
ENDROOT
BRANCH  12  22
HETATM   22  O   UNL     1      -8.911   2.795  70.579  1.00  0.00    -0.078 OA 
BRANCH  22  23
HETATM   23  C   UNL     1      -8.272   2.752  69.374  1.00  0.00    -0.050 C  
HETATM   24  O   UNL     1      -7.071   2.578  69.212  1.00  0.00    -0.043 OA 
BRANCH  23  25
HETATM   25  C   UNL     1      -9.262   2.830  68.241  1.00  0.00    -0.196 C  
BRANCH  25  26
HETATM   26  S   UNL     1      -8.425   3.137  66.659  1.00  0.00    -0.114 SA 
BRANCH  26  27
HETATM   27  C   UNL     1      -8.154   4.951  66.757  1.00  0.00    -0.107 C  
HETATM   28  C   UNL     1      -9.100   5.718  65.827  1.00  0.00    -0.122 C  
HETATM   29  C   UNL     1      -8.943   7.226  66.019  1.00  0.00    -0.149 C  
HETATM   30  C   UNL     1      -7.489   7.661  65.801  1.00  0.00    -0.079 C  
HETATM   31  N   UNL     1      -7.351   9.096  66.034  1.00  0.00    -0.093 NA 
HETATM   32  C   UNL     1      -6.534   6.888  66.717  1.00  0.00    -0.047 C  
HETATM   33  C   UNL     1      -6.687   5.376  66.534  1.00  0.00    -0.057 C  
HETATM   34  H2  UNL     1      -7.696   9.367  66.955  1.00  0.00     0.000 HD 
HETATM   35  H1  UNL     1      -6.384   9.385  65.890  1.00  0.00     0.000 HD 
HETATM   36  O   UNL     1      -5.797   4.722  67.438  1.00  0.00    -0.021 OA 
HETATM   37  H   UNL     1      -4.894   4.984  67.300  1.00  0.00     0.000 HD 
ENDBRANCH  26  27
ENDBRANCH  25  26
ENDBRANCH  23  25
ENDBRANCH  22  23
ENDBRANCH  12  22
BRANCH  17  38
HETATM   38  C   UNL     1     -10.786   7.634  70.771  1.00  0.00    -0.246 C  
HETATM   39  C   UNL     1     -11.777   8.497  70.601  1.00  0.00    -0.161 C  
ENDBRANCH  17  38
TORSDOF 6
ENDMDL
MODEL      178
REMARK 921   NORMALIZED FREE ENERGY PREDICTED BY IDOCK:   -2.66 KCAL/MOL
REMARK 922        TOTAL FREE ENERGY PREDICTED BY IDOCK:   -4.83 KCAL/MOL
REMARK 923 INTER-LIGAND FREE ENERGY PREDICTED BY IDOCK:   -4.73 KCAL/MOL
REMARK 924 INTRA-LIGAND FREE ENERGY PREDICTED BY IDOCK:   -0.10 KCAL/MOL
REMARK 927      BINDING AFFINITY PREDICTED BY RF-SCORE:    0.00 PKD
ROOT
HETATM    1  C   UNL     1      -8.350  18.540  67.792  1.00  0.00    -0.273 C  
HETATM    2  C   UNL     1      -6.935  18.874  69.176  1.00  0.00    -0.281 C  
HETATM    3  C   UNL     1      -6.343  20.705  68.893  1.00  0.00    -0.251 C  
HETATM    4  O   UNL     1      -6.523  18.089  70.020  1.00  0.00    -0.060 OA 
HETATM    5  C   UNL     1      -7.287  21.366  67.270  1.00  0.00     0.101 C  
HETATM    6  C   UNL     1      -8.641  20.073  66.928  1.00  0.00    -0.402 C  
HETATM    7  C   UNL     1     -10.152  20.377  66.932  1.00  0.00    -0.503 C  
HETATM    8  C   UNL     1     -11.060  19.133  67.275  1.00  0.00    -0.238 C  
HETATM    9  C   UNL     1     -10.575  17.760  66.748  1.00  0.00    -0.235 C  
HETATM   10  C   UNL     1     -10.669  17.877  65.206  1.00  0.00     0.274 C  
HETATM   11  C   UNL     1      -9.197  17.294  67.405  1.00  0.00    -0.231 C  
HETATM   12  C   UNL     1      -8.398  16.431  66.297  1.00  0.00    -0.327 C  
HETATM   13  C   UNL     1      -9.365  16.470  68.691  1.00  0.00    -0.241 C  
HETATM   14  C   UNL     1      -6.936  16.835  66.036  1.00  0.00     0.356 C  
HETATM   15  O   UNL     1      -5.131  19.999  66.928  1.00  0.00    -0.159 OA 
HETATM   16  C   UNL     1      -8.053  20.069  68.139  1.00  0.00    -0.232 C  
HETATM   17  C   UNL     1      -6.540  18.390  65.567  1.00  0.00    -0.287 C  
HETATM   18  C   UNL     1      -6.378  19.279  67.120  1.00  0.00    -0.190 C  
HETATM   19  H   UNL     1      -5.045  20.470  67.749  1.00  0.00     0.000 HD 
HETATM   20  C   UNL     1      -9.057  19.755  69.611  1.00  0.00     0.435 C  
HETATM   21  C   UNL     1      -5.500  17.938  64.483  1.00  0.00     0.527 C  
ENDROOT
BRANCH  12  22
HETATM   22  O   UNL     1      -8.384  15.028  66.628  1.00  0.00    -0.218 OA 
BRANCH  22  23
HETATM   23  C   UNL     1      -9.502  14.310  66.318  1.00  0.00    -0.252 C  
HETATM   24  O   UNL     1     -10.510  14.758  65.787  1.00  0.00    -0.298 OA 
BRANCH  23  25
HETATM   25  C   UNL     1      -9.295  12.846  66.608  1.00  0.00    -0.240 C  
BRANCH  25  26
HETATM   26  S   UNL     1      -7.665  12.549  67.350  1.00  0.00    -0.156 SA 
BRANCH  26  27
HETATM   27  C   UNL     1      -7.737  10.735  67.629  1.00  0.00    -0.104 C  
HETATM   28  C   UNL     1      -8.470  10.014  66.492  1.00  0.00    -0.128 C  
HETATM   29  C   UNL     1      -8.408   8.499  66.683  1.00  0.00    -0.112 C  
HETATM   30  C   UNL     1      -8.977   8.091  68.047  1.00  0.00    -0.130 C  
HETATM   31  N   UNL     1      -8.866   6.647  68.228  1.00  0.00    -0.124 NA 
HETATM   32  C   UNL     1      -8.260   8.818  69.189  1.00  0.00    -0.119 C  
HETATM   33  C   UNL     1      -8.315  10.337  69.004  1.00  0.00    -0.148 C  
HETATM   34  H2  UNL     1      -7.909   6.319  68.102  1.00  0.00     0.000 HD 
HETATM   35  H1  UNL     1      -9.245   6.375  69.135  1.00  0.00     0.000 HD 
HETATM   36  O   UNL     1      -7.601  10.946  70.080  1.00  0.00    -0.399 OA 
HETATM   37  H   UNL     1      -7.957  10.701  70.927  1.00  0.00     0.000 HD 
ENDBRANCH  26  27
ENDBRANCH  25  26
ENDBRANCH  23  25
ENDBRANCH  22  23
ENDBRANCH  12  22
BRANCH  17  38
HETATM   38  C   UNL     1      -6.873  19.635  64.769  1.00  0.00     0.139 C  
HETATM   39  C   UNL     1      -6.344  20.503  63.920  1.00  0.00    -0.227 C  
ENDBRANCH  17  38
TORSDOF 6
ENDMDL
MODEL      179
REMARK 921   NORMALIZED FREE ENERGY PREDICTED BY IDOCK:   -2.64 KCAL/MOL
REMARK 922        TOTAL FREE ENERGY PREDICTED BY IDOCK:   -4.80 KCAL/MOL
REMARK 923 INTER-LIGAND FREE ENERGY PREDICTED BY IDOCK:   -4.31 KCAL/MOL
REMARK 924 INTRA-LIGAND FREE ENERGY PREDICTED BY IDOCK:   -0.50 KCAL/MOL
REMARK 927      BINDING AFFINITY PREDICTED BY RF-SCORE:    0.00 PKD
ROOT
HETATM    1  C   UNL     1      -8.465   8.809  68.197  1.00  0.00    -0.130 C  
HETATM    2  C   UNL     1      -9.493   8.203  66.584  1.00  0.00    -0.213 C  
HETATM    3  C   UNL     1     -10.165   9.824  65.747  1.00  0.00    -0.222 C  
HETATM    4  O   UNL     1      -9.669   7.051  66.206  1.00  0.00    -0.112 OA 
HETATM    5  C   UNL     1      -9.668  11.333  66.945  1.00  0.00    -0.215 C  
HETATM    6  C   UNL     1      -8.423  10.593  68.179  1.00  0.00    -0.122 C  
HETATM    7  C   UNL     1      -6.965  11.066  68.329  1.00  0.00    -0.069 C  
HETATM    8  C   UNL     1      -5.981   9.962  68.878  1.00  0.00    -0.037 C  
HETATM    9  C   UNL     1      -6.560   8.982  69.928  1.00  0.00    -0.042 C  
HETATM   10  C   UNL     1      -6.858   9.865  71.165  1.00  0.00     0.229 C  
HETATM   11  C   UNL     1      -7.723   8.059  69.340  1.00  0.00    -0.104 C  
HETATM   12  C   UNL     1      -8.761   7.760  70.542  1.00  0.00    -0.140 C  
HETATM   13  C   UNL     1      -7.225   6.736  68.736  1.00  0.00    -0.092 C  
HETATM   14  C   UNL     1     -10.247   8.027  70.247  1.00  0.00    -0.200 C  
HETATM   15  O   UNL     1     -11.820  10.028  67.492  1.00  0.00    -0.129 OA 
HETATM   16  C   UNL     1      -8.689   9.901  67.055  1.00  0.00    -0.137 C  
HETATM   17  C   UNL     1     -10.772   9.533  69.747  1.00  0.00    -0.259 C  
HETATM   18  C   UNL     1     -10.553   9.495  67.965  1.00  0.00    -0.230 C  
HETATM   19  H   UNL     1     -11.705  10.009  66.549  1.00  0.00     0.000 HD 
HETATM   20  C   UNL     1      -7.344   9.041  66.204  1.00  0.00    -0.091 C  
HETATM   21  C   UNL     1     -12.044   9.540  70.666  1.00  0.00    -0.230 C  
ENDROOT
BRANCH  12  22
HETATM   22  O   UNL     1      -8.670   6.393  70.993  1.00  0.00    -0.134 OA 
BRANCH  22  23
HETATM   23  C   UNL     1      -9.838   5.785  71.351  1.00  0.00    -0.170 C  
HETATM   24  O   UNL     1     -10.545   6.104  72.297  1.00  0.00    -0.203 OA 
BRANCH  23  25
HETATM   25  C   UNL     1     -10.216   4.725  70.349  1.00  0.00    -0.191 C  
BRANCH  25  26
HETATM   26  S   UNL     1      -9.009   3.368  70.342  1.00  0.00    -0.113 SA 
BRANCH  26  27
HETATM   27  C   UNL     1      -8.315   3.532  68.649  1.00  0.00    -0.077 C  
HETATM   28  C   UNL     1      -9.392   3.356  67.573  1.00  0.00    -0.248 C  
HETATM   29  C   UNL     1      -8.817   3.621  66.182  1.00  0.00    -0.127 C  
HETATM   30  C   UNL     1      -7.612   2.716  65.903  1.00  0.00    -0.073 C  
HETATM   31  N   UNL     1      -7.049   3.016  64.590  1.00  0.00    -0.052 NA 
HETATM   32  C   UNL     1      -6.535   2.874  66.981  1.00  0.00    -0.036 C  
HETATM   33  C   UNL     1      -7.104   2.614  68.379  1.00  0.00    -0.048 C  
HETATM   34  H2  UNL     1      -6.815   4.004  64.492  1.00  0.00     0.000 HD 
HETATM   35  H1  UNL     1      -6.247   2.414  64.404  1.00  0.00     0.000 HD 
HETATM   36  O   UNL     1      -6.060   2.812  69.332  1.00  0.00    -0.023 OA 
HETATM   37  H   UNL     1      -5.314   2.246  69.166  1.00  0.00     0.000 HD 
ENDBRANCH  26  27
ENDBRANCH  25  26
ENDBRANCH  23  25
ENDBRANCH  22  23
ENDBRANCH  12  22
BRANCH  17  38
HETATM   38  C   UNL     1     -10.669  11.043  69.832  1.00  0.00    -0.055 C  
HETATM   39  C   UNL     1     -11.412  12.137  69.917  1.00  0.00    -0.210 C  
ENDBRANCH  17  38
TORSDOF 6
ENDMDL
MODEL      180
REMARK 921   NORMALIZED FREE ENERGY PREDICTED BY IDOCK:   -2.58 KCAL/MOL
REMARK 922        TOTAL FREE ENERGY PREDICTED BY IDOCK:   -4.73 KCAL/MOL
REMARK 923 INTER-LIGAND FREE ENERGY PREDICTED BY IDOCK:   -4.72 KCAL/MOL
REMARK 924 INTRA-LIGAND FREE ENERGY PREDICTED BY IDOCK:   -0.01 KCAL/MOL
REMARK 927      BINDING AFFINITY PREDICTED BY RF-SCORE:    0.00 PKD
ROOT
HETATM    1  C   UNL     1      -7.978   9.820  67.979  1.00  0.00    -0.097 C  
HETATM    2  C   UNL     1      -5.977   9.677  67.916  1.00  0.00    -0.051 C  
HETATM    3  C   UNL     1      -5.344  11.407  67.293  1.00  0.00    -0.064 C  
HETATM    4  O   UNL     1      -5.294   8.702  68.202  1.00  0.00    -0.034 OA 
HETATM    5  C   UNL     1      -6.961  12.481  66.852  1.00  0.00     0.178 C  
HETATM    6  C   UNL     1      -8.417  11.505  67.593  1.00  0.00    -0.135 C  
HETATM    7  C   UNL     1      -9.358  12.046  68.687  1.00  0.00    -0.056 C  
HETATM    8  C   UNL     1     -10.022  10.928  69.579  1.00  0.00    -0.010 C  
HETATM    9  C   UNL     1     -10.391   9.605  68.864  1.00  0.00    -0.220 C  
HETATM   10  C   UNL     1     -11.508   9.998  67.864  1.00  0.00     0.173 C  
HETATM   11  C   UNL     1      -9.114   8.814  68.322  1.00  0.00    -0.141 C  
HETATM   12  C   UNL     1      -9.558   8.035  66.979  1.00  0.00    -0.196 C  
HETATM   13  C   UNL     1      -8.520   7.821  69.334  1.00  0.00    -0.134 C  
HETATM   14  C   UNL     1      -8.663   8.233  65.743  1.00  0.00    -0.196 C  
HETATM   15  O   UNL     1      -6.074  10.860  65.058  1.00  0.00    -0.367 OA 
HETATM   16  C   UNL     1      -7.174  11.198  68.006  1.00  0.00    -0.079 C  
HETATM   17  C   UNL     1      -8.357   9.759  65.134  1.00  0.00    -0.146 C  
HETATM   18  C   UNL     1      -6.949  10.331  66.091  1.00  0.00    -0.116 C  
HETATM   19  H   UNL     1      -5.329  11.162  65.564  1.00  0.00     0.000 HD 
HETATM   20  C   UNL     1      -6.890  10.805  69.749  1.00  0.00    -0.151 C  
HETATM   21  C   UNL     1      -8.525   9.336  63.632  1.00  0.00    -0.200 C  
ENDROOT
BRANCH  12  22
HETATM   22  O   UNL     1      -9.649   6.612  67.197  1.00  0.00    -0.129 OA 
BRANCH  22  23
HETATM   23  C   UNL     1      -8.593   5.857  66.775  1.00  0.00    -0.113 C  
HETATM   24  O   UNL     1      -8.041   5.951  65.687  1.00  0.00    -0.111 OA 
BRANCH  23  25
HETATM   25  C   UNL     1      -8.108   4.954  67.879  1.00  0.00    -0.093 C  
BRANCH  25  26
HETATM   26  S   UNL     1      -9.473   3.984  68.581  1.00  0.00    -0.130 SA 
BRANCH  26  27
HETATM   27  C   UNL     1      -9.695   4.821  70.201  1.00  0.00    -0.217 C  
HETATM   28  C   UNL     1      -9.279   3.919  71.368  1.00  0.00    -0.189 C  
HETATM   29  C   UNL     1      -9.354   4.679  72.692  1.00  0.00    -0.152 C  
HETATM   30  C   UNL     1     -10.756   5.255  72.919  1.00  0.00    -0.253 C  
HETATM   31  N   UNL     1     -10.794   6.015  74.165  1.00  0.00    -0.335 NA 
HETATM   32  C   UNL     1     -11.187   6.147  71.750  1.00  0.00    -0.338 C  
HETATM   33  C   UNL     1     -11.112   5.394  70.418  1.00  0.00     0.137 C  
HETATM   34  H2  UNL     1     -10.076   6.739  74.192  1.00  0.00     0.000 HD 
HETATM   35  H1  UNL     1     -11.727   6.399  74.315  1.00  0.00     0.000 HD 
HETATM   36  O   UNL     1     -11.492   6.291  69.374  1.00  0.00    -0.508 OA 
HETATM   37  H   UNL     1     -12.365   6.643  69.508  1.00  0.00     0.000 HD 
ENDBRANCH  26  27
ENDBRANCH  25  26
ENDBRANCH  23  25
ENDBRANCH  22  23
ENDBRANCH  12  22
BRANCH  17  38
HETATM   38  C   UNL     1      -8.846  11.160  64.822  1.00  0.00     0.038 C  
HETATM   39  C   UNL     1      -9.922  11.828  64.434  1.00  0.00    -0.281 C  
ENDBRANCH  17  38
TORSDOF 6
ENDMDL
MODEL      181
REMARK 921   NORMALIZED FREE ENERGY PREDICTED BY IDOCK:   -2.35 KCAL/MOL
REMARK 922        TOTAL FREE ENERGY PREDICTED BY IDOCK:   -4.41 KCAL/MOL
REMARK 923 INTER-LIGAND FREE ENERGY PREDICTED BY IDOCK:   -4.80 KCAL/MOL
REMARK 924 INTRA-LIGAND FREE ENERGY PREDICTED BY IDOCK:    0.39 KCAL/MOL
REMARK 927      BINDING AFFINITY PREDICTED BY RF-SCORE:    0.00 PKD
ROOT
HETATM    1  C   UNL     1      -8.320  10.270  67.062  1.00  0.00    -0.126 C  
HETATM    2  C   UNL     1      -9.352   9.774  65.414  1.00  0.00    -0.252 C  
HETATM    3  C   UNL     1     -10.176  11.421  64.792  1.00  0.00    -0.338 C  
HETATM    4  O   UNL     1      -9.450   8.663  64.907  1.00  0.00     0.270 OA 
HETATM    5  C   UNL     1      -9.757  12.817  66.148  1.00  0.00    -0.246 C  
HETATM    6  C   UNL     1      -8.417  12.042  67.254  1.00  0.00    -0.175 C  
HETATM    7  C   UNL     1      -6.995  12.611  67.424  1.00  0.00    -0.143 C  
HETATM    8  C   UNL     1      -5.910  11.534  67.813  1.00  0.00    -0.049 C  
HETATM    9  C   UNL     1      -6.376  10.395  68.753  1.00  0.00    -0.047 C  
HETATM   10  C   UNL     1      -6.699  11.101  70.093  1.00  0.00     0.027 C  
HETATM   11  C   UNL     1      -7.483   9.455  68.089  1.00  0.00    -0.079 C  
HETATM   12  C   UNL     1      -8.452   8.935  69.273  1.00  0.00    -0.121 C  
HETATM   13  C   UNL     1      -6.904   8.256  67.320  1.00  0.00    -0.070 C  
HETATM   14  C   UNL     1      -9.965   9.112  69.048  1.00  0.00    -0.189 C  
HETATM   15  O   UNL     1     -11.781  11.286  66.589  1.00  0.00    -0.368 OA 
HETATM   16  C   UNL     1      -8.666  11.466  66.063  1.00  0.00    -0.131 C  
HETATM   17  C   UNL     1     -10.621  10.619  68.743  1.00  0.00    -0.234 C  
HETATM   18  C   UNL     1     -10.462  10.806  66.964  1.00  0.00    -0.247 C  
HETATM   19  H   UNL     1     -11.697  11.386  65.648  1.00  0.00     0.000 HD 
HETATM   20  C   UNL     1      -7.289  10.823  65.084  1.00  0.00     0.154 C  
HETATM   21  C   UNL     1     -11.858  10.416  69.688  1.00  0.00    -0.252 C  
ENDROOT
BRANCH  12  22
HETATM   22  O   UNL     1      -8.241   7.537  69.556  1.00  0.00    -0.126 OA 
BRANCH  22  23
HETATM   23  C   UNL     1      -9.348   6.741  69.588  1.00  0.00    -0.144 C  
HETATM   24  O   UNL     1     -10.417   7.030  70.110  1.00  0.00    -0.204 OA 
BRANCH  23  25
HETATM   25  C   UNL     1      -9.127   5.485  68.785  1.00  0.00    -0.118 C  
BRANCH  25  26
HETATM   26  S   UNL     1      -7.624   4.619  69.324  1.00  0.00    -0.056 SA 
BRANCH  26  27
HETATM   27  C   UNL     1      -8.257   3.707  70.787  1.00  0.00    -0.065 C  
HETATM   28  C   UNL     1      -9.346   2.699  70.401  1.00  0.00    -0.212 C  
HETATM   29  C   UNL     1      -9.766   1.866  71.612  1.00  0.00    -0.213 C  
HETATM   30  C   UNL     1     -10.234   2.764  72.763  1.00  0.00    -0.158 C  
HETATM   31  N   UNL     1     -10.587   1.953  73.924  1.00  0.00    -0.120 NA 
HETATM   32  C   UNL     1      -9.158   3.784  73.146  1.00  0.00    -0.114 C  
HETATM   33  C   UNL     1      -8.728   4.622  71.938  1.00  0.00    -0.122 C  
HETATM   34  H2  UNL     1      -9.823   1.339  74.207  1.00  0.00     0.000 HD 
HETATM   35  H1  UNL     1     -10.898   2.550  74.690  1.00  0.00     0.000 HD 
HETATM   36  O   UNL     1      -7.704   5.523  72.358  1.00  0.00    -0.099 OA 
HETATM   37  H   UNL     1      -7.994   6.086  73.066  1.00  0.00     0.000 HD 
ENDBRANCH  26  27
ENDBRANCH  25  26
ENDBRANCH  23  25
ENDBRANCH  22  23
ENDBRANCH  12  22
BRANCH  17  38
HETATM   38  C   UNL     1     -10.634  12.113  69.004  1.00  0.00    -0.117 C  
HETATM   39  C   UNL     1     -11.430  13.099  69.388  1.00  0.00    -0.321 C  
ENDBRANCH  17  38
TORSDOF 6
ENDMDL
MODEL      182
REMARK 921   NORMALIZED FREE ENERGY PREDICTED BY IDOCK:   -2.26 KCAL/MOL
REMARK 922        TOTAL FREE ENERGY PREDICTED BY IDOCK:   -4.29 KCAL/MOL
REMARK 923 INTER-LIGAND FREE ENERGY PREDICTED BY IDOCK:   -4.08 KCAL/MOL
REMARK 924 INTRA-LIGAND FREE ENERGY PREDICTED BY IDOCK:   -0.21 KCAL/MOL
REMARK 927      BINDING AFFINITY PREDICTED BY RF-SCORE:    0.00 PKD
ROOT
HETATM    1  C   UNL     1      -7.398  10.024  65.508  1.00  0.00    -0.137 C  
HETATM    2  C   UNL     1      -6.822  11.327  66.922  1.00  0.00    -0.134 C  
HETATM    3  C   UNL     1      -6.209  10.245  68.417  1.00  0.00    -0.047 C  
HETATM    4  O   UNL     1      -6.855  12.549  66.862  1.00  0.00    -0.029 OA 
HETATM    5  C   UNL     1      -6.573   8.348  67.936  1.00  0.00    -0.061 C  
HETATM    6  C   UNL     1      -6.997   8.383  66.081  1.00  0.00    -0.072 C  
HETATM    7  C   UNL     1      -6.190   7.650  64.993  1.00  0.00    -0.038 C  
HETATM    8  C   UNL     1      -6.290   8.307  63.562  1.00  0.00    -0.073 C  
HETATM    9  C   UNL     1      -7.656   8.933  63.185  1.00  0.00    -0.105 C  
HETATM   10  C   UNL     1      -8.632   7.732  63.115  1.00  0.00     0.333 C  
HETATM   11  C   UNL     1      -8.038  10.185  64.099  1.00  0.00    -0.158 C  
HETATM   12  C   UNL     1      -9.647  10.207  64.245  1.00  0.00    -0.290 C  
HETATM   13  C   UNL     1      -7.542  11.533  63.551  1.00  0.00     1.672 C  
HETATM   14  C   UNL     1     -10.205  10.316  65.675  1.00  0.00    -0.301 C  
HETATM   15  O   UNL     1      -8.500   9.715  68.962  1.00  0.00    -0.120 OA 
HETATM   16  C   UNL     1      -6.394   9.462  66.614  1.00  0.00    -0.066 C  
HETATM   17  C   UNL     1      -9.799   9.196  66.847  1.00  0.00    -0.280 C  
HETATM   18  C   UNL     1      -8.263   9.826  67.532  1.00  0.00    -0.114 C  
HETATM   19  H   UNL     1      -7.688  10.048  69.324  1.00  0.00     0.000 HD 
HETATM   20  C   UNL     1      -5.125  10.329  65.660  1.00  0.00    -0.060 C  
HETATM   21  C   UNL     1     -11.255   9.077  67.423  1.00  0.00     0.574 C  
ENDROOT
BRANCH  12  22
HETATM   22  O   UNL     1     -10.232  11.290  63.492  1.00  0.00    -0.331 OA 
BRANCH  22  23
HETATM   23  C   UNL     1     -11.462  11.724  63.894  1.00  0.00    -0.393 C  
HETATM   24  O   UNL     1     -12.529  11.400  63.391  1.00  0.00    -0.201 OA 
BRANCH  23  25
HETATM   25  C   UNL     1     -11.349  12.577  65.131  1.00  0.00    -0.313 C  
BRANCH  25  26
HETATM   26  S   UNL     1     -12.067  14.223  64.860  1.00  0.00    -0.450 SA 
BRANCH  26  27
HETATM   27  C   UNL     1     -11.129  15.215  66.089  1.00  0.00    -0.311 C  
HETATM   28  C   UNL     1      -9.696  15.492  65.621  1.00  0.00    -0.355 C  
HETATM   29  C   UNL     1      -8.977  16.422  66.598  1.00  0.00    -0.289 C  
HETATM   30  C   UNL     1      -8.988  15.844  68.018  1.00  0.00    -0.182 C  
HETATM   31  N   UNL     1      -8.338  16.768  68.944  1.00  0.00    -0.244 NA 
HETATM   32  C   UNL     1     -10.416  15.551  68.489  1.00  0.00    -0.238 C  
HETATM   33  C   UNL     1     -11.145  14.622  67.514  1.00  0.00    -0.313 C  
HETATM   34  H2  UNL     1      -8.754  17.698  68.908  1.00  0.00     0.000 HD 
HETATM   35  H1  UNL     1      -8.346  16.383  69.888  1.00  0.00     0.000 HD 
HETATM   36  O   UNL     1     -12.474  14.420  67.994  1.00  0.00    -0.585 OA 
HETATM   37  H   UNL     1     -12.483  14.054  68.871  1.00  0.00     0.000 HD 
ENDBRANCH  26  27
ENDBRANCH  25  26
ENDBRANCH  23  25
ENDBRANCH  22  23
ENDBRANCH  12  22
BRANCH  17  38
HETATM   38  C   UNL     1      -9.502   7.759  67.230  1.00  0.00    -0.187 C  
HETATM   39  C   UNL     1     -10.039   6.704  67.823  1.00  0.00    -0.180 C  
ENDBRANCH  17  38
TORSDOF 6
ENDMDL
MODEL      183
REMARK 921   NORMALIZED FREE ENERGY PREDICTED BY IDOCK:   -2.23 KCAL/MOL
REMARK 922        TOTAL FREE ENERGY PREDICTED BY IDOCK:   -4.25 KCAL/MOL
REMARK 923 INTER-LIGAND FREE ENERGY PREDICTED BY IDOCK:   -3.89 KCAL/MOL
REMARK 924 INTRA-LIGAND FREE ENERGY PREDICTED BY IDOCK:   -0.36 KCAL/MOL
REMARK 927      BINDING AFFINITY PREDICTED BY RF-SCORE:    0.00 PKD
ROOT
HETATM    1  C   UNL     1      -9.433  10.159  67.875  1.00  0.00    -0.154 C  
HETATM    2  C   UNL     1     -10.581  11.364  68.997  1.00  0.00    -0.191 C  
HETATM    3  C   UNL     1     -10.253  13.165  68.341  1.00  0.00    -0.247 C  
HETATM    4  O   UNL     1     -11.328  11.037  69.911  1.00  0.00    -0.268 OA 
HETATM    5  C   UNL     1      -8.820  13.020  66.968  1.00  0.00    -0.213 C  
HETATM    6  C   UNL     1      -8.666  11.157  66.611  1.00  0.00    -0.166 C  
HETATM    7  C   UNL     1      -8.920  10.513  65.235  1.00  0.00    -0.211 C  
HETATM    8  C   UNL     1      -9.371   9.003  65.301  1.00  0.00    -0.158 C  
HETATM    9  C   UNL     1      -8.738   8.143  66.423  1.00  0.00    -0.168 C  
HETATM   10  C   UNL     1      -7.235   8.068  66.058  1.00  0.00    -0.069 C  
HETATM   11  C   UNL     1      -9.154   8.628  67.886  1.00  0.00    -0.145 C  
HETATM   12  C   UNL     1      -7.911   8.321  68.871  1.00  0.00    -0.113 C  
HETATM   13  C   UNL     1     -10.429   7.961  68.426  1.00  0.00    -0.207 C  
HETATM   14  C   UNL     1      -7.430   9.487  69.754  1.00  0.00    -0.098 C  
HETATM   15  O   UNL     1      -8.103  13.164  69.437  1.00  0.00    -0.057 OA 
HETATM   16  C   UNL     1      -9.766  11.590  67.253  1.00  0.00    -0.197 C  
HETATM   17  C   UNL     1      -6.944  10.937  69.078  1.00  0.00    -0.089 C  
HETATM   18  C   UNL     1      -8.473  11.864  68.903  1.00  0.00     0.139 C  
HETATM   19  H   UNL     1      -8.911  13.654  69.344  1.00  0.00     0.000 HD 
HETATM   20  C   UNL     1     -11.371  10.856  66.856  1.00  0.00    -0.044 C  
HETATM   21  C   UNL     1      -5.696  11.105  70.015  1.00  0.00    -0.098 C  
ENDROOT
BRANCH  12  22
HETATM   22  O   UNL     1      -8.200   7.224  69.762  1.00  0.00    -0.126 OA 
BRANCH  22  23
HETATM   23  C   UNL     1      -7.130   6.578  70.310  1.00  0.00    -0.072 C  
HETATM   24  O   UNL     1      -6.286   7.088  71.036  1.00  0.00    -0.039 OA 
BRANCH  23  25
HETATM   25  C   UNL     1      -7.180   5.104  70.001  1.00  0.00    -0.059 C  
BRANCH  25  26
HETATM   26  S   UNL     1      -5.784   4.606  68.953  1.00  0.00    -0.017 SA 
BRANCH  26  27
HETATM   27  C   UNL     1      -6.653   4.209  67.384  1.00  0.00    -0.046 C  
HETATM   28  C   UNL     1      -6.013   4.917  66.185  1.00  0.00    -0.023 C  
HETATM   29  C   UNL     1      -6.673   4.473  64.879  1.00  0.00    -0.045 C  
HETATM   30  C   UNL     1      -8.186   4.717  64.915  1.00  0.00    -0.120 C  
HETATM   31  N   UNL     1      -8.803   4.245  63.680  1.00  0.00    -0.124 NA 
HETATM   32  C   UNL     1      -8.832   4.025  66.120  1.00  0.00    -0.120 C  
HETATM   33  C   UNL     1      -8.175   4.462  67.433  1.00  0.00    -0.100 C  
HETATM   34  H2  UNL     1      -8.580   3.268  63.491  1.00  0.00     0.000 HD 
HETATM   35  H1  UNL     1      -9.810   4.407  63.704  1.00  0.00     0.000 HD 
HETATM   36  O   UNL     1      -8.801   3.756  68.504  1.00  0.00    -0.096 OA 
HETATM   37  H   UNL     1      -9.738   3.912  68.534  1.00  0.00     0.000 HD 
ENDBRANCH  26  27
ENDBRANCH  25  26
ENDBRANCH  23  25
ENDBRANCH  22  23
ENDBRANCH  12  22
BRANCH  17  38
HETATM   38  C   UNL     1      -6.242  11.684  67.962  1.00  0.00    -0.047 C  
HETATM   39  C   UNL     1      -5.256  12.541  67.738  1.00  0.00    -0.101 C  
ENDBRANCH  17  38
TORSDOF 6
ENDMDL
MODEL      184
REMARK 921   NORMALIZED FREE ENERGY PREDICTED BY IDOCK:   -2.07 KCAL/MOL
REMARK 922        TOTAL FREE ENERGY PREDICTED BY IDOCK:   -4.03 KCAL/MOL
REMARK 923 INTER-LIGAND FREE ENERGY PREDICTED BY IDOCK:   -3.44 KCAL/MOL
REMARK 924 INTRA-LIGAND FREE ENERGY PREDICTED BY IDOCK:   -0.59 KCAL/MOL
REMARK 927      BINDING AFFINITY PREDICTED BY RF-SCORE:    0.00 PKD
ROOT
HETATM    1  C   UNL     1      -6.818  17.816  67.243  1.00  0.00    -0.190 C  
HETATM    2  C   UNL     1      -6.586  18.855  65.541  1.00  0.00    -0.275 C  
HETATM    3  C   UNL     1      -7.498  20.548  65.828  1.00  0.00    -0.038 C  
HETATM    4  O   UNL     1      -6.000  18.497  64.527  1.00  0.00    -0.300 OA 
HETATM    5  C   UNL     1      -8.379  20.427  67.609  1.00  0.00    -0.286 C  
HETATM    6  C   UNL     1      -7.632  18.878  68.424  1.00  0.00    -0.339 C  
HETATM    7  C   UNL     1      -6.822  18.891  69.734  1.00  0.00     0.001 C  
HETATM    8  C   UNL     1      -5.793  17.703  69.870  1.00  0.00    -0.247 C  
HETATM    9  C   UNL     1      -6.231  16.342  69.275  1.00  0.00    -0.169 C  
HETATM   10  C   UNL     1      -7.430  15.899  70.150  1.00  0.00     0.661 C  
HETATM   11  C   UNL     1      -6.407  16.384  67.689  1.00  0.00    -0.177 C  
HETATM   12  C   UNL     1      -7.584  15.347  67.303  1.00  0.00    -0.212 C  
HETATM   13  C   UNL     1      -5.127  16.040  66.909  1.00  0.00     0.413 C  
HETATM   14  C   UNL     1      -8.705  15.888  66.397  1.00  0.00    -0.362 C  
HETATM   15  O   UNL     1      -9.625  19.433  65.586  1.00  0.00    -0.328 OA 
HETATM   16  C   UNL     1      -7.001  19.398  67.354  1.00  0.00    -0.226 C  
HETATM   17  C   UNL     1      -9.600  17.229  66.840  1.00  0.00    -0.272 C  
HETATM   18  C   UNL     1      -8.623  18.614  66.247  1.00  0.00    -0.217 C  
HETATM   19  H   UNL     1      -9.109  20.166  65.273  1.00  0.00     0.000 HD 
HETATM   20  C   UNL     1      -5.193  19.440  67.325  1.00  0.00    -0.162 C  
HETATM   21  C   UNL     1     -10.975  16.623  66.388  1.00  0.00     0.120 C  
ENDROOT
BRANCH  12  22
HETATM   22  O   UNL     1      -7.062  14.172  66.651  1.00  0.00     0.613 OA 
BRANCH  22  23
HETATM   23  C   UNL     1      -6.803  13.092  67.444  1.00  0.00    -0.118 C  
HETATM   24  O   UNL     1      -5.903  13.016  68.270  1.00  0.00    -0.065 OA 
BRANCH  23  25
HETATM   25  C   UNL     1      -7.853  12.028  67.257  1.00  0.00    -0.170 C  
BRANCH  25  26
HETATM   26  S   UNL     1      -8.498  11.455  68.855  1.00  0.00     0.051 SA 
BRANCH  26  27
HETATM   27  C   UNL     1      -7.771   9.770  68.938  1.00  0.00    -0.082 C  
HETATM   28  C   UNL     1      -8.479   8.798  67.987  1.00  0.00    -0.126 C  
HETATM   29  C   UNL     1      -7.778   7.440  67.981  1.00  0.00    -0.116 C  
HETATM   30  C   UNL     1      -7.693   6.857  69.396  1.00  0.00    -0.105 C  
HETATM   31  N   UNL     1      -6.981   5.583  69.375  1.00  0.00    -0.061 NA 
HETATM   32  C   UNL     1      -7.000   7.828  70.357  1.00  0.00    -0.046 C  
HETATM   33  C   UNL     1      -7.694   9.193  70.368  1.00  0.00    -0.127 C  
HETATM   34  H2  UNL     1      -6.061   5.668  68.942  1.00  0.00     0.000 HD 
HETATM   35  H1  UNL     1      -6.924   5.195  70.317  1.00  0.00     0.000 HD 
HETATM   36  O   UNL     1      -6.977  10.054  71.253  1.00  0.00    -0.278 OA 
HETATM   37  H   UNL     1      -6.930   9.698  72.133  1.00  0.00     0.000 HD 
ENDBRANCH  26  27
ENDBRANCH  25  26
ENDBRANCH  23  25
ENDBRANCH  22  23
ENDBRANCH  12  22
BRANCH  17  38
HETATM   38  C   UNL     1     -10.283  18.041  67.923  1.00  0.00    -0.386 C  
HETATM   39  C   UNL     1     -10.484  18.075  69.232  1.00  0.00     0.179 C  
ENDBRANCH  17  38
TORSDOF 6
ENDMDL
MODEL      185
REMARK 921   NORMALIZED FREE ENERGY PREDICTED BY IDOCK:   -1.97 KCAL/MOL
REMARK 922        TOTAL FREE ENERGY PREDICTED BY IDOCK:   -3.90 KCAL/MOL
REMARK 923 INTER-LIGAND FREE ENERGY PREDICTED BY IDOCK:   -1.98 KCAL/MOL
REMARK 924 INTRA-LIGAND FREE ENERGY PREDICTED BY IDOCK:   -1.92 KCAL/MOL
REMARK 927      BINDING AFFINITY PREDICTED BY RF-SCORE:    0.00 PKD
ROOT
HETATM    1  C   UNL     1     -10.110  14.824  67.853  1.00  0.00    -0.221 C  
HETATM    2  C   UNL     1     -11.753  15.967  68.006  1.00  0.00    -0.062 C  
HETATM    3  C   UNL     1     -12.171  16.038  69.904  1.00  0.00    -0.053 C  
HETATM    4  O   UNL     1     -12.370  16.504  67.095  1.00  0.00     1.723 OA 
HETATM    5  C   UNL     1     -10.884  14.825  70.818  1.00  0.00     0.103 C  
HETATM    6  C   UNL     1      -9.564  14.428  69.505  1.00  0.00     0.335 C  
HETATM    7  C   UNL     1      -8.071  14.781  69.642  1.00  0.00     0.094 C  
HETATM    8  C   UNL     1      -7.322  14.968  68.266  1.00  0.00    -0.111 C  
HETATM    9  C   UNL     1      -7.768  14.042  67.108  1.00  0.00    -0.004 C  
HETATM   10  C   UNL     1      -7.361  12.619  67.564  1.00  0.00    -0.151 C  
HETATM   11  C   UNL     1      -9.275  14.303  66.649  1.00  0.00    -0.276 C  
HETATM   12  C   UNL     1      -9.883  12.892  66.149  1.00  0.00    -0.270 C  
HETATM   13  C   UNL     1      -9.415  15.358  65.539  1.00  0.00    -0.160 C  
HETATM   14  C   UNL     1     -11.237  12.477  66.750  1.00  0.00    -0.347 C  
HETATM   15  O   UNL     1     -13.002  13.774  69.796  1.00  0.00    -0.120 OA 
HETATM   16  C   UNL     1     -10.383  15.474  69.285  1.00  0.00    -0.252 C  
HETATM   17  C   UNL     1     -11.442  12.340  68.404  1.00  0.00    -0.356 C  
HETATM   18  C   UNL     1     -11.861  14.006  68.926  1.00  0.00    -0.355 C  
HETATM   19  H   UNL     1     -13.224  14.656  70.073  1.00  0.00     0.000 HD 
HETATM   20  C   UNL     1      -9.715  16.981  68.540  1.00  0.00    -0.282 C  
HETATM   21  C   UNL     1     -12.268  11.007  68.323  1.00  0.00     0.308 C  
ENDROOT
BRANCH  12  22
HETATM   22  O   UNL     1     -10.043  12.862  64.716  1.00  0.00    -0.284 OA 
BRANCH  22  23
HETATM   23  C   UNL     1      -9.662  11.717  64.078  1.00  0.00    -0.178 C  
HETATM   24  O   UNL     1      -9.917  11.433  62.915  1.00  0.00    -0.315 OA 
BRANCH  23  25
HETATM   25  C   UNL     1      -8.773  10.883  64.963  1.00  0.00    -0.101 C  
BRANCH  25  26
HETATM   26  S   UNL     1      -9.459   9.219  65.201  1.00  0.00    -0.001 SA 
BRANCH  26  27
HETATM   27  C   UNL     1      -9.397   9.077  67.031  1.00  0.00    -0.150 C  
HETATM   28  C   UNL     1      -8.008   9.421  67.581  1.00  0.00    -0.099 C  
HETATM   29  C   UNL     1      -8.016   9.418  69.110  1.00  0.00    -0.091 C  
HETATM   30  C   UNL     1      -8.503   8.071  69.656  1.00  0.00    -0.131 C  
HETATM   31  N   UNL     1      -8.546   8.104  71.115  1.00  0.00    -0.126 NA 
HETATM   32  C   UNL     1      -9.884   7.712  69.100  1.00  0.00    -0.171 C  
HETATM   33  C   UNL     1      -9.887   7.715  67.568  1.00  0.00    -0.165 C  
HETATM   34  H2  UNL     1      -9.108   8.882  71.462  1.00  0.00     0.000 HD 
HETATM   35  H1  UNL     1      -8.871   7.209  71.478  1.00  0.00     0.000 HD 
HETATM   36  O   UNL     1     -11.207   7.408  67.122  1.00  0.00    -0.539 OA 
HETATM   37  H   UNL     1     -11.509   6.570  67.452  1.00  0.00     0.000 HD 
ENDBRANCH  26  27
ENDBRANCH  25  26
ENDBRANCH  23  25
ENDBRANCH  22  23
ENDBRANCH  12  22
BRANCH  17  38
HETATM   38  C   UNL     1     -10.886  11.944  69.758  1.00  0.00     0.230 C  
HETATM   39  C   UNL     1     -10.994  11.021  70.702  1.00  0.00     0.596 C  
ENDBRANCH  17  38
TORSDOF 6
ENDMDL
MODEL      186
REMARK 921   NORMALIZED FREE ENERGY PREDICTED BY IDOCK:   -1.95 KCAL/MOL
REMARK 922        TOTAL FREE ENERGY PREDICTED BY IDOCK:   -3.87 KCAL/MOL
REMARK 923 INTER-LIGAND FREE ENERGY PREDICTED BY IDOCK:   -2.78 KCAL/MOL
REMARK 924 INTRA-LIGAND FREE ENERGY PREDICTED BY IDOCK:   -1.09 KCAL/MOL
REMARK 927      BINDING AFFINITY PREDICTED BY RF-SCORE:    0.00 PKD
ROOT
HETATM    1  C   UNL     1      -6.865  17.255  67.433  1.00  0.00    -0.185 C  
HETATM    2  C   UNL     1      -6.701  18.246  65.695  1.00  0.00    -0.256 C  
HETATM    3  C   UNL     1      -7.662  19.918  65.949  1.00  0.00    -0.327 C  
HETATM    4  O   UNL     1      -6.124  17.875  64.681  1.00  0.00     0.213 OA 
HETATM    5  C   UNL     1      -8.502  19.826  67.751  1.00  0.00    -0.359 C  
HETATM    6  C   UNL     1      -7.689  18.327  68.597  1.00  0.00    -0.318 C  
HETATM    7  C   UNL     1      -6.854  18.407  69.889  1.00  0.00     0.269 C  
HETATM    8  C   UNL     1      -5.785  17.258  70.040  1.00  0.00    -0.244 C  
HETATM    9  C   UNL     1      -6.190  15.865  69.497  1.00  0.00    -0.163 C  
HETATM   10  C   UNL     1      -7.357  15.412  70.410  1.00  0.00     0.605 C  
HETATM   11  C   UNL     1      -6.399  15.852  67.915  1.00  0.00    -0.154 C  
HETATM   12  C   UNL     1      -7.549  14.766  67.585  1.00  0.00    -0.174 C  
HETATM   13  C   UNL     1      -5.125  15.524  67.119  1.00  0.00     0.427 C  
HETATM   14  C   UNL     1      -8.705  15.243  66.687  1.00  0.00    -0.327 C  
HETATM   15  O   UNL     1      -9.756  18.729  65.786  1.00  0.00    -0.450 OA 
HETATM   16  C   UNL     1      -7.097  18.833  67.499  1.00  0.00    -0.216 C  
HETATM   17  C   UNL     1      -9.634  16.568  67.107  1.00  0.00    -0.243 C  
HETATM   18  C   UNL     1      -8.714  17.964  66.450  1.00  0.00    -0.224 C  
HETATM   19  H   UNL     1      -9.270  19.468  65.439  1.00  0.00     0.000 HD 
HETATM   20  C   UNL     1      -5.292  18.931  67.431  1.00  0.00    -0.158 C  
HETATM   21  C   UNL     1     -10.998  15.904  66.703  1.00  0.00    -0.136 C  
ENDROOT
BRANCH  12  22
HETATM   22  O   UNL     1      -7.003  13.588  66.959  1.00  0.00    -0.010 OA 
BRANCH  22  23
HETATM   23  C   UNL     1      -7.344  12.385  67.507  1.00  0.00    -0.146 C  
HETATM   24  O   UNL     1      -7.253  12.092  68.691  1.00  0.00    -0.099 OA 
BRANCH  23  25
HETATM   25  C   UNL     1      -7.968  11.486  66.472  1.00  0.00    -0.095 C  
BRANCH  25  26
HETATM   26  S   UNL     1      -6.737  10.926  65.261  1.00  0.00     0.342 SA 
BRANCH  26  27
HETATM   27  C   UNL     1      -6.738   9.116  65.578  1.00  0.00    -0.073 C  
HETATM   28  C   UNL     1      -6.250   8.786  66.993  1.00  0.00    -0.059 C  
HETATM   29  C   UNL     1      -6.380   7.290  67.275  1.00  0.00    -0.054 C  
HETATM   30  C   UNL     1      -5.622   6.464  66.229  1.00  0.00    -0.014 C  
HETATM   31  N   UNL     1      -5.796   5.038  66.489  1.00  0.00    -0.021 NA 
HETATM   32  C   UNL     1      -6.093   6.798  64.810  1.00  0.00    -0.036 C  
HETATM   33  C   UNL     1      -5.970   8.296  64.519  1.00  0.00    -0.060 C  
HETATM   34  H2  UNL     1      -6.781   4.777  66.540  1.00  0.00     0.000 HD 
HETATM   35  H1  UNL     1      -5.292   4.489  65.793  1.00  0.00     0.000 HD 
HETATM   36  O   UNL     1      -6.456   8.539  63.199  1.00  0.00    -0.086 OA 
HETATM   37  H   UNL     1      -5.983   8.034  62.548  1.00  0.00     0.000 HD 
ENDBRANCH  26  27
ENDBRANCH  25  26
ENDBRANCH  23  25
ENDBRANCH  22  23
ENDBRANCH  12  22
BRANCH  17  38
HETATM   38  C   UNL     1     -10.322  17.391  68.178  1.00  0.00    -0.366 C  
HETATM   39  C   UNL     1     -11.037  17.274  69.287  1.00  0.00     0.415 C  
ENDBRANCH  17  38
TORSDOF 6
ENDMDL
MODEL      187
REMARK 921   NORMALIZED FREE ENERGY PREDICTED BY IDOCK:   -1.93 KCAL/MOL
REMARK 922        TOTAL FREE ENERGY PREDICTED BY IDOCK:   -3.85 KCAL/MOL
REMARK 923 INTER-LIGAND FREE ENERGY PREDICTED BY IDOCK:   -3.13 KCAL/MOL
REMARK 924 INTRA-LIGAND FREE ENERGY PREDICTED BY IDOCK:   -0.72 KCAL/MOL
REMARK 927      BINDING AFFINITY PREDICTED BY RF-SCORE:    0.00 PKD
ROOT
HETATM    1  C   UNL     1     -10.145  13.266  68.264  1.00  0.00    -0.250 C  
HETATM    2  C   UNL     1     -10.666  14.463  69.788  1.00  0.00     0.011 C  
HETATM    3  C   UNL     1     -12.282  15.377  69.211  1.00  0.00    -0.219 C  
HETATM    4  O   UNL     1     -10.085  14.598  70.858  1.00  0.00     0.856 OA 
HETATM    5  C   UNL     1     -12.601  14.837  67.323  1.00  0.00     0.718 C  
HETATM    6  C   UNL     1     -11.424  13.371  67.025  1.00  0.00    -0.372 C  
HETATM    7  C   UNL     1     -11.885  11.949  66.652  1.00  0.00    -0.150 C  
HETATM    8  C   UNL     1     -10.883  10.811  67.085  1.00  0.00    -0.335 C  
HETATM    9  C   UNL     1      -9.375  11.153  67.002  1.00  0.00    -0.182 C  
HETATM   10  C   UNL     1      -9.098  11.340  65.490  1.00  0.00    -0.184 C  
HETATM   11  C   UNL     1      -8.944  12.309  68.014  1.00  0.00    -0.190 C  
HETATM   12  C   UNL     1      -7.739  13.135  67.324  1.00  0.00    -0.098 C  
HETATM   13  C   UNL     1      -8.505  11.798  69.396  1.00  0.00     0.753 C  
HETATM   14  C   UNL     1      -7.895  14.666  67.278  1.00  0.00    -0.213 C  
HETATM   15  O   UNL     1     -10.961  16.775  67.753  1.00  0.00    -0.313 OA 
HETATM   16  C   UNL     1     -11.668  13.739  68.296  1.00  0.00    -0.394 C  
HETATM   17  C   UNL     1      -9.221  15.377  66.549  1.00  0.00    -0.323 C  
HETATM   18  C   UNL     1     -10.459  15.415  67.851  1.00  0.00    -0.256 C  
HETATM   19  H   UNL     1     -11.615  16.795  68.441  1.00  0.00     0.000 HD 
HETATM   20  C   UNL     1     -11.861  12.466  69.566  1.00  0.00    -0.368 C  
HETATM   21  C   UNL     1      -8.391  16.500  65.834  1.00  0.00     0.054 C  
ENDROOT
BRANCH  12  22
HETATM   22  O   UNL     1      -6.477  12.871  67.969  1.00  0.00    -0.081 OA 
BRANCH  22  23
HETATM   23  C   UNL     1      -5.919  11.645  67.752  1.00  0.00    -0.052 C  
HETATM   24  O   UNL     1      -5.609  10.841  68.622  1.00  0.00    -0.041 OA 
BRANCH  23  25
HETATM   25  C   UNL     1      -5.838  11.348  66.277  1.00  0.00    -0.059 C  
BRANCH  25  26
HETATM   26  S   UNL     1      -5.179   9.683  65.979  1.00  0.00    -0.036 SA 
BRANCH  26  27
HETATM   27  C   UNL     1      -6.734   8.731  65.752  1.00  0.00    -0.068 C  
HETATM   28  C   UNL     1      -7.247   8.157  67.077  1.00  0.00    -0.083 C  
HETATM   29  C   UNL     1      -8.603   7.478  66.884  1.00  0.00    -0.124 C  
HETATM   30  C   UNL     1      -8.526   6.388  65.808  1.00  0.00    -0.148 C  
HETATM   31  N   UNL     1      -9.839   5.784  65.606  1.00  0.00    -0.359 NA 
HETATM   32  C   UNL     1      -7.999   6.951  64.484  1.00  0.00    -0.106 C  
HETATM   33  C   UNL     1      -6.642   7.635  64.668  1.00  0.00    -0.044 C  
HETATM   34  H2  UNL     1     -10.550   6.483  65.391  1.00  0.00     0.000 HD 
HETATM   35  H1  UNL     1      -9.788   5.060  64.891  1.00  0.00     0.000 HD 
HETATM   36  O   UNL     1      -6.231   8.163  63.408  1.00  0.00    -0.071 OA 
HETATM   37  H   UNL     1      -6.174   7.488  62.741  1.00  0.00     0.000 HD 
ENDBRANCH  26  27
ENDBRANCH  25  26
ENDBRANCH  23  25
ENDBRANCH  22  23
ENDBRANCH  12  22
BRANCH  17  38
HETATM   38  C   UNL     1     -10.246  15.385  65.432  1.00  0.00    -0.408 C  
HETATM   39  C   UNL     1     -10.818  16.187  64.546  1.00  0.00     0.002 C  
ENDBRANCH  17  38
TORSDOF 6
ENDMDL
MODEL      188
REMARK 921   NORMALIZED FREE ENERGY PREDICTED BY IDOCK:   -1.91 KCAL/MOL
REMARK 922        TOTAL FREE ENERGY PREDICTED BY IDOCK:   -3.82 KCAL/MOL
REMARK 923 INTER-LIGAND FREE ENERGY PREDICTED BY IDOCK:   -4.18 KCAL/MOL
REMARK 924 INTRA-LIGAND FREE ENERGY PREDICTED BY IDOCK:    0.36 KCAL/MOL
REMARK 927      BINDING AFFINITY PREDICTED BY RF-SCORE:    0.00 PKD
ROOT
HETATM    1  C   UNL     1      -7.571   9.449  67.770  1.00  0.00    -0.088 C  
HETATM    2  C   UNL     1      -7.975   7.717  66.839  1.00  0.00    -0.112 C  
HETATM    3  C   UNL     1      -9.465   8.094  65.648  1.00  0.00     0.131 C  
HETATM    4  O   UNL     1      -7.407   6.643  66.992  1.00  0.00    -0.079 OA 
HETATM    5  C   UNL     1     -10.016   9.974  66.001  1.00  0.00    -0.334 C  
HETATM    6  C   UNL     1      -8.614  10.708  67.058  1.00  0.00    -0.128 C  
HETATM    7  C   UNL     1      -7.743  11.906  66.632  1.00  0.00     0.018 C  
HETATM    8  C   UNL     1      -6.309  11.927  67.288  1.00  0.00    -0.143 C  
HETATM    9  C   UNL     1      -6.210  11.411  68.745  1.00  0.00    -0.050 C  
HETATM   10  C   UNL     1      -7.017  12.436  69.579  1.00  0.00     0.161 C  
HETATM   11  C   UNL     1      -6.560   9.859  68.879  1.00  0.00    -0.045 C  
HETATM   12  C   UNL     1      -7.241   9.639  70.328  1.00  0.00    -0.135 C  
HETATM   13  C   UNL     1      -5.347   8.929  68.723  1.00  0.00    -0.033 C  
HETATM   14  C   UNL     1      -8.577   8.875  70.349  1.00  0.00    -0.198 C  
HETATM   15  O   UNL     1     -10.958   8.138  67.544  1.00  0.00    -0.509 OA 
HETATM   16  C   UNL     1      -8.375   9.561  66.396  1.00  0.00    -0.120 C  
HETATM   17  C   UNL     1      -9.891   9.409  69.462  1.00  0.00    -0.192 C  
HETATM   18  C   UNL     1      -9.641   8.678  67.840  1.00  0.00    -0.149 C  
HETATM   19  H   UNL     1     -10.826   7.752  66.686  1.00  0.00     0.000 HD 
HETATM   20  C   UNL     1      -6.759   9.303  65.625  1.00  0.00    -0.073 C  
HETATM   21  C   UNL     1     -10.935   9.142  70.603  1.00  0.00    -0.319 C  
ENDROOT
BRANCH  12  22
HETATM   22  O   UNL     1      -6.357   8.942  71.229  1.00  0.00    -0.052 OA 
BRANCH  22  23
HETATM   23  C   UNL     1      -6.523   7.592  71.334  1.00  0.00    -0.035 C  
HETATM   24  O   UNL     1      -5.818   6.746  70.799  1.00  0.00    -0.026 OA 
BRANCH  23  25
HETATM   25  C   UNL     1      -7.630   7.263  72.301  1.00  0.00    -0.084 C  
BRANCH  25  26
HETATM   26  S   UNL     1      -7.204   5.822  73.320  1.00  0.00    -0.087 SA 
BRANCH  26  27
HETATM   27  C   UNL     1      -7.991   4.471  72.356  1.00  0.00    -0.094 C  
HETATM   28  C   UNL     1      -6.953   3.631  71.604  1.00  0.00    -0.031 C  
HETATM   29  C   UNL     1      -7.618   2.441  70.912  1.00  0.00    -0.032 C  
HETATM   30  C   UNL     1      -8.734   2.905  69.969  1.00  0.00    -0.069 C  
HETATM   31  N   UNL     1      -9.387   1.753  69.354  1.00  0.00    -0.115 NA 
HETATM   32  C   UNL     1      -9.769   3.758  70.709  1.00  0.00    -0.235 C  
HETATM   33  C   UNL     1      -9.111   4.952  71.408  1.00  0.00    -0.142 C  
HETATM   34  H2  UNL     1      -9.727   1.091  70.052  1.00  0.00     0.000 HD 
HETATM   35  H1  UNL     1     -10.129   2.061  68.727  1.00  0.00     0.000 HD 
HETATM   36  O   UNL     1     -10.124   5.679  72.103  1.00  0.00    -0.178 OA 
HETATM   37  H   UNL     1     -10.813   5.975  71.519  1.00  0.00     0.000 HD 
ENDBRANCH  26  27
ENDBRANCH  25  26
ENDBRANCH  23  25
ENDBRANCH  22  23
ENDBRANCH  12  22
BRANCH  17  38
HETATM   38  C   UNL     1     -10.724  10.558  68.930  1.00  0.00    -0.253 C  
HETATM   39  C   UNL     1     -11.359  11.654  69.318  1.00  0.00    -0.353 C  
ENDBRANCH  17  38
TORSDOF 6
ENDMDL
MODEL      189
REMARK 921   NORMALIZED FREE ENERGY PREDICTED BY IDOCK:   -1.91 KCAL/MOL
REMARK 922        TOTAL FREE ENERGY PREDICTED BY IDOCK:   -3.81 KCAL/MOL
REMARK 923 INTER-LIGAND FREE ENERGY PREDICTED BY IDOCK:   -2.42 KCAL/MOL
REMARK 924 INTRA-LIGAND FREE ENERGY PREDICTED BY IDOCK:   -1.40 KCAL/MOL
REMARK 927      BINDING AFFINITY PREDICTED BY RF-SCORE:    0.00 PKD
ROOT
HETATM    1  C   UNL     1      -8.494  10.839  68.431  1.00  0.00    -0.137 C  
HETATM    2  C   UNL     1      -6.498  10.987  68.280  1.00  0.00    -0.057 C  
HETATM    3  C   UNL     1      -6.171  12.367  66.950  1.00  0.00     0.175 C  
HETATM    4  O   UNL     1      -5.658  10.340  68.892  1.00  0.00    -0.042 OA 
HETATM    5  C   UNL     1      -7.948  12.897  66.228  1.00  0.00     1.052 C  
HETATM    6  C   UNL     1      -9.214  12.117  67.415  1.00  0.00    -0.182 C  
HETATM    7  C   UNL     1     -10.227  12.919  68.254  1.00  0.00    -0.245 C  
HETATM    8  C   UNL     1     -10.688  12.195  69.577  1.00  0.00     0.170 C  
HETATM    9  C   UNL     1     -10.831  10.655  69.506  1.00  0.00    -0.303 C  
HETATM   10  C   UNL     1     -12.003  10.416  68.522  1.00  0.00     0.292 C  
HETATM   11  C   UNL     1      -9.442   9.913  69.246  1.00  0.00    -0.218 C  
HETATM   12  C   UNL     1      -9.755   8.582  68.385  1.00  0.00    -0.155 C  
HETATM   13  C   UNL     1      -8.683   9.541  70.530  1.00  0.00    -0.247 C  
HETATM   14  C   UNL     1      -8.912   8.373  67.114  1.00  0.00    -0.153 C  
HETATM   15  O   UNL     1      -6.809  10.825  65.206  1.00  0.00    -0.341 OA 
HETATM   16  C   UNL     1      -7.935  12.204  67.822  1.00  0.00    -0.151 C  
HETATM   17  C   UNL     1      -8.873   9.527  65.905  1.00  0.00    -0.193 C  
HETATM   18  C   UNL     1      -7.577  10.655  66.429  1.00  0.00    -0.138 C  
HETATM   19  H   UNL     1      -6.124  11.422  65.483  1.00  0.00     0.000 HD 
HETATM   20  C   UNL     1      -7.580  12.631  69.544  1.00  0.00     0.717 C  
HETATM   21  C   UNL     1      -8.974   8.490  64.732  1.00  0.00     0.127 C  
ENDROOT
BRANCH  12  22
HETATM   22  O   UNL     1      -9.602   7.389  69.180  1.00  0.00    -0.156 OA 
BRANCH  22  23
HETATM   23  C   UNL     1     -10.743   6.716  69.507  1.00  0.00    -0.260 C  
HETATM   24  O   UNL     1     -11.744   7.215  70.004  1.00  0.00    -0.178 OA 
BRANCH  23  25
HETATM   25  C   UNL     1     -10.660   5.278  69.067  1.00  0.00    -0.079 C  
BRANCH  25  26
HETATM   26  S   UNL     1      -8.936   4.763  68.829  1.00  0.00    -0.112 SA 
BRANCH  26  27
HETATM   27  C   UNL     1      -8.554   4.059  70.482  1.00  0.00    -0.070 C  
HETATM   28  C   UNL     1      -9.582   3.003  70.901  1.00  0.00    -0.215 C  
HETATM   29  C   UNL     1      -9.175   2.343  72.219  1.00  0.00    -0.139 C  
HETATM   30  C   UNL     1      -8.984   3.390  73.323  1.00  0.00    -0.093 C  
HETATM   31  N   UNL     1      -8.551   2.745  74.559  1.00  0.00    -0.071 NA 
HETATM   32  C   UNL     1      -7.968   4.458  72.906  1.00  0.00    -0.091 C  
HETATM   33  C   UNL     1      -8.367   5.122  71.585  1.00  0.00    -0.117 C  
HETATM   34  H2  UNL     1      -7.713   2.180  74.421  1.00  0.00     0.000 HD 
HETATM   35  H1  UNL     1      -8.423   3.441  75.293  1.00  0.00     0.000 HD 
HETATM   36  O   UNL     1      -7.363   6.077  71.242  1.00  0.00    -0.077 OA 
HETATM   37  H   UNL     1      -7.248   6.732  71.922  1.00  0.00     0.000 HD 
ENDBRANCH  26  27
ENDBRANCH  25  26
ENDBRANCH  23  25
ENDBRANCH  22  23
ENDBRANCH  12  22
BRANCH  17  38
HETATM   38  C   UNL     1      -9.593  10.574  65.079  1.00  0.00    -0.331 C  
HETATM   39  C   UNL     1      -9.930  10.870  63.832  1.00  0.00    -0.400 C  
ENDBRANCH  17  38
TORSDOF 6
ENDMDL
MODEL      190
REMARK 921   NORMALIZED FREE ENERGY PREDICTED BY IDOCK:   -1.79 KCAL/MOL
REMARK 922        TOTAL FREE ENERGY PREDICTED BY IDOCK:   -3.66 KCAL/MOL
REMARK 923 INTER-LIGAND FREE ENERGY PREDICTED BY IDOCK:   -3.79 KCAL/MOL
REMARK 924 INTRA-LIGAND FREE ENERGY PREDICTED BY IDOCK:    0.13 KCAL/MOL
REMARK 927      BINDING AFFINITY PREDICTED BY RF-SCORE:    0.00 PKD
ROOT
HETATM    1  C   UNL     1      -8.314   8.782  65.425  1.00  0.00    -0.159 C  
HETATM    2  C   UNL     1      -9.989   9.308  66.398  1.00  0.00    -0.286 C  
HETATM    3  C   UNL     1      -9.778  11.193  66.828  1.00  0.00    -0.220 C  
HETATM    4  O   UNL     1     -10.944   8.592  66.672  1.00  0.00     0.071 OA 
HETATM    5  C   UNL     1      -7.943  11.708  66.253  1.00  0.00     0.082 C  
HETATM    6  C   UNL     1      -7.335  10.254  65.186  1.00  0.00    -0.127 C  
HETATM    7  C   UNL     1      -6.951  10.371  63.699  1.00  0.00     0.001 C  
HETATM    8  C   UNL     1      -7.115   9.031  62.882  1.00  0.00    -0.091 C  
HETATM    9  C   UNL     1      -6.787   7.719  63.638  1.00  0.00    -0.063 C  
HETATM   10  C   UNL     1      -5.267   7.800  63.923  1.00  0.00    -0.037 C  
HETATM   11  C   UNL     1      -7.786   7.436  64.851  1.00  0.00    -0.113 C  
HETATM   12  C   UNL     1      -6.951   6.660  65.996  1.00  0.00    -0.061 C  
HETATM   13  C   UNL     1      -9.027   6.617  64.460  1.00  0.00     0.763 C  
HETATM   14  C   UNL     1      -7.043   7.235  67.421  1.00  0.00    -0.088 C  
HETATM   15  O   UNL     1      -8.210  10.611  68.568  1.00  0.00    -0.114 OA 
HETATM   16  C   UNL     1      -8.653  10.341  65.447  1.00  0.00    -0.169 C  
HETATM   17  C   UNL     1      -6.617   8.820  67.741  1.00  0.00    -0.061 C  
HETATM   18  C   UNL     1      -8.119   9.746  67.404  1.00  0.00    -0.114 C  
HETATM   19  H   UNL     1      -9.004  11.101  68.390  1.00  0.00     0.000 HD 
HETATM   20  C   UNL     1      -9.843   9.929  64.148  1.00  0.00     0.079 C  
HETATM   21  C   UNL     1      -5.846   8.482  69.066  1.00  0.00    -0.039 C  
ENDROOT
BRANCH  12  22
HETATM   22  O   UNL     1      -7.339   5.274  66.088  1.00  0.00    -0.079 OA 
BRANCH  22  23
HETATM   23  C   UNL     1      -7.644   4.800  67.331  1.00  0.00    -0.086 C  
HETATM   24  O   UNL     1      -6.858   4.258  68.097  1.00  0.00    -0.046 OA 
BRANCH  23  25
HETATM   25  C   UNL     1      -9.065   5.139  67.698  1.00  0.00    -0.111 C  
BRANCH  25  26
HETATM   26  S   UNL     1      -9.579   4.265  69.205  1.00  0.00    -0.158 SA 
BRANCH  26  27
HETATM   27  C   UNL     1     -10.187   5.666  70.226  1.00  0.00    -0.243 C  
HETATM   28  C   UNL     1     -10.172   5.328  71.721  1.00  0.00    -0.269 C  
HETATM   29  C   UNL     1     -10.562   6.548  72.556  1.00  0.00    -0.240 C  
HETATM   30  C   UNL     1     -11.931   7.092  72.132  1.00  0.00    -0.261 C  
HETATM   31  N   UNL     1     -12.264   8.282  72.908  1.00  0.00    -0.610 NA 
HETATM   32  C   UNL     1     -11.960   7.418  70.635  1.00  0.00    -0.208 C  
HETATM   33  C   UNL     1     -11.568   6.202  69.791  1.00  0.00    -0.131 C  
HETATM   34  H2  UNL     1     -11.535   8.993  72.846  1.00  0.00     0.000 HD 
HETATM   35  H1  UNL     1     -13.174   8.644  72.626  1.00  0.00     0.000 HD 
HETATM   36  O   UNL     1     -11.583   6.587  68.416  1.00  0.00    -0.525 OA 
HETATM   37  H   UNL     1     -12.433   6.917  68.149  1.00  0.00     0.000 HD 
ENDBRANCH  26  27
ENDBRANCH  25  26
ENDBRANCH  23  25
ENDBRANCH  22  23
ENDBRANCH  12  22
BRANCH  17  38
HETATM   38  C   UNL     1      -5.705  10.002  67.480  1.00  0.00    -0.045 C  
HETATM   39  C   UNL     1      -5.142  11.040  68.081  1.00  0.00    -0.036 C  
ENDBRANCH  17  38
TORSDOF 6
ENDMDL
MODEL      191
REMARK 921   NORMALIZED FREE ENERGY PREDICTED BY IDOCK:   -1.76 KCAL/MOL
REMARK 922        TOTAL FREE ENERGY PREDICTED BY IDOCK:   -3.62 KCAL/MOL
REMARK 923 INTER-LIGAND FREE ENERGY PREDICTED BY IDOCK:   -3.38 KCAL/MOL
REMARK 924 INTRA-LIGAND FREE ENERGY PREDICTED BY IDOCK:   -0.24 KCAL/MOL
REMARK 927      BINDING AFFINITY PREDICTED BY RF-SCORE:    0.00 PKD
ROOT
HETATM    1  C   UNL     1      -7.224  10.113  67.711  1.00  0.00    -0.087 C  
HETATM    2  C   UNL     1      -5.910   8.663  67.266  1.00  0.00    -0.043 C  
HETATM    3  C   UNL     1      -5.952   8.490  65.330  1.00  0.00    -0.048 C  
HETATM    4  O   UNL     1      -5.227   8.014  68.049  1.00  0.00    -0.030 OA 
HETATM    5  C   UNL     1      -7.383   9.710  64.679  1.00  0.00    -0.123 C  
HETATM    6  C   UNL     1      -7.821  10.798  66.176  1.00  0.00    -0.155 C  
HETATM    7  C   UNL     1      -7.663  12.331  66.212  1.00  0.00     0.667 C  
HETATM    8  C   UNL     1      -7.450  12.925  67.657  1.00  0.00    -0.148 C  
HETATM    9  C   UNL     1      -8.214  12.227  68.809  1.00  0.00     0.081 C  
HETATM   10  C   UNL     1      -9.709  12.498  68.509  1.00  0.00    -0.133 C  
HETATM   11  C   UNL     1      -7.736  10.722  69.048  1.00  0.00    -0.133 C  
HETATM   12  C   UNL     1      -9.017   9.881  69.560  1.00  0.00    -0.211 C  
HETATM   13  C   UNL     1      -6.582  10.586  70.054  1.00  0.00    -0.144 C  
HETATM   14  C   UNL     1      -9.316   8.567  68.818  1.00  0.00    -0.143 C  
HETATM   15  O   UNL     1      -8.082   7.365  65.485  1.00  0.00    -0.118 OA 
HETATM   16  C   UNL     1      -6.670  10.102  66.215  1.00  0.00    -0.102 C  
HETATM   17  C   UNL     1      -9.569   8.547  67.165  1.00  0.00    -0.232 C  
HETATM   18  C   UNL     1      -7.914   8.413  66.479  1.00  0.00    -0.096 C  
HETATM   19  H   UNL     1      -7.207   7.294  65.122  1.00  0.00     0.000 HD 
HETATM   20  C   UNL     1      -5.196  10.864  66.934  1.00  0.00    -0.056 C  
HETATM   21  C   UNL     1     -10.781   7.552  67.230  1.00  0.00    -0.365 C  
ENDROOT
BRANCH  12  22
HETATM   22  O   UNL     1      -8.906   9.546  70.959  1.00  0.00    -0.246 OA 
BRANCH  22  23
HETATM   23  C   UNL     1      -8.642   8.242  71.260  1.00  0.00    -0.147 C  
HETATM   24  O   UNL     1      -7.528   7.744  71.348  1.00  0.00    -0.072 OA 
BRANCH  23  25
HETATM   25  C   UNL     1      -9.913   7.503  71.593  1.00  0.00    -0.175 C  
BRANCH  25  26
HETATM   26  S   UNL     1      -9.580   6.079  72.670  1.00  0.00    -0.148 SA 
BRANCH  26  27
HETATM   27  C   UNL     1      -9.162   4.795  71.426  1.00  0.00    -0.142 C  
HETATM   28  C   UNL     1      -9.608   5.201  70.017  1.00  0.00    -0.247 C  
HETATM   29  C   UNL     1      -9.138   4.177  68.984  1.00  0.00    -0.187 C  
HETATM   30  C   UNL     1      -9.640   2.771  69.332  1.00  0.00     0.019 C  
HETATM   31  N   UNL     1      -9.144   1.802  68.361  1.00  0.00    -0.132 NA 
HETATM   32  C   UNL     1      -9.212   2.362  70.746  1.00  0.00    -0.199 C  
HETATM   33  C   UNL     1      -9.676   3.384  71.787  1.00  0.00    -0.166 C  
HETATM   34  H2  UNL     1      -8.127   1.833  68.277  1.00  0.00     0.000 HD 
HETATM   35  H1  UNL     1      -9.478   0.867  68.593  1.00  0.00     0.000 HD 
HETATM   36  O   UNL     1      -9.214   2.959  73.069  1.00  0.00    -0.088 OA 
HETATM   37  H   UNL     1      -9.531   2.092  73.292  1.00  0.00     0.000 HD 
ENDBRANCH  26  27
ENDBRANCH  25  26
ENDBRANCH  23  25
ENDBRANCH  22  23
ENDBRANCH  12  22
BRANCH  17  38
HETATM   38  C   UNL     1     -10.142   9.207  65.926  1.00  0.00    -0.118 C  
HETATM   39  C   UNL     1     -10.832  10.267  65.533  1.00  0.00     0.293 C  
ENDBRANCH  17  38
TORSDOF 6
ENDMDL
MODEL      192
REMARK 921   NORMALIZED FREE ENERGY PREDICTED BY IDOCK:   -1.32 KCAL/MOL
REMARK 922        TOTAL FREE ENERGY PREDICTED BY IDOCK:   -3.02 KCAL/MOL
REMARK 923 INTER-LIGAND FREE ENERGY PREDICTED BY IDOCK:   -4.43 KCAL/MOL
REMARK 924 INTRA-LIGAND FREE ENERGY PREDICTED BY IDOCK:    1.40 KCAL/MOL
REMARK 927      BINDING AFFINITY PREDICTED BY RF-SCORE:    0.00 PKD
ROOT
HETATM    1  C   UNL     1      -8.879   9.574  67.957  1.00  0.00    -0.123 C  
HETATM    2  C   UNL     1      -8.894  11.542  67.563  1.00  0.00    -0.155 C  
HETATM    3  C   UNL     1      -9.564  11.710  65.745  1.00  0.00    -0.255 C  
HETATM    4  O   UNL     1      -8.547  12.451  68.307  1.00  0.00    -0.177 OA 
HETATM    5  C   UNL     1      -9.782   9.861  65.044  1.00  0.00    -0.359 C  
HETATM    6  C   UNL     1      -9.618   8.734  66.568  1.00  0.00    -0.302 C  
HETATM    7  C   UNL     1     -10.730   7.796  67.078  1.00  0.00    -0.316 C  
HETATM    8  C   UNL     1     -10.653   7.483  68.622  1.00  0.00    -0.171 C  
HETATM    9  C   UNL     1      -9.235   7.360  69.231  1.00  0.00    -0.147 C  
HETATM   10  C   UNL     1      -8.630   6.100  68.564  1.00  0.00    -0.113 C  
HETATM   11  C   UNL     1      -8.415   8.729  69.178  1.00  0.00    -0.123 C  
HETATM   12  C   UNL     1      -6.853   8.355  69.005  1.00  0.00    -0.056 C  
HETATM   13  C   UNL     1      -8.607   9.620  70.417  1.00  0.00    -0.200 C  
HETATM   14  C   UNL     1      -6.099   9.070  67.869  1.00  0.00    -0.051 C  
HETATM   15  O   UNL     1      -7.442  10.928  64.900  1.00  0.00    -0.349 OA 
HETATM   16  C   UNL     1      -9.837  10.046  66.772  1.00  0.00    -0.251 C  
HETATM   17  C   UNL     1      -6.624   8.968  66.286  1.00  0.00    -0.066 C  
HETATM   18  C   UNL     1      -7.832  10.290  66.147  1.00  0.00    -0.129 C  
HETATM   19  H   UNL     1      -8.081  11.627  64.827  1.00  0.00     0.000 HD 
HETATM   20  C   UNL     1     -10.948  10.564  68.101  1.00  0.00    -0.330 C  
HETATM   21  C   UNL     1      -5.188   8.767  65.685  1.00  0.00    -0.034 C  
ENDROOT
BRANCH  12  22
HETATM   22  O   UNL     1      -6.110   8.608  70.214  1.00  0.00    -0.033 OA 
BRANCH  22  23
HETATM   23  C   UNL     1      -5.879   7.539  71.030  1.00  0.00    -0.035 C  
HETATM   24  O   UNL     1      -5.595   6.408  70.657  1.00  0.00    -0.018 OA 
BRANCH  23  25
HETATM   25  C   UNL     1      -5.901   7.956  72.477  1.00  0.00    -0.041 C  
BRANCH  25  26
HETATM   26  S   UNL     1      -6.731   6.712  73.506  1.00  0.00    -0.076 SA 
BRANCH  26  27
HETATM   27  C   UNL     1      -6.719   5.265  72.376  1.00  0.00    -0.069 C  
HETATM   28  C   UNL     1      -8.016   5.165  71.566  1.00  0.00    -0.113 C  
HETATM   29  C   UNL     1      -7.932   4.030  70.545  1.00  0.00    -0.055 C  
HETATM   30  C   UNL     1      -7.610   2.696  71.229  1.00  0.00    -0.040 C  
HETATM   31  N   UNL     1      -7.488   1.635  70.235  1.00  0.00    -0.036 NA 
HETATM   32  C   UNL     1      -6.322   2.791  72.054  1.00  0.00    -0.014 C  
HETATM   33  C   UNL     1      -6.396   3.928  73.077  1.00  0.00    -0.020 C  
HETATM   34  H2  UNL     1      -6.806   1.867  69.512  1.00  0.00     0.000 HD 
HETATM   35  H1  UNL     1      -7.273   0.748  70.690  1.00  0.00     0.000 HD 
HETATM   36  O   UNL     1      -5.156   3.979  73.781  1.00  0.00    -0.003 OA 
HETATM   37  H   UNL     1      -4.958   3.156  74.213  1.00  0.00     0.000 HD 
ENDBRANCH  26  27
ENDBRANCH  25  26
ENDBRANCH  23  25
ENDBRANCH  22  23
ENDBRANCH  12  22
BRANCH  17  38
HETATM   38  C   UNL     1      -7.237   8.150  65.166  1.00  0.00    -0.072 C  
HETATM   39  C   UNL     1      -7.446   6.900  64.780  1.00  0.00    -0.096 C  
ENDBRANCH  17  38
TORSDOF 6
ENDMDL
MODEL      193
REMARK 921   NORMALIZED FREE ENERGY PREDICTED BY IDOCK:   -0.96 KCAL/MOL
REMARK 922        TOTAL FREE ENERGY PREDICTED BY IDOCK:   -2.53 KCAL/MOL
REMARK 923 INTER-LIGAND FREE ENERGY PREDICTED BY IDOCK:   -1.94 KCAL/MOL
REMARK 924 INTRA-LIGAND FREE ENERGY PREDICTED BY IDOCK:   -0.59 KCAL/MOL
REMARK 927      BINDING AFFINITY PREDICTED BY RF-SCORE:    0.00 PKD
ROOT
HETATM    1  C   UNL     1      -9.371  16.480  67.946  1.00  0.00    -0.216 C  
HETATM    2  C   UNL     1      -8.608  17.996  66.874  1.00  0.00    -0.250 C  
HETATM    3  C   UNL     1     -10.132  18.882  66.055  1.00  0.00    -0.372 C  
HETATM    4  O   UNL     1      -7.427  18.298  66.753  1.00  0.00    -0.204 OA 
HETATM    5  C   UNL     1     -11.738  17.801  66.519  1.00  0.00     2.319 C  
HETATM    6  C   UNL     1     -11.149  16.601  67.873  1.00  0.00    -0.212 C  
HETATM    7  C   UNL     1     -11.718  16.561  69.304  1.00  0.00     0.170 C  
HETATM    8  C   UNL     1     -10.711  16.009  70.385  1.00  0.00    -0.218 C  
HETATM    9  C   UNL     1      -9.762  14.874  69.926  1.00  0.00     0.167 C  
HETATM   10  C   UNL     1     -10.696  13.673  69.639  1.00  0.00     0.218 C  
HETATM   11  C   UNL     1      -8.736  15.342  68.795  1.00  0.00    -0.195 C  
HETATM   12  C   UNL     1      -8.447  14.067  67.845  1.00  0.00    -0.170 C  
HETATM   13  C   UNL     1      -7.413  15.899  69.344  1.00  0.00    -0.213 C  
HETATM   14  C   UNL     1      -8.604  14.291  66.331  1.00  0.00     0.246 C  
HETATM   15  O   UNL     1     -10.339  17.059  64.487  1.00  0.00     0.215 OA 
HETATM   16  C   UNL     1     -10.377  17.667  67.592  1.00  0.00    -0.368 C  
HETATM   17  C   UNL     1     -10.043  14.844  65.685  1.00  0.00    -0.387 C  
HETATM   18  C   UNL     1      -9.913  16.631  65.809  1.00  0.00    -0.243 C  
HETATM   19  H   UNL     1     -10.270  18.005  64.553  1.00  0.00     0.000 HD 
HETATM   20  C   UNL     1      -9.552  18.544  68.942  1.00  0.00    -0.307 C  
HETATM   21  C   UNL     1     -10.027  13.855  64.466  1.00  0.00     0.221 C  
ENDROOT
BRANCH  12  22
HETATM   22  O   UNL     1      -7.117  13.547  68.047  1.00  0.00    -0.095 OA 
BRANCH  22  23
HETATM   23  C   UNL     1      -7.005  12.201  68.240  1.00  0.00    -0.080 C  
HETATM   24  O   UNL     1      -6.769  11.653  69.309  1.00  0.00    -0.101 OA 
BRANCH  23  25
HETATM   25  C   UNL     1      -7.331  11.451  66.975  1.00  0.00    -0.144 C  
BRANCH  25  26
HETATM   26  S   UNL     1      -5.823  11.033  66.054  1.00  0.00    -0.084 SA 
BRANCH  26  27
HETATM   27  C   UNL     1      -6.407   9.598  65.067  1.00  0.00    -0.089 C  
HETATM   28  C   UNL     1      -6.804  10.009  63.645  1.00  0.00    -0.130 C  
HETATM   29  C   UNL     1      -7.166   8.783  62.808  1.00  0.00    -0.097 C  
HETATM   30  C   UNL     1      -8.282   7.970  63.473  1.00  0.00    -0.037 C  
HETATM   31  N   UNL     1      -8.580   6.780  62.682  1.00  0.00    -0.340 NA 
HETATM   32  C   UNL     1      -7.900   7.567  64.901  1.00  0.00    -0.128 C  
HETATM   33  C   UNL     1      -7.533   8.789  65.747  1.00  0.00    -0.085 C  
HETATM   34  H2  UNL     1      -7.747   6.217  62.513  1.00  0.00     0.000 HD 
HETATM   35  H1  UNL     1      -9.323   6.240  63.126  1.00  0.00     0.000 HD 
HETATM   36  O   UNL     1      -7.156   8.338  67.048  1.00  0.00    -0.076 OA 
HETATM   37  H   UNL     1      -7.849   7.840  67.467  1.00  0.00     0.000 HD 
ENDBRANCH  26  27
ENDBRANCH  25  26
ENDBRANCH  23  25
ENDBRANCH  22  23
ENDBRANCH  12  22
BRANCH  17  38
HETATM   38  C   UNL     1     -11.559  14.850  65.695  1.00  0.00    -0.245 C  
HETATM   39  C   UNL     1     -12.604  14.131  66.079  1.00  0.00    -0.407 C  
ENDBRANCH  17  38
TORSDOF 6
ENDMDL
MODEL      194
REMARK 921   NORMALIZED FREE ENERGY PREDICTED BY IDOCK:   -0.51 KCAL/MOL
REMARK 922        TOTAL FREE ENERGY PREDICTED BY IDOCK:   -1.93 KCAL/MOL
REMARK 923 INTER-LIGAND FREE ENERGY PREDICTED BY IDOCK:   -2.72 KCAL/MOL
REMARK 924 INTRA-LIGAND FREE ENERGY PREDICTED BY IDOCK:    0.79 KCAL/MOL
REMARK 927      BINDING AFFINITY PREDICTED BY RF-SCORE:    0.00 PKD
ROOT
HETATM    1  C   UNL     1      -9.490  11.922  67.823  1.00  0.00    -0.184 C  
HETATM    2  C   UNL     1     -10.564  12.942  69.179  1.00  0.00     0.049 C  
HETATM    3  C   UNL     1     -10.351  14.818  68.716  1.00  0.00    -0.248 C  
HETATM    4  O   UNL     1     -11.213  12.481  70.110  1.00  0.00     0.105 OA 
HETATM    5  C   UNL     1      -9.047  14.892  67.214  1.00  0.00    -0.211 C  
HETATM    6  C   UNL     1      -8.873  13.091  66.625  1.00  0.00    -0.083 C  
HETATM    7  C   UNL     1      -9.235  12.602  65.209  1.00  0.00     0.475 C  
HETATM    8  C   UNL     1      -9.634  11.077  65.135  1.00  0.00    -0.281 C  
HETATM    9  C   UNL     1      -8.876  10.119  66.085  1.00  0.00    -0.162 C  
HETATM   10  C   UNL     1      -7.411  10.146  65.582  1.00  0.00    -0.144 C  
HETATM   11  C   UNL     1      -9.168  10.413  67.627  1.00  0.00    -0.157 C  
HETATM   12  C   UNL     1      -7.830  10.043  68.454  1.00  0.00    -0.089 C  
HETATM   13  C   UNL     1     -10.367   9.638  68.194  1.00  0.00    -0.250 C  
HETATM   14  C   UNL     1      -7.304  11.116  69.423  1.00  0.00    -0.062 C  
HETATM   15  O   UNL     1      -8.109  14.775  69.610  1.00  0.00    -0.396 OA 
HETATM   16  C   UNL     1      -9.922  13.402  67.409  1.00  0.00    -0.230 C  
HETATM   17  C   UNL     1      -6.925  12.653  68.886  1.00  0.00    -0.086 C  
HETATM   18  C   UNL     1      -8.489  13.533  68.959  1.00  0.00     0.338 C  
HETATM   19  H   UNL     1      -8.936  15.241  69.648  1.00  0.00     0.000 HD 
HETATM   20  C   UNL     1     -11.534  12.656  67.071  1.00  0.00    -0.406 C  
HETATM   21  C   UNL     1      -5.600  12.761  69.721  1.00  0.00    -0.101 C  
ENDROOT
BRANCH  12  22
HETATM   22  O   UNL     1      -8.003   8.839  69.230  1.00  0.00    -0.104 OA 
BRANCH  22  23
HETATM   23  C   UNL     1      -7.164   8.665  70.292  1.00  0.00    -0.049 C  
HETATM   24  O   UNL     1      -6.417   9.517  70.755  1.00  0.00    -0.078 OA 
BRANCH  23  25
HETATM   25  C   UNL     1      -7.359   7.305  70.909  1.00  0.00    -0.074 C  
BRANCH  25  26
HETATM   26  S   UNL     1      -8.780   6.448  70.172  1.00  0.00    -0.140 SA 
BRANCH  26  27
HETATM   27  C   UNL     1      -9.143   5.201  71.471  1.00  0.00    -0.144 C  
HETATM   28  C   UNL     1      -7.989   4.208  71.645  1.00  0.00    -0.082 C  
HETATM   29  C   UNL     1      -8.260   3.261  72.814  1.00  0.00    -0.080 C  
HETATM   30  C   UNL     1      -9.592   2.525  72.628  1.00  0.00    -0.105 C  
HETATM   31  N   UNL     1      -9.855   1.661  73.775  1.00  0.00    -0.075 NA 
HETATM   32  C   UNL     1     -10.750   3.510  72.439  1.00  0.00     0.072 C  
HETATM   33  C   UNL     1     -10.485   4.465  71.271  1.00  0.00     0.129 C  
HETATM   34  H2  UNL     1      -9.824   2.176  74.655  1.00  0.00     0.000 HD 
HETATM   35  H1  UNL     1     -10.741   1.171  73.652  1.00  0.00     0.000 HD 
HETATM   36  O   UNL     1     -11.584   5.371  71.176  1.00  0.00     0.268 OA 
HETATM   37  H   UNL     1     -12.410   4.918  71.052  1.00  0.00     0.000 HD 
ENDBRANCH  26  27
ENDBRANCH  25  26
ENDBRANCH  23  25
ENDBRANCH  22  23
ENDBRANCH  12  22
BRANCH  17  38
HETATM   38  C   UNL     1      -6.350  13.553  67.809  1.00  0.00    -0.166 C  
HETATM   39  C   UNL     1      -5.548  14.593  67.635  1.00  0.00     0.026 C  
ENDBRANCH  17  38
TORSDOF 6
ENDMDL
MODEL      195
REMARK 921   NORMALIZED FREE ENERGY PREDICTED BY IDOCK:   -0.29 KCAL/MOL
REMARK 922        TOTAL FREE ENERGY PREDICTED BY IDOCK:   -1.62 KCAL/MOL
REMARK 923 INTER-LIGAND FREE ENERGY PREDICTED BY IDOCK:   -0.76 KCAL/MOL
REMARK 924 INTRA-LIGAND FREE ENERGY PREDICTED BY IDOCK:   -0.87 KCAL/MOL
REMARK 927      BINDING AFFINITY PREDICTED BY RF-SCORE:    0.00 PKD
ROOT
HETATM    1  C   UNL     1     -10.957  14.271  67.863  1.00  0.00    -0.278 C  
HETATM    2  C   UNL     1     -11.221  13.812  69.799  1.00  0.00    -0.059 C  
HETATM    3  C   UNL     1     -10.458  15.294  70.801  1.00  0.00     0.054 C  
HETATM    4  O   UNL     1     -11.747  12.806  70.258  1.00  0.00    -0.246 OA 
HETATM    5  C   UNL     1      -9.625  16.515  69.468  1.00  0.00    -0.004 C  
HETATM    6  C   UNL     1     -10.268  15.915  67.781  1.00  0.00    -0.260 C  
HETATM    7  C   UNL     1     -11.115  16.771  66.820  1.00  0.00     0.250 C  
HETATM    8  C   UNL     1     -12.048  15.935  65.862  1.00  0.00     1.266 C  
HETATM    9  C   UNL     1     -11.485  14.583  65.358  1.00  0.00    -0.348 C  
HETATM   10  C   UNL     1     -10.280  14.969  64.464  1.00  0.00     0.404 C  
HETATM   11  C   UNL     1     -11.265  13.525  66.533  1.00  0.00    -0.322 C  
HETATM   12  C   UNL     1      -9.997  12.609  66.132  1.00  0.00    -0.261 C  
HETATM   13  C   UNL     1     -12.488  12.636  66.810  1.00  0.00     0.491 C  
HETATM   14  C   UNL     1      -8.897  12.455  67.197  1.00  0.00    -0.197 C  
HETATM   15  O   UNL     1      -8.242  14.497  70.274  1.00  0.00     0.135 OA 
HETATM   16  C   UNL     1     -10.906  15.493  68.888  1.00  0.00    -0.254 C  
HETATM   17  C   UNL     1      -8.126  13.791  67.842  1.00  0.00    -0.166 C  
HETATM   18  C   UNL     1      -9.194  14.291  69.196  1.00  0.00     0.142 C  
HETATM   19  H   UNL     1      -8.806  14.762  70.991  1.00  0.00     0.000 HD 
HETATM   20  C   UNL     1     -12.710  15.360  68.876  1.00  0.00     0.606 C  
HETATM   21  C   UNL     1      -6.694  13.152  67.792  1.00  0.00    -0.149 C  
ENDROOT
BRANCH  12  22
HETATM   22  O   UNL     1     -10.402  11.274  65.765  1.00  0.00    -0.243 OA 
BRANCH  22  23
HETATM   23  C   UNL     1      -9.444  10.466  65.226  1.00  0.00    -0.237 C  
HETATM   24  O   UNL     1      -8.410  10.846  64.694  1.00  0.00    -0.044 OA 
BRANCH  23  25
HETATM   25  C   UNL     1      -9.767   9.015  65.475  1.00  0.00    -0.014 C  
BRANCH  25  26
HETATM   26  S   UNL     1      -8.378   7.945  65.008  1.00  0.00    -0.054 SA 
BRANCH  26  27
HETATM   27  C   UNL     1      -8.193   6.933  66.530  1.00  0.00    -0.117 C  
HETATM   28  C   UNL     1      -9.352   5.944  66.699  1.00  0.00    -0.156 C  
HETATM   29  C   UNL     1      -9.113   5.031  67.901  1.00  0.00    -0.126 C  
HETATM   30  C   UNL     1      -8.900   5.848  69.181  1.00  0.00    -0.117 C  
HETATM   31  N   UNL     1      -8.628   4.960  70.307  1.00  0.00    -0.093 NA 
HETATM   32  C   UNL     1      -7.753   6.850  69.016  1.00  0.00    -0.110 C  
HETATM   33  C   UNL     1      -7.983   7.768  67.812  1.00  0.00    -0.124 C  
HETATM   34  H2  UNL     1      -7.844   4.335  70.119  1.00  0.00     0.000 HD 
HETATM   35  H1  UNL     1      -8.486   5.504  71.158  1.00  0.00     0.000 HD 
HETATM   36  O   UNL     1      -6.865   8.648  67.699  1.00  0.00    -0.069 OA 
HETATM   37  H   UNL     1      -6.735   9.162  68.488  1.00  0.00     0.000 HD 
ENDBRANCH  26  27
ENDBRANCH  25  26
ENDBRANCH  23  25
ENDBRANCH  22  23
ENDBRANCH  12  22
BRANCH  17  38
HETATM   38  C   UNL     1      -7.544  15.178  67.651  1.00  0.00    -0.194 C  
HETATM   39  C   UNL     1      -6.895  15.926  66.771  1.00  0.00     0.138 C  
ENDBRANCH  17  38
TORSDOF 6
ENDMDL
MODEL      196
REMARK 921   NORMALIZED FREE ENERGY PREDICTED BY IDOCK:   -0.13 KCAL/MOL
REMARK 922        TOTAL FREE ENERGY PREDICTED BY IDOCK:   -1.41 KCAL/MOL
REMARK 923 INTER-LIGAND FREE ENERGY PREDICTED BY IDOCK:   -1.74 KCAL/MOL
REMARK 924 INTRA-LIGAND FREE ENERGY PREDICTED BY IDOCK:    0.34 KCAL/MOL
REMARK 927      BINDING AFFINITY PREDICTED BY RF-SCORE:    0.00 PKD
ROOT
HETATM    1  C   UNL     1      -9.769  12.699  67.115  1.00  0.00    -0.211 C  
HETATM    2  C   UNL     1     -11.336  12.103  66.010  1.00  0.00    -0.358 C  
HETATM    3  C   UNL     1     -12.730  13.423  66.318  1.00  0.00    -0.059 C  
HETATM    4  O   UNL     1     -11.405  11.111  65.295  1.00  0.00    -0.015 OA 
HETATM    5  C   UNL     1     -12.036  14.674  67.702  1.00  0.00    -0.307 C  
HETATM    6  C   UNL     1     -10.180  14.277  67.839  1.00  0.00    -0.237 C  
HETATM    7  C   UNL     1      -9.052  15.281  67.535  1.00  0.00    -0.189 C  
HETATM    8  C   UNL     1      -7.697  14.614  67.082  1.00  0.00    -0.121 C  
HETATM    9  C   UNL     1      -7.335  13.265  67.753  1.00  0.00    -0.147 C  
HETATM   10  C   UNL     1      -7.099  13.618  69.242  1.00  0.00     0.018 C  
HETATM   11  C   UNL     1      -8.361  12.097  67.390  1.00  0.00    -0.174 C  
HETATM   12  C   UNL     1      -8.445  11.110  68.667  1.00  0.00    -0.153 C  
HETATM   13  C   UNL     1      -7.980  11.298  66.133  1.00  0.00    -0.038 C  
HETATM   14  C   UNL     1      -9.855  10.772  69.181  1.00  0.00    -0.194 C  
HETATM   15  O   UNL     1     -13.124  12.483  68.506  1.00  0.00     1.663 OA 
HETATM   16  C   UNL     1     -10.848  13.821  66.762  1.00  0.00    -0.284 C  
HETATM   17  C   UNL     1     -10.917  11.977  69.646  1.00  0.00     0.033 C  
HETATM   18  C   UNL     1     -11.725  12.453  68.114  1.00  0.00    -0.353 C  
HETATM   19  H   UNL     1     -13.552  12.735  67.696  1.00  0.00     0.000 HD 
HETATM   20  C   UNL     1     -10.043  13.847  65.143  1.00  0.00    -0.330 C  
HETATM   21  C   UNL     1     -11.418  11.221  70.927  1.00  0.00     0.435 C  
ENDROOT
BRANCH  12  22
HETATM   22  O   UNL     1      -7.790   9.852  68.408  1.00  0.00    -0.084 OA 
BRANCH  22  23
HETATM   23  C   UNL     1      -6.432   9.880  68.272  1.00  0.00    -0.055 C  
HETATM   24  O   UNL     1      -5.648  10.376  69.070  1.00  0.00    -0.041 OA 
BRANCH  23  25
HETATM   25  C   UNL     1      -6.001   9.109  67.052  1.00  0.00    -0.056 C  
BRANCH  25  26
HETATM   26  S   UNL     1      -7.048   7.647  66.797  1.00  0.00    -0.085 SA 
BRANCH  26  27
HETATM   27  C   UNL     1      -7.603   7.315  68.516  1.00  0.00    -0.118 C  
HETATM   28  C   UNL     1      -6.600   6.441  69.278  1.00  0.00    -0.044 C  
HETATM   29  C   UNL     1      -7.020   6.283  70.739  1.00  0.00    -0.068 C  
HETATM   30  C   UNL     1      -8.438   5.709  70.846  1.00  0.00    -0.125 C  
HETATM   31  N   UNL     1      -8.837   5.609  72.246  1.00  0.00    -0.132 NA 
HETATM   32  C   UNL     1      -9.445   6.568  70.075  1.00  0.00    -0.163 C  
HETATM   33  C   UNL     1      -9.030   6.734  68.610  1.00  0.00    -0.125 C  
HETATM   34  H2  UNL     1      -8.750   6.502  72.732  1.00  0.00     0.000 HD 
HETATM   35  H1  UNL     1      -9.780   5.228  72.317  1.00  0.00     0.000 HD 
HETATM   36  O   UNL     1      -9.991   7.570  67.964  1.00  0.00    -0.159 OA 
HETATM   37  H   UNL     1     -10.869   7.212  68.022  1.00  0.00     0.000 HD 
ENDBRANCH  26  27
ENDBRANCH  25  26
ENDBRANCH  23  25
ENDBRANCH  22  23
ENDBRANCH  12  22
BRANCH  17  38
HETATM   38  C   UNL     1     -11.155  13.318  70.310  1.00  0.00     0.656 C  
HETATM   39  C   UNL     1     -11.912  13.912  71.221  1.00  0.00    -0.124 C  
ENDBRANCH  17  38
TORSDOF 6
ENDMDL
MODEL      197
REMARK 921   NORMALIZED FREE ENERGY PREDICTED BY IDOCK:   -0.05 KCAL/MOL
REMARK 922        TOTAL FREE ENERGY PREDICTED BY IDOCK:   -1.31 KCAL/MOL
REMARK 923 INTER-LIGAND FREE ENERGY PREDICTED BY IDOCK:   -2.20 KCAL/MOL
REMARK 924 INTRA-LIGAND FREE ENERGY PREDICTED BY IDOCK:    0.90 KCAL/MOL
REMARK 927      BINDING AFFINITY PREDICTED BY RF-SCORE:    0.00 PKD
ROOT
HETATM    1  C   UNL     1      -9.386   9.314  67.645  1.00  0.00    -0.146 C  
HETATM    2  C   UNL     1      -9.695  11.290  67.801  1.00  0.00    -0.173 C  
HETATM    3  C   UNL     1     -10.588  11.816  66.155  1.00  0.00    -0.301 C  
HETATM    4  O   UNL     1      -9.381  12.019  68.734  1.00  0.00    -0.091 OA 
HETATM    5  C   UNL     1     -10.652  10.198  64.998  1.00  0.00     0.308 C  
HETATM    6  C   UNL     1     -10.171   8.755  66.142  1.00  0.00    -0.028 C  
HETATM    7  C   UNL     1     -11.088   7.560  66.465  1.00  0.00     1.039 C  
HETATM    8  C   UNL     1     -10.793   6.876  67.856  1.00  0.00    -0.287 C  
HETATM    9  C   UNL     1      -9.309   6.819  68.294  1.00  0.00    -0.124 C  
HETATM   10  C   UNL     1      -8.632   5.880  67.265  1.00  0.00    -0.106 C  
HETATM   11  C   UNL     1      -8.681   8.264  68.550  1.00  0.00    -0.133 C  
HETATM   12  C   UNL     1      -7.115   8.190  68.159  1.00  0.00    -0.082 C  
HETATM   13  C   UNL     1      -8.837   8.766  69.995  1.00  0.00    -0.149 C  
HETATM   14  C   UNL     1      -6.594   9.278  67.204  1.00  0.00    -0.068 C  
HETATM   15  O   UNL     1      -8.498  11.610  64.966  1.00  0.00    -0.180 OA 
HETATM   16  C   UNL     1     -10.528   9.922  66.710  1.00  0.00    -0.261 C  
HETATM   17  C   UNL     1      -7.284   9.508  65.698  1.00  0.00    -0.094 C  
HETATM   18  C   UNL     1      -8.657  10.621  66.019  1.00  0.00    -0.173 C  
HETATM   19  H   UNL     1      -9.225  12.199  65.135  1.00  0.00     0.000 HD 
HETATM   20  C   UNL     1     -11.533   9.905  68.214  1.00  0.00     0.099 C  
HETATM   21  C   UNL     1      -5.914   9.690  64.954  1.00  0.00    -0.081 C  
ENDROOT
BRANCH  12  22
HETATM   22  O   UNL     1      -6.274   8.233  69.329  1.00  0.00    -0.037 OA 
BRANCH  22  23
HETATM   23  C   UNL     1      -5.891   9.468  69.766  1.00  0.00    -0.036 C  
HETATM   24  O   UNL     1      -5.223  10.272  69.129  1.00  0.00    -0.039 OA 
BRANCH  23  25
HETATM   25  C   UNL     1      -6.501   9.771  71.110  1.00  0.00     0.045 C  
BRANCH  25  26
HETATM   26  S   UNL     1      -5.335   9.411  72.455  1.00  0.00    -0.022 SA 
BRANCH  26  27
HETATM   27  C   UNL     1      -5.890   7.732  72.953  1.00  0.00    -0.045 C  
HETATM   28  C   UNL     1      -5.369   6.655  71.995  1.00  0.00    -0.032 C  
HETATM   29  C   UNL     1      -5.737   5.259  72.499  1.00  0.00    -0.018 C  
HETATM   30  C   UNL     1      -7.251   5.127  72.700  1.00  0.00    -0.092 C  
HETATM   31  N   UNL     1      -7.577   3.804  73.224  1.00  0.00    -0.072 NA 
HETATM   32  C   UNL     1      -7.783   6.210  73.645  1.00  0.00    -0.095 C  
HETATM   33  C   UNL     1      -7.416   7.612  73.150  1.00  0.00    -0.098 C  
HETATM   34  H2  UNL     1      -7.059   3.595  74.078  1.00  0.00     0.000 HD 
HETATM   35  H1  UNL     1      -8.584   3.717  73.359  1.00  0.00     0.000 HD 
HETATM   36  O   UNL     1      -7.911   8.563  74.091  1.00  0.00    -0.357 OA 
HETATM   37  H   UNL     1      -8.850   8.489  74.212  1.00  0.00     0.000 HD 
ENDBRANCH  26  27
ENDBRANCH  25  26
ENDBRANCH  23  25
ENDBRANCH  22  23
ENDBRANCH  12  22
BRANCH  17  38
HETATM   38  C   UNL     1      -7.915   8.922  64.451  1.00  0.00    -0.137 C  
HETATM   39  C   UNL     1      -7.706   8.027  63.497  1.00  0.00    -0.140 C  
ENDBRANCH  17  38
TORSDOF 6
ENDMDL
MODEL      198
REMARK 921   NORMALIZED FREE ENERGY PREDICTED BY IDOCK:    0.18 KCAL/MOL
REMARK 922        TOTAL FREE ENERGY PREDICTED BY IDOCK:   -0.99 KCAL/MOL
REMARK 923 INTER-LIGAND FREE ENERGY PREDICTED BY IDOCK:   -0.78 KCAL/MOL
REMARK 924 INTRA-LIGAND FREE ENERGY PREDICTED BY IDOCK:   -0.22 KCAL/MOL
REMARK 927      BINDING AFFINITY PREDICTED BY RF-SCORE:    0.00 PKD
ROOT
HETATM    1  C   UNL     1      -8.846  15.416  67.288  1.00  0.00    -0.212 C  
HETATM    2  C   UNL     1      -8.010  16.842  66.149  1.00  0.00    -0.238 C  
HETATM    3  C   UNL     1      -9.272  18.321  66.146  1.00  0.00    -0.135 C  
HETATM    4  O   UNL     1      -6.933  16.791  65.570  1.00  0.00     0.678 OA 
HETATM    5  C   UNL     1     -10.883  17.700  67.137  1.00  0.00    -0.105 C  
HETATM    6  C   UNL     1     -10.345  16.085  67.988  1.00  0.00    -0.266 C  
HETATM    7  C   UNL     1     -10.330  15.872  69.514  1.00  0.00    -0.277 C  
HETATM    8  C   UNL     1      -9.289  14.794  70.005  1.00  0.00     0.543 C  
HETATM    9  C   UNL     1      -9.072  13.573  69.078  1.00  0.00     0.356 C  
HETATM   10  C   UNL     1     -10.426  12.820  69.097  1.00  0.00     0.086 C  
HETATM   11  C   UNL     1      -8.428  13.968  67.671  1.00  0.00    -0.193 C  
HETATM   12  C   UNL     1      -9.004  12.938  66.567  1.00  0.00    -0.078 C  
HETATM   13  C   UNL     1      -6.891  13.945  67.659  1.00  0.00    -0.193 C  
HETATM   14  C   UNL     1      -9.600  13.561  65.292  1.00  0.00     0.131 C  
HETATM   15  O   UNL     1     -10.701  17.088  64.641  1.00  0.00    -0.712 OA 
HETATM   16  C   UNL     1      -9.385  16.901  67.513  1.00  0.00    -0.232 C  
HETATM   17  C   UNL     1     -10.852  14.665  65.375  1.00  0.00    -0.365 C  
HETATM   18  C   UNL     1     -10.022  16.241  65.609  1.00  0.00    -0.274 C  
HETATM   19  H   UNL     1     -10.262  17.921  64.765  1.00  0.00     0.000 HD 
HETATM   20  C   UNL     1      -7.864  17.129  68.465  1.00  0.00    -0.257 C  
HETATM   21  C   UNL     1     -11.651  14.047  64.174  1.00  0.00    -0.289 C  
ENDROOT
BRANCH  12  22
HETATM   22  O   UNL     1      -7.993  12.005  66.134  1.00  0.00     0.204 OA 
BRANCH  22  23
HETATM   23  C   UNL     1      -8.415  10.938  65.395  1.00  0.00    -0.088 C  
HETATM   24  O   UNL     1      -9.210  10.987  64.466  1.00  0.00    -0.206 OA 
BRANCH  23  25
HETATM   25  C   UNL     1      -7.679   9.686  65.797  1.00  0.00    -0.106 C  
BRANCH  25  26
HETATM   26  S   UNL     1      -7.418   8.594  64.370  1.00  0.00    -0.114 SA 
BRANCH  26  27
HETATM   27  C   UNL     1      -7.571   6.945  65.164  1.00  0.00    -0.102 C  
HETATM   28  C   UNL     1      -8.770   6.882  66.117  1.00  0.00    -0.153 C  
HETATM   29  C   UNL     1      -8.950   5.468  66.668  1.00  0.00    -0.118 C  
HETATM   30  C   UNL     1      -7.674   4.979  67.362  1.00  0.00    -0.092 C  
HETATM   31  N   UNL     1      -7.851   3.612  67.840  1.00  0.00    -0.069 NA 
HETATM   32  C   UNL     1      -6.466   5.053  66.422  1.00  0.00    -0.041 C  
HETATM   33  C   UNL     1      -6.280   6.467  65.863  1.00  0.00    -0.038 C  
HETATM   34  H2  UNL     1      -8.143   2.982  67.093  1.00  0.00     0.000 HD 
HETATM   35  H1  UNL     1      -7.001   3.287  68.302  1.00  0.00     0.000 HD 
HETATM   36  O   UNL     1      -5.164   6.453  64.973  1.00  0.00    -0.019 OA 
HETATM   37  H   UNL     1      -4.369   6.158  65.403  1.00  0.00     0.000 HD 
ENDBRANCH  26  27
ENDBRANCH  25  26
ENDBRANCH  23  25
ENDBRANCH  22  23
ENDBRANCH  12  22
BRANCH  17  38
HETATM   38  C   UNL     1     -12.140  15.129  66.028  1.00  0.00     0.291 C  
HETATM   39  C   UNL     1     -13.145  14.699  66.776  1.00  0.00     1.901 C  
ENDBRANCH  17  38
TORSDOF 6
ENDMDL
MODEL      199
REMARK 921   NORMALIZED FREE ENERGY PREDICTED BY IDOCK:    0.74 KCAL/MOL
REMARK 922        TOTAL FREE ENERGY PREDICTED BY IDOCK:   -0.24 KCAL/MOL
REMARK 923 INTER-LIGAND FREE ENERGY PREDICTED BY IDOCK:   -0.05 KCAL/MOL
REMARK 924 INTRA-LIGAND FREE ENERGY PREDICTED BY IDOCK:   -0.19 KCAL/MOL
REMARK 927      BINDING AFFINITY PREDICTED BY RF-SCORE:    0.00 PKD
ROOT
HETATM    1  C   UNL     1      -8.544   8.950  65.299  1.00  0.00    -0.209 C  
HETATM    2  C   UNL     1     -10.027   8.436  66.551  1.00  0.00    -0.265 C  
HETATM    3  C   UNL     1     -10.147   9.881  67.846  1.00  0.00    -0.210 C  
HETATM    4  O   UNL     1     -10.711   7.421  66.514  1.00  0.00    -0.119 OA 
HETATM    5  C   UNL     1      -8.653  11.134  67.445  1.00  0.00    -0.137 C  
HETATM    6  C   UNL     1      -7.997  10.589  65.744  1.00  0.00    -0.158 C  
HETATM    7  C   UNL     1      -7.998  11.480  64.487  1.00  0.00     1.356 C  
HETATM    8  C   UNL     1      -8.041  10.681  63.128  1.00  0.00    -0.045 C  
HETATM    9  C   UNL     1      -7.268   9.340  63.092  1.00  0.00    -0.095 C  
HETATM   10  C   UNL     1      -5.779   9.742  63.242  1.00  0.00    -0.095 C  
HETATM   11  C   UNL     1      -7.875   8.246  64.084  1.00  0.00    -0.145 C  
HETATM   12  C   UNL     1      -6.651   7.331  64.607  1.00  0.00    -0.043 C  
HETATM   13  C   UNL     1      -8.959   7.360  63.449  1.00  0.00     1.269 C  
HETATM   14  C   UNL     1      -6.541   7.136  66.129  1.00  0.00    -0.052 C  
HETATM   15  O   UNL     1      -8.135   9.081  68.913  1.00  0.00    -0.101 OA 
HETATM   16  C   UNL     1      -9.206  10.140  66.130  1.00  0.00    -0.196 C  
HETATM   17  C   UNL     1      -6.415   8.446  67.160  1.00  0.00    -0.058 C  
HETATM   18  C   UNL     1      -8.121   8.916  67.469  1.00  0.00    -0.109 C  
HETATM   19  H   UNL     1      -9.037   9.330  69.076  1.00  0.00     0.000 HD 
HETATM   20  C   UNL     1     -10.539  10.023  64.912  1.00  0.00     0.667 C  
HETATM   21  C   UNL     1      -5.308   7.796  68.063  1.00  0.00    -0.031 C  
ENDROOT
BRANCH  12  22
HETATM   22  O   UNL     1      -6.690   6.011  64.026  1.00  0.00    -0.036 OA 
BRANCH  22  23
HETATM   23  C   UNL     1      -6.892   4.968  64.882  1.00  0.00    -0.049 C  
HETATM   24  O   UNL     1      -6.015   4.262  65.363  1.00  0.00    -0.022 OA 
BRANCH  23  25
HETATM   25  C   UNL     1      -8.346   4.863  65.262  1.00  0.00    -0.131 C  
BRANCH  25  26
HETATM   26  S   UNL     1      -8.658   3.380  66.262  1.00  0.00    -0.125 SA 
BRANCH  26  27
HETATM   27  C   UNL     1      -8.561   4.080  67.958  1.00  0.00    -0.096 C  
HETATM   28  C   UNL     1      -9.557   5.227  68.157  1.00  0.00    -0.164 C  
HETATM   29  C   UNL     1      -9.547   5.708  69.608  1.00  0.00    -0.197 C  
HETATM   30  C   UNL     1      -8.137   6.127  70.039  1.00  0.00    -0.119 C  
HETATM   31  N   UNL     1      -8.139   6.539  71.439  1.00  0.00    -0.112 NA 
HETATM   32  C   UNL     1      -7.130   4.990  69.830  1.00  0.00    -0.055 C  
HETATM   33  C   UNL     1      -7.136   4.500  68.379  1.00  0.00    -0.056 C  
HETATM   34  H2  UNL     1      -8.525   5.817  72.048  1.00  0.00     0.000 HD 
HETATM   35  H1  UNL     1      -7.201   6.817  71.727  1.00  0.00     0.000 HD 
HETATM   36  O   UNL     1      -6.206   3.424  68.265  1.00  0.00    -0.030 OA 
HETATM   37  H   UNL     1      -5.329   3.683  68.525  1.00  0.00     0.000 HD 
ENDBRANCH  26  27
ENDBRANCH  25  26
ENDBRANCH  23  25
ENDBRANCH  22  23
ENDBRANCH  12  22
BRANCH  17  38
HETATM   38  C   UNL     1      -5.873   9.833  67.446  1.00  0.00    -0.050 C  
HETATM   39  C   UNL     1      -5.373  10.578  68.420  1.00  0.00    -0.033 C  
ENDBRANCH  17  38
TORSDOF 6
ENDMDL
MODEL      200
REMARK 921   NORMALIZED FREE ENERGY PREDICTED BY IDOCK:    0.77 KCAL/MOL
REMARK 922        TOTAL FREE ENERGY PREDICTED BY IDOCK:   -0.19 KCAL/MOL
REMARK 923 INTER-LIGAND FREE ENERGY PREDICTED BY IDOCK:   -0.01 KCAL/MOL
REMARK 924 INTRA-LIGAND FREE ENERGY PREDICTED BY IDOCK:   -0.19 KCAL/MOL
REMARK 927      BINDING AFFINITY PREDICTED BY RF-SCORE:    0.00 PKD
ROOT
HETATM    1  C   UNL     1     -10.613  15.053  67.937  1.00  0.00    -0.259 C  
HETATM    2  C   UNL     1     -11.805  14.376  69.403  1.00  0.00    -0.325 C  
HETATM    3  C   UNL     1     -11.929  15.826  70.693  1.00  0.00    -0.426 C  
HETATM    4  O   UNL     1     -12.339  13.277  69.476  1.00  0.00    -0.216 OA 
HETATM    5  C   UNL     1     -10.701  17.259  70.062  1.00  0.00     0.485 C  
HETATM    6  C   UNL     1     -10.238  16.763  68.284  1.00  0.00    -0.295 C  
HETATM    7  C   UNL     1     -10.551  17.611  67.037  1.00  0.00    -0.254 C  
HETATM    8  C   UNL     1     -10.687  16.777  65.705  1.00  0.00    -0.199 C  
HETATM    9  C   UNL     1      -9.748  15.554  65.560  1.00  0.00    -0.307 C  
HETATM   10  C   UNL     1      -8.325  16.159  65.478  1.00  0.00     1.455 C  
HETATM   11  C   UNL     1     -10.042  14.415  66.638  1.00  0.00    -0.276 C  
HETATM   12  C   UNL     1      -8.638  13.689  66.974  1.00  0.00    -0.159 C  
HETATM   13  C   UNL     1     -11.075  13.372  66.181  1.00  0.00    -0.299 C  
HETATM   14  C   UNL     1      -8.275  13.552  68.463  1.00  0.00    -0.104 C  
HETATM   15  O   UNL     1      -9.688  15.336  71.445  1.00  0.00     0.810 OA 
HETATM   16  C   UNL     1     -11.302  16.164  68.852  1.00  0.00    -0.350 C  
HETATM   17  C   UNL     1      -8.180  14.894  69.455  1.00  0.00    -0.033 C  
HETATM   18  C   UNL     1      -9.869  15.135  70.017  1.00  0.00     0.025 C  
HETATM   19  H   UNL     1     -10.582  15.464  71.743  1.00  0.00     0.000 HD 
HETATM   20  C   UNL     1     -12.772  15.834  67.852  1.00  0.00     1.966 C  
HETATM   21  C   UNL     1      -6.870  14.426  70.182  1.00  0.00     0.012 C  
ENDROOT
BRANCH  12  22
HETATM   22  O   UNL     1      -8.581  12.361  66.414  1.00  0.00    -0.075 OA 
BRANCH  22  23
HETATM   23  C   UNL     1      -7.646  11.514  66.934  1.00  0.00    -0.151 C  
HETATM   24  O   UNL     1      -6.627  11.853  67.522  1.00  0.00    -0.084 OA 
BRANCH  23  25
HETATM   25  C   UNL     1      -8.089  10.080  66.795  1.00  0.00    -0.118 C  
BRANCH  25  26
HETATM   26  S   UNL     1      -6.794   8.937  67.355  1.00  0.00    -0.071 SA 
BRANCH  26  27
HETATM   27  C   UNL     1      -7.637   8.127  68.772  1.00  0.00    -0.105 C  
HETATM   28  C   UNL     1      -7.654   9.026  70.013  1.00  0.00    -0.072 C  
HETATM   29  C   UNL     1      -8.468   8.384  71.136  1.00  0.00    -0.178 C  
HETATM   30  C   UNL     1      -7.931   6.990  71.478  1.00  0.00    -0.103 C  
HETATM   31  N   UNL     1      -8.749   6.375  72.519  1.00  0.00    -0.123 NA 
HETATM   32  C   UNL     1      -7.897   6.088  70.240  1.00  0.00    -0.102 C  
HETATM   33  C   UNL     1      -7.085   6.725  69.108  1.00  0.00    -0.088 C  
HETATM   34  H2  UNL     1      -9.736   6.351  72.264  1.00  0.00     0.000 HD 
HETATM   35  H1  UNL     1      -8.392   5.448  72.747  1.00  0.00     0.000 HD 
HETATM   36  O   UNL     1      -7.125   5.851  67.981  1.00  0.00    -0.070 OA 
HETATM   37  H   UNL     1      -6.785   4.988  68.188  1.00  0.00     0.000 HD 
ENDBRANCH  26  27
ENDBRANCH  25  26
ENDBRANCH  23  25
ENDBRANCH  22  23
ENDBRANCH  12  22
BRANCH  17  38
HETATM   38  C   UNL     1      -7.799  16.349  69.647  1.00  0.00     0.298 C  
HETATM   39  C   UNL     1      -7.002  17.292  69.166  1.00  0.00    -0.215 C  
ENDBRANCH  17  38
TORSDOF 6
ENDMDL
MODEL      201
REMARK 921   NORMALIZED FREE ENERGY PREDICTED BY IDOCK:    1.09 KCAL/MOL
REMARK 922        TOTAL FREE ENERGY PREDICTED BY IDOCK:    0.24 KCAL/MOL
REMARK 923 INTER-LIGAND FREE ENERGY PREDICTED BY IDOCK:    1.26 KCAL/MOL
REMARK 924 INTRA-LIGAND FREE ENERGY PREDICTED BY IDOCK:   -1.02 KCAL/MOL
REMARK 927      BINDING AFFINITY PREDICTED BY RF-SCORE:    0.00 PKD
ROOT
HETATM    1  C   UNL     1      -9.639  16.070  67.785  1.00  0.00    -0.219 C  
HETATM    2  C   UNL     1      -8.877  17.827  67.186  1.00  0.00    -0.246 C  
HETATM    3  C   UNL     1     -10.406  18.984  66.867  1.00  0.00    -0.483 C  
HETATM    4  O   UNL     1      -7.694  18.112  67.042  1.00  0.00    -0.211 OA 
HETATM    5  C   UNL     1     -12.032  17.865  67.125  1.00  0.00     2.827 C  
HETATM    6  C   UNL     1     -11.405  16.267  67.946  1.00  0.00    -0.141 C  
HETATM    7  C   UNL     1     -11.843  15.778  69.340  1.00  0.00    -0.361 C  
HETATM    8  C   UNL     1     -10.781  14.867  70.068  1.00  0.00    -0.165 C  
HETATM    9  C   UNL     1      -9.956  13.916  69.168  1.00  0.00     0.111 C  
HETATM   10  C   UNL     1     -10.991  12.908  68.609  1.00  0.00    -0.295 C  
HETATM   11  C   UNL     1      -9.008  14.694  68.146  1.00  0.00    -0.179 C  
HETATM   12  C   UNL     1      -8.892  13.795  66.809  1.00  0.00    -0.138 C  
HETATM   13  C   UNL     1      -7.606  14.995  68.699  1.00  0.00    -0.128 C  
HETATM   14  C   UNL     1      -9.170  14.510  65.474  1.00  0.00     0.464 C  
HETATM   15  O   UNL     1     -10.876  17.787  64.825  1.00  0.00    -0.702 OA 
HETATM   16  C   UNL     1     -10.592  17.340  67.944  1.00  0.00    -0.384 C  
HETATM   17  C   UNL     1     -10.622  15.292  65.201  1.00  0.00    -0.453 C  
HETATM   18  C   UNL     1     -10.361  16.933  65.883  1.00  0.00    -0.315 C  
HETATM   19  H   UNL     1     -10.738  18.655  65.185  1.00  0.00     0.000 HD 
HETATM   20  C   UNL     1      -9.590  17.696  69.408  1.00  0.00     0.198 C  
HETATM   21  C   UNL     1     -10.783  14.760  63.733  1.00  0.00     2.005 C  
ENDROOT
BRANCH  12  22
HETATM   22  O   UNL     1      -7.587  13.192  66.687  1.00  0.00     0.371 OA 
BRANCH  22  23
HETATM   23  C   UNL     1      -7.545  11.834  66.566  1.00  0.00     0.072 C  
HETATM   24  O   UNL     1      -8.147  11.176  65.727  1.00  0.00    -0.098 OA 
BRANCH  23  25
HETATM   25  C   UNL     1      -6.556  11.242  67.535  1.00  0.00    -0.073 C  
BRANCH  25  26
HETATM   26  S   UNL     1      -6.223   9.499  67.150  1.00  0.00    -0.065 SA 
BRANCH  26  27
HETATM   27  C   UNL     1      -7.638   8.683  67.990  1.00  0.00    -0.098 C  
HETATM   28  C   UNL     1      -8.489   9.687  68.775  1.00  0.00    -0.123 C  
HETATM   29  C   UNL     1      -9.727   9.007  69.359  1.00  0.00    -0.169 C  
HETATM   30  C   UNL     1      -9.338   7.814  70.240  1.00  0.00    -0.156 C  
HETATM   31  N   UNL     1     -10.534   7.151  70.750  1.00  0.00    -0.211 NA 
HETATM   32  C   UNL     1      -8.474   6.811  69.467  1.00  0.00    -0.133 C  
HETATM   33  C   UNL     1      -7.232   7.485  68.875  1.00  0.00    -0.082 C  
HETATM   34  H2  UNL     1     -11.168   6.879  69.999  1.00  0.00     0.000 HD 
HETATM   35  H1  UNL     1     -10.274   6.357  71.335  1.00  0.00     0.000 HD 
HETATM   36  O   UNL     1      -6.496   6.505  68.144  1.00  0.00    -0.044 OA 
HETATM   37  H   UNL     1      -6.246   5.768  68.689  1.00  0.00     0.000 HD 
ENDBRANCH  26  27
ENDBRANCH  25  26
ENDBRANCH  23  25
ENDBRANCH  22  23
ENDBRANCH  12  22
BRANCH  17  38
HETATM   38  C   UNL     1     -12.127  15.345  65.375  1.00  0.00     0.398 C  
HETATM   39  C   UNL     1     -13.215  14.593  65.298  1.00  0.00     0.488 C  
ENDBRANCH  17  38
TORSDOF 6
ENDMDL
MODEL      202
REMARK 921   NORMALIZED FREE ENERGY PREDICTED BY IDOCK:    1.43 KCAL/MOL
REMARK 922        TOTAL FREE ENERGY PREDICTED BY IDOCK:    0.70 KCAL/MOL
REMARK 923 INTER-LIGAND FREE ENERGY PREDICTED BY IDOCK:   -1.68 KCAL/MOL
REMARK 924 INTRA-LIGAND FREE ENERGY PREDICTED BY IDOCK:    2.38 KCAL/MOL
REMARK 927      BINDING AFFINITY PREDICTED BY RF-SCORE:    0.00 PKD
ROOT
HETATM    1  C   UNL     1      -7.689  17.148  67.430  1.00  0.00    -0.191 C  
HETATM    2  C   UNL     1      -8.598  17.943  65.827  1.00  0.00     0.351 C  
HETATM    3  C   UNL     1      -8.123  19.829  65.833  1.00  0.00    -0.263 C  
HETATM    4  O   UNL     1      -9.310  17.365  65.015  1.00  0.00     1.034 OA 
HETATM    5  C   UNL     1      -7.087  20.151  67.502  1.00  0.00    -0.311 C  
HETATM    6  C   UNL     1      -6.675  18.417  68.168  1.00  0.00    -0.226 C  
HETATM    7  C   UNL     1      -5.244  17.876  68.354  1.00  0.00    -0.152 C  
HETATM    8  C   UNL     1      -5.132  16.305  68.276  1.00  0.00    -0.102 C  
HETATM    9  C   UNL     1      -6.318  15.499  68.863  1.00  0.00    -0.108 C  
HETATM   10  C   UNL     1      -6.283  15.801  70.382  1.00  0.00     0.077 C  
HETATM   11  C   UNL     1      -7.680  15.727  68.062  1.00  0.00    -0.136 C  
HETATM   12  C   UNL     1      -8.893  15.608  69.122  1.00  0.00    -0.251 C  
HETATM   13  C   UNL     1      -7.896  14.738  66.905  1.00  0.00     0.045 C  
HETATM   14  C   UNL     1      -9.918  16.755  69.123  1.00  0.00    -0.252 C  
HETATM   15  O   UNL     1      -9.657  20.199  67.659  1.00  0.00    -0.368 OA 
HETATM   16  C   UNL     1      -7.086  18.523  66.891  1.00  0.00    -0.220 C  
HETATM   17  C   UNL     1      -9.441  18.339  69.369  1.00  0.00     0.241 C  
HETATM   18  C   UNL     1      -8.988  18.911  67.727  1.00  0.00    -0.291 C  
HETATM   19  H   UNL     1      -9.418  20.503  66.792  1.00  0.00     0.000 HD 
HETATM   20  C   UNL     1      -6.313  17.492  65.622  1.00  0.00     0.080 C  
HETATM   21  C   UNL     1     -10.633  18.687  70.329  1.00  0.00     1.849 C  
ENDROOT
BRANCH  12  22
HETATM   22  O   UNL     1      -9.642  14.389  68.937  1.00  0.00    -0.198 OA 
BRANCH  22  23
HETATM   23  C   UNL     1     -10.977  14.439  69.213  1.00  0.00    -0.255 C  
HETATM   24  O   UNL     1     -11.669  15.448  69.198  1.00  0.00    -0.311 OA 
BRANCH  23  25
HETATM   25  C   UNL     1     -11.530  13.054  69.427  1.00  0.00    -0.261 C  
BRANCH  25  26
HETATM   26  S   UNL     1     -10.614  11.824  68.455  1.00  0.00    -0.225 SA 
BRANCH  26  27
HETATM   27  C   UNL     1     -10.896  12.451  66.751  1.00  0.00    -0.248 C  
HETATM   28  C   UNL     1     -12.209  13.235  66.644  1.00  0.00    -0.359 C  
HETATM   29  C   UNL     1     -12.359  13.851  65.253  1.00  0.00    -0.485 C  
HETATM   30  C   UNL     1     -12.273  12.777  64.162  1.00  0.00    -0.429 C  
HETATM   31  N   UNL     1     -12.372  13.390  62.841  1.00  0.00    -0.882 NA 
HETATM   32  C   UNL     1     -10.970  11.978  64.271  1.00  0.00    -0.401 C  
HETATM   33  C   UNL     1     -10.809  11.359  65.662  1.00  0.00    -0.218 C  
HETATM   34  H2  UNL     1     -11.677  14.125  62.709  1.00  0.00     0.000 HD 
HETATM   35  H1  UNL     1     -12.314  12.676  62.116  1.00  0.00     0.000 HD 
HETATM   36  O   UNL     1      -9.564  10.663  65.702  1.00  0.00    -0.194 OA 
HETATM   37  H   UNL     1      -9.511   9.991  65.032  1.00  0.00     0.000 HD 
ENDBRANCH  26  27
ENDBRANCH  25  26
ENDBRANCH  23  25
ENDBRANCH  22  23
ENDBRANCH  12  22
BRANCH  17  38
HETATM   38  C   UNL     1      -8.544  19.335  70.077  1.00  0.00     1.111 C  
HETATM   39  C   UNL     1      -7.299  19.504  70.497  1.00  0.00     0.869 C  
ENDBRANCH  17  38
TORSDOF 6
ENDMDL
MODEL      203
REMARK 921   NORMALIZED FREE ENERGY PREDICTED BY IDOCK:    1.69 KCAL/MOL
REMARK 922        TOTAL FREE ENERGY PREDICTED BY IDOCK:    1.05 KCAL/MOL
REMARK 923 INTER-LIGAND FREE ENERGY PREDICTED BY IDOCK:    2.27 KCAL/MOL
REMARK 924 INTRA-LIGAND FREE ENERGY PREDICTED BY IDOCK:   -1.22 KCAL/MOL
REMARK 927      BINDING AFFINITY PREDICTED BY RF-SCORE:    0.00 PKD
ROOT
HETATM    1  C   UNL     1      -9.020  11.530  65.689  1.00  0.00    -0.081 C  
HETATM    2  C   UNL     1      -7.101  11.190  66.168  1.00  0.00     0.003 C  
HETATM    3  C   UNL     1      -6.827   9.280  65.926  1.00  0.00    -0.088 C  
HETATM    4  O   UNL     1      -6.273  12.011  66.544  1.00  0.00    -0.117 OA 
HETATM    5  C   UNL     1      -8.601   8.503  65.466  1.00  0.00    -0.204 C  
HETATM    6  C   UNL     1      -9.709  10.001  65.081  1.00  0.00    -0.380 C  
HETATM    7  C   UNL     1     -10.381  10.256  63.718  1.00  0.00     0.417 C  
HETATM    8  C   UNL     1     -10.675  11.776  63.417  1.00  0.00    -0.468 C  
HETATM    9  C   UNL     1     -11.085  12.651  64.627  1.00  0.00    -0.348 C  
HETATM   10  C   UNL     1     -12.457  12.086  65.072  1.00  0.00     0.087 C  
HETATM   11  C   UNL     1      -9.922  12.797  65.710  1.00  0.00    -0.259 C  
HETATM   12  C   UNL     1     -10.622  12.927  67.160  1.00  0.00    -0.238 C  
HETATM   13  C   UNL     1      -8.989  13.995  65.468  1.00  0.00     1.105 C  
HETATM   14  C   UNL     1     -10.104  11.983  68.260  1.00  0.00    -0.201 C  
HETATM   15  O   UNL     1      -8.056   8.855  67.959  1.00  0.00    -0.105 OA 
HETATM   16  C   UNL     1      -8.377  10.190  65.108  1.00  0.00    -0.163 C  
HETATM   17  C   UNL     1     -10.120  10.325  68.051  1.00  0.00    -0.189 C  
HETATM   18  C   UNL     1      -8.575   9.982  67.202  1.00  0.00    -0.128 C  
HETATM   19  H   UNL     1      -7.239   8.673  67.510  1.00  0.00     0.000 HD 
HETATM   20  C   UNL     1      -7.611  11.285  63.889  1.00  0.00     1.193 C  
HETATM   21  C   UNL     1     -10.631  10.016  69.503  1.00  0.00    -0.267 C  
ENDROOT
BRANCH  12  22
HETATM   22  O   UNL     1     -10.511  14.267  67.684  1.00  0.00    -0.246 OA 
BRANCH  22  23
HETATM   23  C   UNL     1     -11.565  15.104  67.462  1.00  0.00    -0.257 C  
HETATM   24  O   UNL     1     -12.711  14.754  67.212  1.00  0.00     0.423 OA 
BRANCH  23  25
HETATM   25  C   UNL     1     -11.162  16.539  67.680  1.00  0.00    -0.038 C  
BRANCH  25  26
HETATM   26  S   UNL     1     -10.817  16.864  69.433  1.00  0.00    -0.057 SA 
BRANCH  26  27
HETATM   27  C   UNL     1     -11.831  15.557  70.233  1.00  0.00    -0.357 C  
HETATM   28  C   UNL     1     -13.203  16.085  70.663  1.00  0.00     0.831 C  
HETATM   29  C   UNL     1     -14.073  14.953  71.209  1.00  0.00    -0.475 C  
HETATM   30  C   UNL     1     -13.376  14.233  72.369  1.00  0.00    -0.474 C  
HETATM   31  N   UNL     1     -14.201  13.128  72.846  1.00  0.00    -0.396 NA 
HETATM   32  C   UNL     1     -11.996  13.714  71.953  1.00  0.00     0.682 C  
HETATM   33  C   UNL     1     -11.118  14.842  71.401  1.00  0.00     0.197 C  
HETATM   34  H2  UNL     1     -14.449  12.486  72.094  1.00  0.00     0.000 HD 
HETATM   35  H1  UNL     1     -13.737  12.649  73.618  1.00  0.00     0.000 HD 
HETATM   36  O   UNL     1      -9.867  14.283  71.003  1.00  0.00     1.789 OA 
HETATM   37  H   UNL     1      -9.429  13.843  71.722  1.00  0.00     0.000 HD 
ENDBRANCH  26  27
ENDBRANCH  25  26
ENDBRANCH  23  25
ENDBRANCH  22  23
ENDBRANCH  12  22
BRANCH  17  38
HETATM   38  C   UNL     1     -10.810   9.085  67.516  1.00  0.00    -0.130 C  
HETATM   39  C   UNL     1     -11.417   7.976  67.910  1.00  0.00     1.211 C  
ENDBRANCH  17  38
TORSDOF 6
ENDMDL
MODEL      204
REMARK 921   NORMALIZED FREE ENERGY PREDICTED BY IDOCK:    1.80 KCAL/MOL
REMARK 922        TOTAL FREE ENERGY PREDICTED BY IDOCK:    1.19 KCAL/MOL
REMARK 923 INTER-LIGAND FREE ENERGY PREDICTED BY IDOCK:   -0.97 KCAL/MOL
REMARK 924 INTRA-LIGAND FREE ENERGY PREDICTED BY IDOCK:    2.16 KCAL/MOL
REMARK 927      BINDING AFFINITY PREDICTED BY RF-SCORE:    0.00 PKD
ROOT
HETATM    1  C   UNL     1      -9.568  12.320  68.105  1.00  0.00    -0.213 C  
HETATM    2  C   UNL     1     -11.362  11.936  68.919  1.00  0.00    -0.278 C  
HETATM    3  C   UNL     1     -12.005  10.325  68.040  1.00  0.00     1.090 C  
HETATM    4  O   UNL     1     -11.938  12.583  69.784  1.00  0.00    -0.314 OA 
HETATM    5  C   UNL     1     -10.676   9.875  66.629  1.00  0.00    -0.116 C  
HETATM    6  C   UNL     1      -9.169  10.975  67.003  1.00  0.00    -0.164 C  
HETATM    7  C   UNL     1      -7.767  10.438  67.347  1.00  0.00    -0.095 C  
HETATM    8  C   UNL     1      -6.896  11.420  68.223  1.00  0.00    -0.069 C  
HETATM    9  C   UNL     1      -7.068  12.932  67.940  1.00  0.00    -0.127 C  
HETATM   10  C   UNL     1      -6.520  13.127  66.504  1.00  0.00     2.205 C  
HETATM   11  C   UNL     1      -8.532  13.466  68.286  1.00  0.00    -0.166 C  
HETATM   12  C   UNL     1      -8.872  14.659  67.251  1.00  0.00    -0.207 C  
HETATM   13  C   UNL     1      -8.689  13.966  69.732  1.00  0.00     1.411 C  
HETATM   14  C   UNL     1     -10.215  14.560  66.507  1.00  0.00    -0.282 C  
HETATM   15  O   UNL     1     -12.490  11.612  66.056  1.00  0.00     0.434 OA 
HETATM   16  C   UNL     1     -10.095  10.821  67.967  1.00  0.00    -0.198 C  
HETATM   17  C   UNL     1     -10.591  13.222  65.578  1.00  0.00    -0.295 C  
HETATM   18  C   UNL     1     -11.300  12.066  66.755  1.00  0.00    -0.339 C  
HETATM   19  H   UNL     1     -12.865  11.000  66.679  1.00  0.00     0.000 HD 
HETATM   20  C   UNL     1      -9.564  10.654  69.688  1.00  0.00     0.024 C  
HETATM   21  C   UNL     1     -11.205  14.052  64.396  1.00  0.00    -0.318 C  
ENDROOT
BRANCH  12  22
HETATM   22  O   UNL     1      -8.857  15.946  67.902  1.00  0.00    -0.177 OA 
BRANCH  22  23
HETATM   23  C   UNL     1      -9.483  16.971  67.254  1.00  0.00    -0.240 C  
HETATM   24  O   UNL     1      -9.421  17.196  66.052  1.00  0.00    -0.450 OA 
BRANCH  23  25
HETATM   25  C   UNL     1     -10.372  17.737  68.199  1.00  0.00    -0.391 C  
BRANCH  25  26
HETATM   26  S   UNL     1      -9.923  17.413  69.928  1.00  0.00     0.841 SA 
BRANCH  26  27
HETATM   27  C   UNL     1     -11.427  16.537  70.517  1.00  0.00     0.016 C  
HETATM   28  C   UNL     1     -11.260  16.022  71.951  1.00  0.00    -0.049 C  
HETATM   29  C   UNL     1     -12.565  15.410  72.461  1.00  0.00    -0.475 C  
HETATM   30  C   UNL     1     -13.050  14.291  71.531  1.00  0.00    -0.343 C  
HETATM   31  N   UNL     1     -14.318  13.751  72.010  1.00  0.00    -0.394 NA 
HETATM   32  C   UNL     1     -13.205  14.793  70.092  1.00  0.00     0.175 C  
HETATM   33  C   UNL     1     -11.903  15.412  69.573  1.00  0.00    -0.349 C  
HETATM   34  H2  UNL     1     -15.022  14.480  72.129  1.00  0.00     0.000 HD 
HETATM   35  H1  UNL     1     -14.641  13.008  71.392  1.00  0.00     0.000 HD 
HETATM   36  O   UNL     1     -12.130  15.886  68.247  1.00  0.00    -0.352 OA 
HETATM   37  H   UNL     1     -12.423  15.194  67.666  1.00  0.00     0.000 HD 
ENDBRANCH  26  27
ENDBRANCH  25  26
ENDBRANCH  23  25
ENDBRANCH  22  23
ENDBRANCH  12  22
BRANCH  17  38
HETATM   38  C   UNL     1     -10.147  12.134  64.620  1.00  0.00    -0.282 C  
HETATM   39  C   UNL     1     -10.241  11.756  63.353  1.00  0.00    -0.482 C  
ENDBRANCH  17  38
TORSDOF 6
ENDMDL
MODEL      205
REMARK 921   NORMALIZED FREE ENERGY PREDICTED BY IDOCK:    1.84 KCAL/MOL
REMARK 922        TOTAL FREE ENERGY PREDICTED BY IDOCK:    1.25 KCAL/MOL
REMARK 923 INTER-LIGAND FREE ENERGY PREDICTED BY IDOCK:   -1.70 KCAL/MOL
REMARK 924 INTRA-LIGAND FREE ENERGY PREDICTED BY IDOCK:    2.95 KCAL/MOL
REMARK 927      BINDING AFFINITY PREDICTED BY RF-SCORE:    0.00 PKD
ROOT
HETATM    1  C   UNL     1      -7.786  17.883  67.161  1.00  0.00    -0.225 C  
HETATM    2  C   UNL     1      -6.892  19.335  66.101  1.00  0.00    -0.230 C  
HETATM    3  C   UNL     1      -6.418  20.712  67.389  1.00  0.00    -0.332 C  
HETATM    4  O   UNL     1      -6.692  19.355  64.893  1.00  0.00    -0.430 OA 
HETATM    5  C   UNL     1      -7.167  20.137  69.141  1.00  0.00    -0.090 C  
HETATM    6  C   UNL     1      -7.678  18.322  68.887  1.00  0.00    -0.223 C  
HETATM    7  C   UNL     1      -7.089  17.136  69.674  1.00  0.00     0.189 C  
HETATM    8  C   UNL     1      -7.140  15.760  68.904  1.00  0.00    -0.139 C  
HETATM    9  C   UNL     1      -8.377  15.519  68.005  1.00  0.00    -0.142 C  
HETATM   10  C   UNL     1      -9.569  15.439  68.991  1.00  0.00    -0.236 C  
HETATM   11  C   UNL     1      -8.460  16.535  66.776  1.00  0.00    -0.273 C  
HETATM   12  C   UNL     1     -10.024  16.792  66.462  1.00  0.00    -0.298 C  
HETATM   13  C   UNL     1      -7.744  16.041  65.508  1.00  0.00     2.905 C  
HETATM   14  C   UNL     1     -10.470  18.261  66.358  1.00  0.00    -0.387 C  
HETATM   15  O   UNL     1      -8.734  21.378  67.517  1.00  0.00    -0.324 OA 
HETATM   16  C   UNL     1      -6.850  18.879  67.984  1.00  0.00    -0.251 C  
HETATM   17  C   UNL     1     -10.224  19.329  67.621  1.00  0.00    -0.507 C  
HETATM   18  C   UNL     1      -8.560  19.945  67.345  1.00  0.00    -0.335 C  
HETATM   19  H   UNL     1      -7.854  21.704  67.372  1.00  0.00     0.000 HD 
HETATM   20  C   UNL     1      -5.492  17.898  67.301  1.00  0.00    -0.143 C  
HETATM   21  C   UNL     1     -11.641  19.994  67.507  1.00  0.00     1.181 C  
ENDROOT
BRANCH  12  22
HETATM   22  O   UNL     1     -10.430  16.152  65.234  1.00  0.00    -0.499 OA 
BRANCH  22  23
HETATM   23  C   UNL     1     -10.350  14.791  65.194  1.00  0.00    -0.410 C  
HETATM   24  O   UNL     1      -9.858  14.134  64.285  1.00  0.00     0.208 OA 
BRANCH  23  25
HETATM   25  C   UNL     1     -10.845  14.188  66.483  1.00  0.00    -0.298 C  
BRANCH  25  26
HETATM   26  S   UNL     1      -9.594  13.099  67.221  1.00  0.00    -0.241 SA 
BRANCH  26  27
HETATM   27  C   UNL     1     -10.656  11.768  67.909  1.00  0.00    -0.201 C  
HETATM   28  C   UNL     1     -10.708  11.817  69.440  1.00  0.00    -0.049 C  
HETATM   29  C   UNL     1     -11.695  10.782  69.982  1.00  0.00    -0.417 C  
HETATM   30  C   UNL     1     -11.341   9.374  69.491  1.00  0.00     0.057 C  
HETATM   31  N   UNL     1     -12.320   8.408  69.980  1.00  0.00     0.272 NA 
HETATM   32  C   UNL     1     -11.272   9.319  67.961  1.00  0.00     0.237 C  
HETATM   33  C   UNL     1     -10.288  10.355  67.410  1.00  0.00    -0.228 C  
HETATM   34  H2  UNL     1     -13.273   8.671  69.729  1.00  0.00     0.000 HD 
HETATM   35  H1  UNL     1     -12.085   7.471  69.653  1.00  0.00     0.000 HD 
HETATM   36  O   UNL     1     -10.301  10.271  65.985  1.00  0.00    -0.237 OA 
HETATM   37  H   UNL     1     -10.074   9.401  65.677  1.00  0.00     0.000 HD 
ENDBRANCH  26  27
ENDBRANCH  25  26
ENDBRANCH  23  25
ENDBRANCH  22  23
ENDBRANCH  12  22
BRANCH  17  38
HETATM   38  C   UNL     1     -10.188  19.597  69.113  1.00  0.00    -0.293 C  
HETATM   39  C   UNL     1     -10.371  20.559  70.005  1.00  0.00     0.687 C  
ENDBRANCH  17  38
TORSDOF 6
ENDMDL
MODEL      206
REMARK 921   NORMALIZED FREE ENERGY PREDICTED BY IDOCK:    1.96 KCAL/MOL
REMARK 922        TOTAL FREE ENERGY PREDICTED BY IDOCK:    1.41 KCAL/MOL
REMARK 923 INTER-LIGAND FREE ENERGY PREDICTED BY IDOCK:   -2.89 KCAL/MOL
REMARK 924 INTRA-LIGAND FREE ENERGY PREDICTED BY IDOCK:    4.30 KCAL/MOL
REMARK 927      BINDING AFFINITY PREDICTED BY RF-SCORE:    0.00 PKD
ROOT
HETATM    1  C   UNL     1      -7.757  17.192  67.376  1.00  0.00    -0.191 C  
HETATM    2  C   UNL     1      -8.761  17.967  65.821  1.00  0.00     0.404 C  
HETATM    3  C   UNL     1      -8.080  19.775  65.601  1.00  0.00     0.010 C  
HETATM    4  O   UNL     1      -9.629  17.420  65.151  1.00  0.00     0.323 OA 
HETATM    5  C   UNL     1      -6.816  20.095  67.105  1.00  0.00    -0.272 C  
HETATM    6  C   UNL     1      -6.524  18.380  67.876  1.00  0.00    -0.200 C  
HETATM    7  C   UNL     1      -5.151  17.684  67.948  1.00  0.00    -0.132 C  
HETATM    8  C   UNL     1      -5.227  16.109  68.001  1.00  0.00    -0.123 C  
HETATM    9  C   UNL     1      -6.415  15.503  68.789  1.00  0.00    -0.107 C  
HETATM   10  C   UNL     1      -6.160  15.914  70.260  1.00  0.00    -0.042 C  
HETATM   11  C   UNL     1      -7.831  15.833  68.130  1.00  0.00    -0.133 C  
HETATM   12  C   UNL     1      -8.910  15.946  69.327  1.00  0.00    -0.249 C  
HETATM   13  C   UNL     1      -8.298  14.793  67.099  1.00  0.00    -0.240 C  
HETATM   14  C   UNL     1      -9.791  17.208  69.340  1.00  0.00     0.004 C  
HETATM   15  O   UNL     1      -9.326  20.471  67.548  1.00  0.00    -0.380 OA 
HETATM   16  C   UNL     1      -7.074  18.438  66.649  1.00  0.00    -0.237 C  
HETATM   17  C   UNL     1      -9.112  18.735  69.384  1.00  0.00     0.247 C  
HETATM   18  C   UNL     1      -8.803  19.119  67.657  1.00  0.00    -0.295 C  
HETATM   19  H   UNL     1      -9.162  20.675  66.635  1.00  0.00     0.000 HD 
HETATM   20  C   UNL     1      -6.585  17.225  65.400  1.00  0.00     1.076 C  
HETATM   21  C   UNL     1     -10.129  19.300  70.437  1.00  0.00     1.172 C  
ENDROOT
BRANCH  12  22
HETATM   22  O   UNL     1      -9.808  14.818  69.339  1.00  0.00    -0.168 OA 
BRANCH  22  23
HETATM   23  C   UNL     1     -11.021  14.991  68.739  1.00  0.00    -0.255 C  
HETATM   24  O   UNL     1     -11.402  16.014  68.185  1.00  0.00    -0.342 OA 
BRANCH  23  25
HETATM   25  C   UNL     1     -11.806  13.704  68.739  1.00  0.00    -0.360 C  
BRANCH  25  26
HETATM   26  S   UNL     1     -10.743  12.289  68.337  1.00  0.00    -0.241 SA 
BRANCH  26  27
HETATM   27  C   UNL     1     -11.533  10.967  69.338  1.00  0.00    -0.294 C  
HETATM   28  C   UNL     1     -12.366  11.546  70.487  1.00  0.00    -0.432 C  
HETATM   29  C   UNL     1     -13.113  10.436  71.227  1.00  0.00    -0.494 C  
HETATM   30  C   UNL     1     -12.143   9.365  71.739  1.00  0.00    -0.382 C  
HETATM   31  N   UNL     1     -12.879   8.293  72.402  1.00  0.00    -0.556 NA 
HETATM   32  C   UNL     1     -11.296   8.791  70.599  1.00  0.00    -0.289 C  
HETATM   33  C   UNL     1     -10.546   9.897  69.850  1.00  0.00    -0.273 C  
HETATM   34  H2  UNL     1     -13.600   7.897  71.799  1.00  0.00     0.000 HD 
HETATM   35  H1  UNL     1     -12.234   7.581  72.742  1.00  0.00     0.000 HD 
HETATM   36  O   UNL     1      -9.808   9.297  68.786  1.00  0.00    -0.158 OA 
HETATM   37  H   UNL     1      -9.200   8.638  69.102  1.00  0.00     0.000 HD 
ENDBRANCH  26  27
ENDBRANCH  25  26
ENDBRANCH  23  25
ENDBRANCH  22  23
ENDBRANCH  12  22
BRANCH  17  38
HETATM   38  C   UNL     1      -8.028  19.665  69.893  1.00  0.00     0.598 C  
HETATM   39  C   UNL     1      -7.034  20.436  69.477  1.00  0.00     0.122 C  
ENDBRANCH  17  38
TORSDOF 6
ENDMDL
MODEL      207
REMARK 921   NORMALIZED FREE ENERGY PREDICTED BY IDOCK:    3.54 KCAL/MOL
REMARK 922        TOTAL FREE ENERGY PREDICTED BY IDOCK:    3.54 KCAL/MOL
REMARK 923 INTER-LIGAND FREE ENERGY PREDICTED BY IDOCK:    4.14 KCAL/MOL
REMARK 924 INTRA-LIGAND FREE ENERGY PREDICTED BY IDOCK:   -0.60 KCAL/MOL
REMARK 927      BINDING AFFINITY PREDICTED BY RF-SCORE:    0.00 PKD
ROOT
HETATM    1  C   UNL     1      -9.502  11.065  65.701  1.00  0.00    -0.250 C  
HETATM    2  C   UNL     1      -7.985   9.762  65.867  1.00  0.00    -0.111 C  
HETATM    3  C   UNL     1      -8.783   8.100  66.487  1.00  0.00    -0.160 C  
HETATM    4  O   UNL     1      -6.800   9.969  65.635  1.00  0.00    -0.099 OA 
HETATM    5  C   UNL     1     -10.706   8.483  66.826  1.00  0.00    -0.081 C  
HETATM    6  C   UNL     1     -11.017  10.184  66.033  1.00  0.00     0.317 C  
HETATM    7  C   UNL     1     -12.011  10.438  64.883  1.00  0.00     4.044 C  
HETATM    8  C   UNL     1     -11.653  11.681  63.981  1.00  0.00    -0.371 C  
HETATM    9  C   UNL     1     -11.020  12.896  64.703  1.00  0.00    -0.357 C  
HETATM   10  C   UNL     1     -12.137  13.423  65.638  1.00  0.00    -0.476 C  
HETATM   11  C   UNL     1      -9.584  12.572  65.322  1.00  0.00     0.028 C  
HETATM   12  C   UNL     1      -9.417  13.467  66.657  1.00  0.00    -0.260 C  
HETATM   13  C   UNL     1      -8.414  12.839  64.361  1.00  0.00     3.701 C  
HETATM   14  C   UNL     1      -8.982  12.723  67.932  1.00  0.00    -0.186 C  
HETATM   15  O   UNL     1      -9.025   9.049  68.693  1.00  0.00    -0.136 OA 
HETATM   16  C   UNL     1      -9.899   9.520  65.688  1.00  0.00    -0.343 C  
HETATM   17  C   UNL     1      -9.868  11.435  68.525  1.00  0.00    -0.200 C  
HETATM   18  C   UNL     1      -9.224  10.019  67.628  1.00  0.00    -0.137 C  
HETATM   19  H   UNL     1      -8.685   8.300  68.218  1.00  0.00     0.000 HD 
HETATM   20  C   UNL     1      -9.336   9.563  63.970  1.00  0.00    -0.007 C  
HETATM   21  C   UNL     1      -9.763  11.886  70.025  1.00  0.00     2.406 C  
ENDROOT
BRANCH  12  22
HETATM   22  O   UNL     1      -8.471  14.537  66.463  1.00  0.00    -0.075 OA 
BRANCH  22  23
HETATM   23  C   UNL     1      -8.967  15.722  66.004  1.00  0.00    -0.287 C  
HETATM   24  O   UNL     1     -10.074  15.885  65.507  1.00  0.00    -0.336 OA 
BRANCH  23  25
HETATM   25  C   UNL     1      -8.011  16.850  66.295  1.00  0.00    -0.315 C  
BRANCH  25  26
HETATM   26  S   UNL     1      -8.052  17.308  68.051  1.00  0.00    -0.228 SA 
BRANCH  26  27
HETATM   27  C   UNL     1      -9.516  16.357  68.622  1.00  0.00    -0.239 C  
HETATM   28  C   UNL     1     -10.810  17.166  68.481  1.00  0.00    -0.281 C  
HETATM   29  C   UNL     1     -12.025  16.312  68.843  1.00  0.00     0.088 C  
HETATM   30  C   UNL     1     -11.892  15.735  70.257  1.00  0.00    -0.350 C  
HETATM   31  N   UNL     1     -13.039  14.886  70.565  1.00  0.00    -0.609 NA 
HETATM   32  C   UNL     1     -10.594  14.936  70.411  1.00  0.00     0.012 C  
HETATM   33  C   UNL     1      -9.371  15.783  70.048  1.00  0.00     0.278 C  
HETATM   34  H2  UNL     1     -13.172  14.155  69.866  1.00  0.00     0.000 HD 
HETATM   35  H1  UNL     1     -12.951  14.502  71.505  1.00  0.00     0.000 HD 
HETATM   36  O   UNL     1      -8.206  14.969  70.180  1.00  0.00    -0.297 OA 
HETATM   37  H   UNL     1      -8.117  14.616  71.058  1.00  0.00     0.000 HD 
ENDBRANCH  26  27
ENDBRANCH  25  26
ENDBRANCH  23  25
ENDBRANCH  22  23
ENDBRANCH  12  22
BRANCH  17  38
HETATM   38  C   UNL     1     -11.215  10.790  68.785  1.00  0.00    -0.331 C  
HETATM   39  C   UNL     1     -12.040  10.454  69.765  1.00  0.00    -0.208 C  
ENDBRANCH  17  38
TORSDOF 6
ENDMDL
MODEL      208
REMARK 921   NORMALIZED FREE ENERGY PREDICTED BY IDOCK:    7.08 KCAL/MOL
REMARK 922        TOTAL FREE ENERGY PREDICTED BY IDOCK:    8.33 KCAL/MOL
REMARK 923 INTER-LIGAND FREE ENERGY PREDICTED BY IDOCK:    5.98 KCAL/MOL
REMARK 924 INTRA-LIGAND FREE ENERGY PREDICTED BY IDOCK:    2.35 KCAL/MOL
REMARK 927      BINDING AFFINITY PREDICTED BY RF-SCORE:    0.00 PKD
ROOT
HETATM    1  C   UNL     1      -8.006  11.897  67.388  1.00  0.00    -0.162 C  
HETATM    2  C   UNL     1      -7.403  10.577  66.002  1.00  0.00    -0.137 C  
HETATM    3  C   UNL     1      -8.891  10.394  64.764  1.00  0.00    -0.211 C  
HETATM    4  O   UNL     1      -6.325   9.998  65.948  1.00  0.00    -0.078 OA 
HETATM    5  C   UNL     1     -10.390  11.471  65.511  1.00  0.00    -0.322 C  
HETATM    6  C   UNL     1      -9.603  12.518  66.891  1.00  0.00    -0.229 C  
HETATM    7  C   UNL     1      -9.572  14.059  66.902  1.00  0.00    -0.275 C  
HETATM    8  C   UNL     1      -8.373  14.675  67.720  1.00  0.00    -0.168 C  
HETATM    9  C   UNL     1      -7.946  13.911  68.998  1.00  0.00     0.098 C  
HETATM   10  C   UNL     1      -9.157  14.039  69.955  1.00  0.00     1.552 C  
HETATM   11  C   UNL     1      -7.359  12.460  68.686  1.00  0.00    -0.102 C  
HETATM   12  C   UNL     1      -7.743  11.503  69.930  1.00  0.00     1.056 C  
HETATM   13  C   UNL     1      -5.839  12.437  68.456  1.00  0.00    -0.054 C  
HETATM   14  C   UNL     1      -8.417  10.163  69.582  1.00  0.00    -0.172 C  
HETATM   15  O   UNL     1     -10.078   9.074  66.400  1.00  0.00    -0.294 OA 
HETATM   16  C   UNL     1      -8.786  11.934  65.996  1.00  0.00     0.056 C  
HETATM   17  C   UNL     1      -9.836  10.115  68.700  1.00  0.00    -0.170 C  
HETATM   18  C   UNL     1      -9.281  10.136  66.991  1.00  0.00    -0.146 C  
HETATM   19  H   UNL     1      -9.785   9.085  65.496  1.00  0.00     0.000 HD 
HETATM   20  C   UNL     1      -7.335  12.835  65.400  1.00  0.00     5.151 C  
HETATM   21  C   UNL     1     -10.506   9.010  69.590  1.00  0.00    -0.227 C  
ENDROOT
BRANCH  12  22
HETATM   22  O   UNL     1      -6.586  11.184  70.730  1.00  0.00    -0.189 OA 
BRANCH  22  23
HETATM   23  C   UNL     1      -6.588   9.973  71.359  1.00  0.00     0.458 C  
HETATM   24  O   UNL     1      -7.423   9.594  72.169  1.00  0.00     0.388 OA 
BRANCH  23  25
HETATM   25  C   UNL     1      -5.478   9.098  70.837  1.00  0.00    -0.037 C  
BRANCH  25  26
HETATM   26  S   UNL     1      -5.951   8.300  69.277  1.00  0.00    -0.038 SA 
BRANCH  26  27
HETATM   27  C   UNL     1      -7.032   6.949  69.894  1.00  0.00    -0.062 C  
HETATM   28  C   UNL     1      -6.398   6.209  71.077  1.00  0.00    -0.044 C  
HETATM   29  C   UNL     1      -7.367   5.176  71.652  1.00  0.00    -0.083 C  
HETATM   30  C   UNL     1      -7.824   4.189  70.572  1.00  0.00    -0.051 C  
HETATM   31  N   UNL     1      -8.783   3.240  71.129  1.00  0.00    -0.075 NA 
HETATM   32  C   UNL     1      -8.447   4.921  69.378  1.00  0.00    -0.092 C  
HETATM   33  C   UNL     1      -7.484   5.960  68.797  1.00  0.00    -0.086 C  
HETATM   34  H2  UNL     1      -9.571   3.711  71.574  1.00  0.00     0.000 HD 
HETATM   35  H1  UNL     1      -9.088   2.584  70.411  1.00  0.00     0.000 HD 
HETATM   36  O   UNL     1      -8.139   6.624  67.716  1.00  0.00    -0.114 OA 
HETATM   37  H   UNL     1      -8.416   6.015  67.041  1.00  0.00     0.000 HD 
ENDBRANCH  26  27
ENDBRANCH  25  26
ENDBRANCH  23  25
ENDBRANCH  22  23
ENDBRANCH  12  22
BRANCH  17  38
HETATM   38  C   UNL     1     -11.191  10.714  68.376  1.00  0.00    -0.347 C  
HETATM   39  C   UNL     1     -12.060  10.856  67.386  1.00  0.00     1.189 C  
ENDBRANCH  17  38
TORSDOF 6
ENDMDL
MODEL      209
REMARK 921   NORMALIZED FREE ENERGY PREDICTED BY IDOCK:   10.73 KCAL/MOL
REMARK 922        TOTAL FREE ENERGY PREDICTED BY IDOCK:   13.26 KCAL/MOL
REMARK 923 INTER-LIGAND FREE ENERGY PREDICTED BY IDOCK:    9.95 KCAL/MOL
REMARK 924 INTRA-LIGAND FREE ENERGY PREDICTED BY IDOCK:    3.31 KCAL/MOL
REMARK 927      BINDING AFFINITY PREDICTED BY RF-SCORE:    0.00 PKD
ROOT
HETATM    1  C   UNL     1      -8.882   9.768  66.629  1.00  0.00    -0.153 C  
HETATM    2  C   UNL     1      -7.849   8.276  67.485  1.00  0.00    -0.106 C  
HETATM    3  C   UNL     1      -9.158   7.219  68.460  1.00  0.00    -0.136 C  
HETATM    4  O   UNL     1      -6.643   8.074  67.417  1.00  0.00    -0.055 OA 
HETATM    5  C   UNL     1     -10.896   8.176  68.300  1.00  0.00     0.029 C  
HETATM    6  C   UNL     1     -10.614   9.488  66.951  1.00  0.00    -0.241 C  
HETATM    7  C   UNL     1     -11.391   9.547  65.622  1.00  0.00     3.284 C  
HETATM    8  C   UNL     1     -10.604  10.238  64.443  1.00  0.00     0.537 C  
HETATM    9  C   UNL     1      -9.691  11.428  64.828  1.00  0.00    -0.280 C  
HETATM   10  C   UNL     1     -10.666  12.527  65.320  1.00  0.00    -0.318 C  
HETATM   11  C   UNL     1      -8.474  10.999  65.769  1.00  0.00    -0.119 C  
HETATM   12  C   UNL     1      -8.150  12.246  66.743  1.00  0.00    -0.024 C  
HETATM   13  C   UNL     1      -7.207  10.588  65.002  1.00  0.00     0.005 C  
HETATM   14  C   UNL     1      -8.061  11.936  68.248  1.00  0.00    -0.154 C  
HETATM   15  O   UNL     1      -9.274   8.939  70.150  1.00  0.00    -0.161 OA 
HETATM   16  C   UNL     1      -9.726   8.482  67.052  1.00  0.00    -0.266 C  
HETATM   17  C   UNL     1      -9.339  11.227  69.060  1.00  0.00    -0.016 C  
HETATM   18  C   UNL     1      -9.086   9.467  68.809  1.00  0.00    -0.132 C  
HETATM   19  H   UNL     1      -9.141   8.008  70.018  1.00  0.00     0.000 HD 
HETATM   20  C   UNL     1      -9.043   7.748  65.546  1.00  0.00     0.094 C  
HETATM   21  C   UNL     1      -9.221  12.153  70.322  1.00  0.00     4.544 C  
ENDROOT
BRANCH  12  22
HETATM   22  O   UNL     1      -6.911  12.891  66.384  1.00  0.00     0.844 OA 
BRANCH  22  23
HETATM   23  C   UNL     1      -6.860  14.247  66.523  1.00  0.00     2.638 C  
HETATM   24  O   UNL     1      -5.915  14.880  66.977  1.00  0.00    -0.085 OA 
BRANCH  23  25
HETATM   25  C   UNL     1      -8.086  14.892  65.931  1.00  0.00     2.117 C  
BRANCH  25  26
HETATM   26  S   UNL     1      -9.437  14.965  67.142  1.00  0.00    -0.233 SA 
BRANCH  26  27
HETATM   27  C   UNL     1      -9.206  16.659  67.815  1.00  0.00    -0.214 C  
HETATM   28  C   UNL     1      -9.715  17.730  66.844  1.00  0.00    -0.300 C  
HETATM   29  C   UNL     1      -9.628  19.119  67.477  1.00  0.00    -0.373 C  
HETATM   30  C   UNL     1      -8.198  19.429  67.933  1.00  0.00    -0.306 C  
HETATM   31  N   UNL     1      -8.145  20.738  68.576  1.00  0.00     0.590 NA 
HETATM   32  C   UNL     1      -7.675  18.354  68.893  1.00  0.00    -0.233 C  
HETATM   33  C   UNL     1      -7.761  16.959  68.268  1.00  0.00    -0.205 C  
HETATM   34  H2  UNL     1      -8.814  20.814  69.342  1.00  0.00     0.000 HD 
HETATM   35  H1  UNL     1      -7.194  20.944  68.879  1.00  0.00     0.000 HD 
HETATM   36  O   UNL     1      -7.293  16.009  69.225  1.00  0.00    -0.213 OA 
HETATM   37  H   UNL     1      -6.403  16.194  69.503  1.00  0.00     0.000 HD 
ENDBRANCH  26  27
ENDBRANCH  25  26
ENDBRANCH  23  25
ENDBRANCH  22  23
ENDBRANCH  12  22
BRANCH  17  38
HETATM   38  C   UNL     1     -10.834  11.088  69.268  1.00  0.00    -0.285 C  
HETATM   39  C   UNL     1     -11.780  10.184  69.475  1.00  0.00    -0.128 C  
ENDBRANCH  17  38
TORSDOF 6
ENDMDL
MODEL      210
REMARK 921   NORMALIZED FREE ENERGY PREDICTED BY IDOCK:   14.39 KCAL/MOL
REMARK 922        TOTAL FREE ENERGY PREDICTED BY IDOCK:   18.20 KCAL/MOL
REMARK 923 INTER-LIGAND FREE ENERGY PREDICTED BY IDOCK:   14.26 KCAL/MOL
REMARK 924 INTRA-LIGAND FREE ENERGY PREDICTED BY IDOCK:    3.94 KCAL/MOL
REMARK 927      BINDING AFFINITY PREDICTED BY RF-SCORE:    0.00 PKD
ROOT
HETATM    1  C   UNL     1     -10.331  11.773  68.338  1.00  0.00    -0.223 C  
HETATM    2  C   UNL     1     -10.939  10.406  67.000  1.00  0.00    -0.154 C  
HETATM    3  C   UNL     1     -11.505   8.865  68.042  1.00  0.00     1.092 C  
HETATM    4  O   UNL     1     -10.946  10.514  65.781  1.00  0.00     0.033 OA 
HETATM    5  C   UNL     1     -11.083   9.274  69.943  1.00  0.00    -0.200 C  
HETATM    6  C   UNL     1     -10.674  11.133  69.968  1.00  0.00     0.158 C  
HETATM    7  C   UNL     1     -11.465  12.185  70.768  1.00  0.00     0.914 C  
HETATM    8  C   UNL     1     -11.397  13.641  70.166  1.00  0.00     0.006 C  
HETATM    9  C   UNL     1     -10.055  14.053  69.511  1.00  0.00     0.370 C  
HETATM   10  C   UNL     1      -9.042  14.086  70.682  1.00  0.00     3.885 C  
HETATM   11  C   UNL     1      -9.708  13.193  68.213  1.00  0.00    -0.223 C  
HETATM   12  C   UNL     1      -8.099  13.062  68.132  1.00  0.00    -0.155 C  
HETATM   13  C   UNL     1     -10.252  13.789  66.904  1.00  0.00    -0.261 C  
HETATM   14  C   UNL     1      -7.534  11.642  67.949  1.00  0.00    -0.105 C  
HETATM   15  O   UNL     1      -9.194   8.320  68.475  1.00  0.00    -0.137 OA 
HETATM   16  C   UNL     1     -11.308  10.637  68.888  1.00  0.00    -0.337 C  
HETATM   17  C   UNL     1      -7.894  10.424  69.036  1.00  0.00    -0.120 C  
HETATM   18  C   UNL     1      -9.445   9.750  68.429  1.00  0.00    -0.140 C  
HETATM   19  H   UNL     1     -10.014   7.963  68.155  1.00  0.00     0.000 HD 
HETATM   20  C   UNL     1     -12.612  11.613  68.101  1.00  0.00     1.501 C  
HETATM   21  C   UNL     1      -6.431   9.857  69.085  1.00  0.00    -0.048 C  
ENDROOT
BRANCH  12  22
HETATM   22  O   UNL     1      -7.555  13.861  67.062  1.00  0.00    -0.020 OA 
BRANCH  22  23
HETATM   23  C   UNL     1      -6.322  14.408  67.267  1.00  0.00     0.402 C  
HETATM   24  O   UNL     1      -5.282  13.781  67.414  1.00  0.00    -0.337 OA 
BRANCH  23  25
HETATM   25  C   UNL     1      -6.382  15.911  67.172  1.00  0.00    -0.024 C  
BRANCH  25  26
HETATM   26  S   UNL     1      -6.229  16.678  68.810  1.00  0.00    -0.155 SA 
BRANCH  26  27
HETATM   27  C   UNL     1      -7.900  17.414  69.005  1.00  0.00    -0.128 C  
HETATM   28  C   UNL     1      -8.721  16.684  70.074  1.00  0.00     1.500 C  
HETATM   29  C   UNL     1     -10.057  17.390  70.306  1.00  0.00     1.241 C  
HETATM   30  C   UNL     1     -10.849  17.516  69.000  1.00  0.00     0.155 C  
HETATM   31  N   UNL     1     -12.099  18.233  69.234  1.00  0.00     4.714 NA 
HETATM   32  C   UNL     1     -10.030  18.232  67.921  1.00  0.00    -0.359 C  
HETATM   33  C   UNL     1      -8.688  17.533  67.683  1.00  0.00    -0.223 C  
HETATM   34  H2  UNL     1     -11.941  19.140  69.673  1.00  0.00     0.000 HD 
HETATM   35  H1  UNL     1     -12.625  18.317  68.365  1.00  0.00     0.000 HD 
HETATM   36  O   UNL     1      -7.967  18.270  66.696  1.00  0.00    -0.232 OA 
HETATM   37  H   UNL     1      -8.452  18.343  65.882  1.00  0.00     0.000 HD 
ENDBRANCH  26  27
ENDBRANCH  25  26
ENDBRANCH  23  25
ENDBRANCH  22  23
ENDBRANCH  12  22
BRANCH  17  38
HETATM   38  C   UNL     1      -8.142   9.983  70.465  1.00  0.00     0.276 C  
HETATM   39  C   UNL     1      -9.094   9.904  71.383  1.00  0.00     1.601 C  
ENDBRANCH  17  38
TORSDOF 6
ENDMDL
MODEL      211
REMARK 921   NORMALIZED FREE ENERGY PREDICTED BY IDOCK:   14.64 KCAL/MOL
REMARK 922        TOTAL FREE ENERGY PREDICTED BY IDOCK:   18.54 KCAL/MOL
REMARK 923 INTER-LIGAND FREE ENERGY PREDICTED BY IDOCK:   11.26 KCAL/MOL
REMARK 924 INTRA-LIGAND FREE ENERGY PREDICTED BY IDOCK:    7.28 KCAL/MOL
REMARK 927      BINDING AFFINITY PREDICTED BY RF-SCORE:    0.00 PKD
ROOT
HETATM    1  C   UNL     1      -9.044  16.253  67.723  1.00  0.00    -0.195 C  
HETATM    2  C   UNL     1     -10.309  16.065  69.270  1.00  0.00    -0.251 C  
HETATM    3  C   UNL     1      -9.351  16.745  70.820  1.00  0.00     3.714 C  
HETATM    4  O   UNL     1     -11.445  15.610  69.248  1.00  0.00    -0.312 OA 
HETATM    5  C   UNL     1      -7.506  17.172  70.208  1.00  0.00     2.113 C  
HETATM    6  C   UNL     1      -7.589  17.103  68.308  1.00  0.00    -0.224 C  
HETATM    7  C   UNL     1      -7.295  18.298  67.382  1.00  0.00    -0.218 C  
HETATM    8  C   UNL     1      -8.024  18.228  65.985  1.00  0.00    -0.145 C  
HETATM    9  C   UNL     1      -8.182  16.820  65.360  1.00  0.00     1.732 C  
HETATM   10  C   UNL     1      -6.734  16.366  65.048  1.00  0.00     6.455 C  
HETATM   11  C   UNL     1      -9.124  15.861  66.220  1.00  0.00    -0.379 C  
HETATM   12  C   UNL     1      -8.580  14.351  66.034  1.00  0.00     0.853 C  
HETATM   13  C   UNL     1     -10.610  15.934  65.833  1.00  0.00    -0.348 C  
HETATM   14  C   UNL     1      -8.340  13.545  67.323  1.00  0.00    -0.188 C  
HETATM   15  O   UNL     1      -8.015  14.735  70.866  1.00  0.00     0.812 OA 
HETATM   16  C   UNL     1      -8.746  17.176  68.990  1.00  0.00    -0.103 C  
HETATM   17  C   UNL     1      -7.308  14.106  68.513  1.00  0.00    -0.120 C  
HETATM   18  C   UNL     1      -8.350  15.168  69.519  1.00  0.00    -0.151 C  
HETATM   19  H   UNL     1      -8.566  15.297  71.398  1.00  0.00     0.000 HD 
HETATM   20  C   UNL     1     -10.091  18.202  68.347  1.00  0.00    -0.401 C  
HETATM   21  C   UNL     1      -6.639  12.711  68.774  1.00  0.00    -0.089 C  
ENDROOT
BRANCH  12  22
HETATM   22  O   UNL     1      -9.469  13.563  65.217  1.00  0.00     0.093 OA 
BRANCH  22  23
HETATM   23  C   UNL     1      -9.495  12.220  65.453  1.00  0.00     0.028 C  
HETATM   24  O   UNL     1      -9.104  11.355  64.680  1.00  0.00    -0.085 OA 
BRANCH  23  25
HETATM   25  C   UNL     1      -9.963  11.932  66.856  1.00  0.00    -0.200 C  
BRANCH  25  26
HETATM   26  S   UNL     1     -10.085  10.145  67.154  1.00  0.00    -0.221 SA 
BRANCH  26  27
HETATM   27  C   UNL     1      -8.440   9.583  66.560  1.00  0.00    -0.126 C  
HETATM   28  C   UNL     1      -8.251   9.857  65.064  1.00  0.00    -0.143 C  
HETATM   29  C   UNL     1      -6.832   9.497  64.623  1.00  0.00    -0.101 C  
HETATM   30  C   UNL     1      -6.504   8.037  64.957  1.00  0.00    -0.048 C  
HETATM   31  N   UNL     1      -5.132   7.726  64.570  1.00  0.00    -0.029 NA 
HETATM   32  C   UNL     1      -6.705   7.750  66.449  1.00  0.00    -0.054 C  
HETATM   33  C   UNL     1      -8.123   8.111  66.901  1.00  0.00    -0.104 C  
HETATM   34  H2  UNL     1      -4.463   8.373  64.989  1.00  0.00     0.000 HD 
HETATM   35  H1  UNL     1      -4.914   6.756  64.793  1.00  0.00     0.000 HD 
HETATM   36  O   UNL     1      -8.227   7.852  68.301  1.00  0.00    -0.121 OA 
HETATM   37  H   UNL     1      -8.032   6.946  68.510  1.00  0.00     0.000 HD 
ENDBRANCH  26  27
ENDBRANCH  25  26
ENDBRANCH  23  25
ENDBRANCH  22  23
ENDBRANCH  12  22
BRANCH  17  38
HETATM   38  C   UNL     1      -6.029  14.822  68.897  1.00  0.00    -0.085 C  
HETATM   39  C   UNL     1      -5.311  15.900  68.617  1.00  0.00    -0.102 C  
ENDBRANCH  17  38
TORSDOF 6
ENDMDL
MODEL      212
REMARK 921   NORMALIZED FREE ENERGY PREDICTED BY IDOCK:   15.64 KCAL/MOL
REMARK 922        TOTAL FREE ENERGY PREDICTED BY IDOCK:   19.89 KCAL/MOL
REMARK 923 INTER-LIGAND FREE ENERGY PREDICTED BY IDOCK:   17.43 KCAL/MOL
REMARK 924 INTRA-LIGAND FREE ENERGY PREDICTED BY IDOCK:    2.46 KCAL/MOL
REMARK 927      BINDING AFFINITY PREDICTED BY RF-SCORE:    0.00 PKD
ROOT
HETATM    1  C   UNL     1     -10.396  12.642  67.124  1.00  0.00    -0.239 C  
HETATM    2  C   UNL     1     -12.263  13.256  67.531  1.00  0.00    -0.164 C  
HETATM    3  C   UNL     1     -13.426  12.200  66.385  1.00  0.00     6.426 C  
HETATM    4  O   UNL     1     -12.603  14.120  68.330  1.00  0.00     0.069 OA 
HETATM    5  C   UNL     1     -12.240  11.107  65.219  1.00  0.00     1.877 C  
HETATM    6  C   UNL     1     -10.507  11.270  65.989  1.00  0.00    -0.310 C  
HETATM    7  C   UNL     1      -9.688  10.088  66.543  1.00  0.00    -0.254 C  
HETATM    8  C   UNL     1      -8.656  10.487  67.666  1.00  0.00    -0.118 C  
HETATM    9  C   UNL     1      -7.967  11.866  67.511  1.00  0.00    -0.155 C  
HETATM   10  C   UNL     1      -7.098  11.728  66.236  1.00  0.00     0.352 C  
HETATM   11  C   UNL     1      -8.990  13.087  67.619  1.00  0.00    -0.192 C  
HETATM   12  C   UNL     1      -8.439  14.268  66.665  1.00  0.00     0.102 C  
HETATM   13  C   UNL     1      -9.183  13.615  69.050  1.00  0.00     0.300 C  
HETATM   14  C   UNL     1      -9.445  14.870  65.668  1.00  0.00    -0.152 C  
HETATM   15  O   UNL     1     -12.741  13.524  64.486  1.00  0.00    -0.635 OA 
HETATM   16  C   UNL     1     -11.568  11.632  66.734  1.00  0.00    -0.220 C  
HETATM   17  C   UNL     1     -10.236  13.908  64.552  1.00  0.00    -0.143 C  
HETATM   18  C   UNL     1     -11.672  13.304  65.446  1.00  0.00    -0.343 C  
HETATM   19  H   UNL     1     -13.501  13.205  64.958  1.00  0.00     0.000 HD 
HETATM   20  C   UNL     1     -11.587  11.238  68.500  1.00  0.00    -0.384 C  
HETATM   21  C   UNL     1     -10.066  14.920  63.364  1.00  0.00     6.671 C  
ENDROOT
BRANCH  12  22
HETATM   22  O   UNL     1      -7.915  15.370  67.434  1.00  0.00    -0.155 OA 
BRANCH  22  23
HETATM   23  C   UNL     1      -8.040  16.615  66.890  1.00  0.00    -0.214 C  
HETATM   24  O   UNL     1      -7.929  16.886  65.702  1.00  0.00    -0.243 OA 
BRANCH  23  25
HETATM   25  C   UNL     1      -8.454  17.616  67.938  1.00  0.00    -0.233 C  
BRANCH  25  26
HETATM   26  S   UNL     1      -8.410  16.883  69.598  1.00  0.00     0.995 SA 
BRANCH  26  27
HETATM   27  C   UNL     1     -10.098  16.166  69.705  1.00  0.00    -0.162 C  
HETATM   28  C   UNL     1     -11.162  17.139  69.186  1.00  0.00     0.374 C  
HETATM   29  C   UNL     1     -12.539  16.475  69.168  1.00  0.00     1.902 C  
HETATM   30  C   UNL     1     -12.914  15.944  70.556  1.00  0.00     0.221 C  
HETATM   31  N   UNL     1     -14.210  15.274  70.508  1.00  0.00    -0.398 NA 
HETATM   32  C   UNL     1     -11.847  14.982  71.090  1.00  0.00    -0.382 C  
HETATM   33  C   UNL     1     -10.464  15.638  71.109  1.00  0.00     0.517 C  
HETATM   34  H2  UNL     1     -14.233  14.539  69.800  1.00  0.00     0.000 HD 
HETATM   35  H1  UNL     1     -14.459  14.920  71.431  1.00  0.00     0.000 HD 
HETATM   36  O   UNL     1      -9.519  14.678  71.582  1.00  0.00     2.521 OA 
HETATM   37  H   UNL     1      -9.744  14.353  72.446  1.00  0.00     0.000 HD 
ENDBRANCH  26  27
ENDBRANCH  25  26
ENDBRANCH  23  25
ENDBRANCH  22  23
ENDBRANCH  12  22
BRANCH  17  38
HETATM   38  C   UNL     1     -10.210  12.735  63.592  1.00  0.00    -0.044 C  
HETATM   39  C   UNL     1      -9.377  11.957  62.917  1.00  0.00     0.246 C  
ENDBRANCH  17  38
TORSDOF 6
ENDMDL
MODEL      213
REMARK 921   NORMALIZED FREE ENERGY PREDICTED BY IDOCK:   21.28 KCAL/MOL
REMARK 922        TOTAL FREE ENERGY PREDICTED BY IDOCK:   27.50 KCAL/MOL
REMARK 923 INTER-LIGAND FREE ENERGY PREDICTED BY IDOCK:   21.13 KCAL/MOL
REMARK 924 INTRA-LIGAND FREE ENERGY PREDICTED BY IDOCK:    6.37 KCAL/MOL
REMARK 927      BINDING AFFINITY PREDICTED BY RF-SCORE:    0.00 PKD
ROOT
HETATM    1  C   UNL     1      -8.656  16.649  68.038  1.00  0.00    -0.193 C  
HETATM    2  C   UNL     1      -7.876  17.587  66.444  1.00  0.00    -0.294 C  
HETATM    3  C   UNL     1      -7.827  19.473  66.914  1.00  0.00    -0.289 C  
HETATM    4  O   UNL     1      -7.512  17.080  65.390  1.00  0.00     0.379 OA 
HETATM    5  C   UNL     1      -8.712  19.642  68.689  1.00  0.00    -0.317 C  
HETATM    6  C   UNL     1      -8.870  17.858  69.332  1.00  0.00     0.475 C  
HETATM    7  C   UNL     1      -8.209  17.339  70.623  1.00  0.00     4.694 C  
HETATM    8  C   UNL     1      -7.919  15.789  70.622  1.00  0.00     2.087 C  
HETATM    9  C   UNL     1      -8.958  14.893  69.903  1.00  0.00     0.346 C  
HETATM   10  C   UNL     1     -10.247  15.031  70.750  1.00  0.00     0.494 C  
HETATM   11  C   UNL     1      -9.033  15.168  68.332  1.00  0.00    -0.183 C  
HETATM   12  C   UNL     1     -10.556  14.904  67.865  1.00  0.00    -0.254 C  
HETATM   13  C   UNL     1      -8.071  14.305  67.500  1.00  0.00    -0.200 C  
HETATM   14  C   UNL     1     -11.223  16.017  67.037  1.00  0.00     0.033 C  
HETATM   15  O   UNL     1     -10.217  19.604  66.599  1.00  0.00    -0.391 OA 
HETATM   16  C   UNL     1      -8.027  18.090  68.309  1.00  0.00    -0.294 C  
HETATM   17  C   UNL     1     -11.342  17.577  67.626  1.00  0.00     0.445 C  
HETATM   18  C   UNL     1      -9.782  18.334  67.157  1.00  0.00    -0.304 C  
HETATM   19  H   UNL     1      -9.392  20.005  66.351  1.00  0.00     0.000 HD 
HETATM   20  C   UNL     1      -6.441  17.222  68.253  1.00  0.00    -0.166 C  
HETATM   21  C   UNL     1     -12.820  17.787  67.139  1.00  0.00     6.831 C  
ENDROOT
BRANCH  12  22
HETATM   22  O   UNL     1     -10.670  13.692  67.090  1.00  0.00    -0.273 OA 
BRANCH  22  23
HETATM   23  C   UNL     1     -10.122  12.564  67.628  1.00  0.00    -0.217 C  
HETATM   24  O   UNL     1      -9.511  11.705  67.006  1.00  0.00    -0.178 OA 
BRANCH  23  25
HETATM   25  C   UNL     1     -10.264  12.564  69.128  1.00  0.00     0.253 C  
BRANCH  25  26
HETATM   26  S   UNL     1      -9.827  10.946  69.827  1.00  0.00     0.546 SA 
BRANCH  26  27
HETATM   27  C   UNL     1     -11.378  10.522  70.714  1.00  0.00    -0.208 C  
HETATM   28  C   UNL     1     -11.636  11.468  71.893  1.00  0.00     2.954 C  
HETATM   29  C   UNL     1     -12.991  11.175  72.536  1.00  0.00     0.865 C  
HETATM   30  C   UNL     1     -13.087   9.710  72.978  1.00  0.00     0.934 C  
HETATM   31  N   UNL     1     -14.403   9.440  73.547  1.00  0.00    -0.161 NA 
HETATM   32  C   UNL     1     -12.816   8.757  71.809  1.00  0.00    -0.406 C  
HETATM   33  C   UNL     1     -11.461   9.046  71.157  1.00  0.00    -0.308 C  
HETATM   34  H2  UNL     1     -15.155   9.694  72.906  1.00  0.00     0.000 HD 
HETATM   35  H1  UNL     1     -14.467   8.465  73.841  1.00  0.00     0.000 HD 
HETATM   36  O   UNL     1     -11.291   8.148  70.060  1.00  0.00    -0.435 OA 
HETATM   37  H   UNL     1     -11.342   7.239  70.333  1.00  0.00     0.000 HD 
ENDBRANCH  26  27
ENDBRANCH  25  26
ENDBRANCH  23  25
ENDBRANCH  22  23
ENDBRANCH  12  22
BRANCH  17  38
HETATM   38  C   UNL     1     -11.565  18.515  68.796  1.00  0.00     2.825 C  
HETATM   39  C   UNL     1     -10.920  19.326  69.621  1.00  0.00     2.041 C  
ENDBRANCH  17  38
TORSDOF 6
ENDMDL
MODEL      214
REMARK 921   NORMALIZED FREE ENERGY PREDICTED BY IDOCK:   23.95 KCAL/MOL
REMARK 922        TOTAL FREE ENERGY PREDICTED BY IDOCK:   31.12 KCAL/MOL
REMARK 923 INTER-LIGAND FREE ENERGY PREDICTED BY IDOCK:   31.48 KCAL/MOL
REMARK 924 INTRA-LIGAND FREE ENERGY PREDICTED BY IDOCK:   -0.37 KCAL/MOL
REMARK 927      BINDING AFFINITY PREDICTED BY RF-SCORE:    0.00 PKD
ROOT
HETATM    1  C   UNL     1     -10.391  17.564  69.270  1.00  0.00    -0.160 C  
HETATM    2  C   UNL     1      -9.663  19.433  69.205  1.00  0.00    -0.341 C  
HETATM    3  C   UNL     1     -10.847  20.418  68.018  1.00  0.00     0.230 C  
HETATM    4  O   UNL     1      -8.675  19.865  69.785  1.00  0.00     0.328 OA 
HETATM    5  C   UNL     1     -12.145  19.101  67.283  1.00  0.00     2.743 C  
HETATM    6  C   UNL     1     -11.918  17.540  68.348  1.00  0.00     2.210 C  
HETATM    7  C   UNL     1     -13.025  16.915  69.219  1.00  0.00     4.804 C  
HETATM    8  C   UNL     1     -12.489  16.094  70.454  1.00  0.00     0.262 C  
HETATM    9  C   UNL     1     -11.174  15.305  70.238  1.00  0.00    -0.320 C  
HETATM   10  C   UNL     1     -11.535  14.219  69.195  1.00  0.00    -0.330 C  
HETATM   11  C   UNL     1      -9.919  16.253  69.962  1.00  0.00     0.223 C  
HETATM   12  C   UNL     1      -8.918  15.459  68.974  1.00  0.00    -0.230 C  
HETATM   13  C   UNL     1      -9.170  16.683  71.234  1.00  0.00     5.952 C  
HETATM   14  C   UNL     1      -8.447  16.218  67.720  1.00  0.00    -0.169 C  
HETATM   15  O   UNL     1      -9.856  19.304  66.120  1.00  0.00    -0.370 OA 
HETATM   16  C   UNL     1     -11.412  18.699  68.807  1.00  0.00     2.403 C  
HETATM   17  C   UNL     1      -9.545  16.839  66.623  1.00  0.00    -0.274 C  
HETATM   18  C   UNL     1      -9.958  18.453  67.293  1.00  0.00    -0.335 C  
HETATM   19  H   UNL     1     -10.074  20.158  66.474  1.00  0.00     0.000 HD 
HETATM   20  C   UNL     1     -11.527  19.079  70.572  1.00  0.00     6.028 C  
HETATM   21  C   UNL     1      -8.736  16.384  65.357  1.00  0.00     1.219 C  
ENDROOT
BRANCH  12  22
HETATM   22  O   UNL     1      -7.728  15.025  69.662  1.00  0.00    -0.196 OA 
BRANCH  22  23
HETATM   23  C   UNL     1      -7.741  13.761  70.177  1.00  0.00     1.541 C  
HETATM   24  O   UNL     1      -7.869  13.477  71.361  1.00  0.00     4.837 OA 
BRANCH  23  25
HETATM   25  C   UNL     1      -7.694  12.735  69.075  1.00  0.00     0.203 C  
BRANCH  25  26
HETATM   26  S   UNL     1      -6.782  13.360  67.635  1.00  0.00    -0.148 SA 
BRANCH  26  27
HETATM   27  C   UNL     1      -6.807  11.883  66.542  1.00  0.00     0.202 C  
HETATM   28  C   UNL     1      -8.061  11.849  65.662  1.00  0.00     0.833 C  
HETATM   29  C   UNL     1      -7.999  10.683  64.676  1.00  0.00     0.050 C  
HETATM   30  C   UNL     1      -7.810   9.350  65.409  1.00  0.00    -0.104 C  
HETATM   31  N   UNL     1      -7.706   8.256  64.449  1.00  0.00    -0.117 NA 
HETATM   32  C   UNL     1      -6.566   9.380  66.304  1.00  0.00    -0.070 C  
HETATM   33  C   UNL     1      -6.619  10.548  67.293  1.00  0.00    -0.072 C  
HETATM   34  H2  UNL     1      -6.971   8.420  63.761  1.00  0.00     0.000 HD 
HETATM   35  H1  UNL     1      -7.580   7.369  64.937  1.00  0.00     0.000 HD 
HETATM   36  O   UNL     1      -5.419  10.534  68.067  1.00  0.00    -0.038 OA 
HETATM   37  H   UNL     1      -5.303   9.712  68.529  1.00  0.00     0.000 HD 
ENDBRANCH  26  27
ENDBRANCH  25  26
ENDBRANCH  23  25
ENDBRANCH  22  23
ENDBRANCH  12  22
BRANCH  17  38
HETATM   38  C   UNL     1     -10.853  16.702  65.869  1.00  0.00    -0.067 C  
HETATM   39  C   UNL     1     -11.846  15.853  65.646  1.00  0.00     0.758 C  
ENDBRANCH  17  38
TORSDOF 6
ENDMDL
MODEL      215
REMARK 921   NORMALIZED FREE ENERGY PREDICTED BY IDOCK:   35.96 KCAL/MOL
REMARK 922        TOTAL FREE ENERGY PREDICTED BY IDOCK:   47.34 KCAL/MOL
REMARK 923 INTER-LIGAND FREE ENERGY PREDICTED BY IDOCK:   47.68 KCAL/MOL
REMARK 924 INTRA-LIGAND FREE ENERGY PREDICTED BY IDOCK:   -0.34 KCAL/MOL
REMARK 927      BINDING AFFINITY PREDICTED BY RF-SCORE:    0.00 PKD
ROOT
HETATM    1  C   UNL     1      -8.467  15.326  65.826  1.00  0.00     1.165 C  
HETATM    2  C   UNL     1      -7.648  17.018  65.122  1.00  0.00     3.098 C  
HETATM    3  C   UNL     1      -8.794  18.459  65.749  1.00  0.00     0.441 C  
HETATM    4  O   UNL     1      -6.641  17.124  64.434  1.00  0.00     3.536 OA 
HETATM    5  C   UNL     1     -10.338  17.602  66.667  1.00  0.00    -0.333 C  
HETATM    6  C   UNL     1      -9.835  15.779  66.878  1.00  0.00    -0.243 C  
HETATM    7  C   UNL     1      -9.683  15.072  68.238  1.00  0.00    -0.215 C  
HETATM    8  C   UNL     1      -8.678  13.856  68.226  1.00  0.00    -0.183 C  
HETATM    9  C   UNL     1      -8.645  13.004  66.934  1.00  0.00    -0.126 C  
HETATM   10  C   UNL     1     -10.040  12.336  66.868  1.00  0.00    -0.224 C  
HETATM   11  C   UNL     1      -8.118  13.819  65.666  1.00  0.00     3.468 C  
HETATM   12  C   UNL     1      -8.875  13.233  64.364  1.00  0.00     3.490 C  
HETATM   13  C   UNL     1      -6.596  13.747  65.465  1.00  0.00     9.843 C  
HETATM   14  C   UNL     1      -9.548  14.264  63.440  1.00  0.00     7.441 C  
HETATM   15  O   UNL     1     -10.451  17.844  64.105  1.00  0.00     2.564 OA 
HETATM   16  C   UNL     1      -8.872  16.671  66.584  1.00  0.00    -0.280 C  
HETATM   17  C   UNL     1     -10.703  15.322  64.025  1.00  0.00     1.274 C  
HETATM   18  C   UNL     1      -9.742  16.702  64.658  1.00  0.00     2.676 C  
HETATM   19  H   UNL     1      -9.943  18.574  64.440  1.00  0.00     0.000 HD 
HETATM   20  C   UNL     1      -7.250  16.517  67.371  1.00  0.00    -0.178 C  
HETATM   21  C   UNL     1     -11.660  15.165  62.791  1.00  0.00     4.608 C  
ENDROOT
BRANCH  12  22
HETATM   22  O   UNL     1      -7.982  12.462  63.534  1.00  0.00     2.877 OA 
BRANCH  22  23
HETATM   23  C   UNL     1      -7.649  11.216  63.982  1.00  0.00     0.943 C  
HETATM   24  O   UNL     1      -8.438  10.364  64.368  1.00  0.00    -0.172 OA 
BRANCH  23  25
HETATM   25  C   UNL     1      -6.170  10.972  63.829  1.00  0.00     0.679 C  
BRANCH  25  26
HETATM   26  S   UNL     1      -5.848   9.361  63.056  1.00  0.00    -0.090 SA 
BRANCH  26  27
HETATM   27  C   UNL     1      -6.015   8.244  64.505  1.00  0.00    -0.060 C  
HETATM   28  C   UNL     1      -5.179   8.727  65.695  1.00  0.00    -0.034 C  
HETATM   29  C   UNL     1      -5.433   7.854  66.925  1.00  0.00    -0.032 C  
HETATM   30  C   UNL     1      -5.150   6.379  66.621  1.00  0.00    -0.009 C  
HETATM   31  N   UNL     1      -5.442   5.557  67.792  1.00  0.00    -0.011 NA 
HETATM   32  C   UNL     1      -5.971   5.891  65.423  1.00  0.00    -0.025 C  
HETATM   33  C   UNL     1      -5.725   6.761  64.187  1.00  0.00    -0.031 C  
HETATM   34  H2  UNL     1      -6.393   5.702  68.131  1.00  0.00     0.000 HD 
HETATM   35  H1  UNL     1      -5.254   4.576  67.590  1.00  0.00     0.000 HD 
HETATM   36  O   UNL     1      -6.544   6.272  63.124  1.00  0.00    -0.038 OA 
HETATM   37  H   UNL     1      -6.365   5.360  62.928  1.00  0.00     0.000 HD 
ENDBRANCH  26  27
ENDBRANCH  25  26
ENDBRANCH  23  25
ENDBRANCH  22  23
ENDBRANCH  12  22
BRANCH  17  38
HETATM   38  C   UNL     1     -11.882  15.589  64.940  1.00  0.00    -0.028 C  
HETATM   39  C   UNL     1     -13.207  15.596  64.961  1.00  0.00     1.890 C  
ENDBRANCH  17  38
TORSDOF 6
ENDMDL
MODEL      216
REMARK 921   NORMALIZED FREE ENERGY PREDICTED BY IDOCK:   67.82 KCAL/MOL
REMARK 922        TOTAL FREE ENERGY PREDICTED BY IDOCK:   90.38 KCAL/MOL
REMARK 923 INTER-LIGAND FREE ENERGY PREDICTED BY IDOCK:   29.89 KCAL/MOL
REMARK 924 INTRA-LIGAND FREE ENERGY PREDICTED BY IDOCK:   60.48 KCAL/MOL
REMARK 927      BINDING AFFINITY PREDICTED BY RF-SCORE:    0.00 PKD
ROOT
HETATM    1  C   UNL     1      -9.036  11.340  66.733  1.00  0.00    -0.181 C  
HETATM    2  C   UNL     1      -9.615  12.370  65.111  1.00  0.00     0.046 C  
HETATM    3  C   UNL     1     -11.245  13.295  65.627  1.00  0.00    -0.304 C  
HETATM    4  O   UNL     1      -9.062  12.404  64.018  1.00  0.00     0.526 OA 
HETATM    5  C   UNL     1     -11.689  12.685  67.468  1.00  0.00    -0.429 C  
HETATM    6  C   UNL     1     -10.133  11.771  68.073  1.00  0.00    -0.198 C  
HETATM    7  C   UNL     1      -9.297  12.196  69.295  1.00  0.00     0.750 C  
HETATM    8  C   UNL     1      -7.785  11.751  69.229  1.00  0.00     0.217 C  
HETATM    9  C   UNL     1      -7.498  10.380  68.568  1.00  0.00    -0.089 C  
HETATM   10  C   UNL     1      -8.152   9.343  69.515  1.00  0.00    -0.114 C  
HETATM   11  C   UNL     1      -7.870  10.350  67.016  1.00  0.00    -0.112 C  
HETATM   12  C   UNL     1      -8.348   8.848  66.660  1.00  0.00    -0.111 C  
HETATM   13  C   UNL     1      -6.717  10.767  66.089  1.00  0.00    -0.126 C  
HETATM   14  C   UNL     1      -9.689   8.714  65.916  1.00  0.00    -0.154 C  
HETATM   15  O   UNL     1     -12.457  11.212  65.500  1.00  0.00     1.424 OA 
HETATM   16  C   UNL     1     -10.020  12.569  66.995  1.00  0.00    -0.217 C  
HETATM   17  C   UNL     1     -11.098   9.349  66.555  1.00  0.00     0.658 C  
HETATM   18  C   UNL     1     -11.097  11.053  65.988  1.00  0.00     0.017 C  
HETATM   19  H   UNL     1     -12.457  12.113  65.201  1.00  0.00     0.000 HD 
HETATM   20  C   UNL     1      -8.536  13.582  66.793  1.00  0.00     0.013 C  
HETATM   21  C   UNL     1     -11.980   8.103  66.190  1.00  0.00     7.777 C  
ENDROOT
BRANCH  12  22
HETATM   22  O   UNL     1      -7.367   8.154  65.863  1.00  0.00    -0.074 OA 
BRANCH  22  23
HETATM   23  C   UNL     1      -6.624   7.200  66.496  1.00  0.00    -0.052 C  
HETATM   24  O   UNL     1      -5.506   7.364  66.966  1.00  0.00    -0.024 OA 
BRANCH  23  25
HETATM   25  C   UNL     1      -7.413   5.925  66.651  1.00  0.00    -0.087 C  
BRANCH  25  26
HETATM   26  S   UNL     1      -8.738   5.820  65.415  1.00  0.00    -0.075 SA 
BRANCH  26  27
HETATM   27  C   UNL     1     -10.024   6.874  66.196  1.00  0.00     0.238 C  
HETATM   28  C   UNL     1      -9.467   7.663  67.386  1.00  0.00    -0.175 C  
HETATM   29  C   UNL     1     -10.519   8.624  67.939  1.00  0.00    -0.269 C  
HETATM   30  C   UNL     1     -11.798   7.875  68.331  1.00  0.00     2.244 C  
HETATM   31  N   UNL     1     -12.805   8.815  68.813  1.00  0.00     4.731 NA 
HETATM   32  C   UNL     1     -12.355   7.071  67.151  1.00  0.00     5.389 C  
HETATM   33  C   UNL     1     -11.306   6.107  66.588  1.00  0.00     0.316 C  
HETATM   34  H2  UNL     1     -12.990   9.556  68.136  1.00  0.00     0.000 HD 
HETATM   35  H1  UNL     1     -13.656   8.317  69.073  1.00  0.00     0.000 HD 
HETATM   36  O   UNL     1     -11.879   5.420  65.477  1.00  0.00     0.081 OA 
HETATM   37  H   UNL     1     -12.668   4.948  65.718  1.00  0.00     0.000 HD 
ENDBRANCH  26  27
ENDBRANCH  25  26
ENDBRANCH  23  25
ENDBRANCH  22  23
ENDBRANCH  12  22
BRANCH  17  38
HETATM   38  C   UNL     1     -11.964   9.642  67.764  1.00  0.00     2.756 C  
HETATM   39  C   UNL     1     -13.002  10.368  68.153  1.00  0.00     5.504 C  
ENDBRANCH  17  38
TORSDOF 6
ENDMDL
MODEL      217
REMARK 921   NORMALIZED FREE ENERGY PREDICTED BY IDOCK:   84.35 KCAL/MOL
REMARK 922        TOTAL FREE ENERGY PREDICTED BY IDOCK:  112.70 KCAL/MOL
REMARK 923 INTER-LIGAND FREE ENERGY PREDICTED BY IDOCK:   19.59 KCAL/MOL
REMARK 924 INTRA-LIGAND FREE ENERGY PREDICTED BY IDOCK:   93.12 KCAL/MOL
REMARK 927      BINDING AFFINITY PREDICTED BY RF-SCORE:    0.00 PKD
ROOT
HETATM    1  C   UNL     1      -9.036  11.340  66.733  1.00  0.00    -0.181 C  
HETATM    2  C   UNL     1      -9.615  12.370  65.111  1.00  0.00     0.046 C  
HETATM    3  C   UNL     1     -11.245  13.295  65.627  1.00  0.00    -0.304 C  
HETATM    4  O   UNL     1      -9.062  12.404  64.018  1.00  0.00     0.526 OA 
HETATM    5  C   UNL     1     -11.689  12.685  67.468  1.00  0.00    -0.429 C  
HETATM    6  C   UNL     1     -10.133  11.771  68.073  1.00  0.00    -0.198 C  
HETATM    7  C   UNL     1      -9.297  12.196  69.295  1.00  0.00     0.750 C  
HETATM    8  C   UNL     1      -7.785  11.751  69.229  1.00  0.00     0.217 C  
HETATM    9  C   UNL     1      -7.498  10.380  68.568  1.00  0.00    -0.089 C  
HETATM   10  C   UNL     1      -8.152   9.343  69.515  1.00  0.00    -0.114 C  
HETATM   11  C   UNL     1      -7.870  10.350  67.016  1.00  0.00    -0.112 C  
HETATM   12  C   UNL     1      -8.348   8.848  66.660  1.00  0.00    -0.111 C  
HETATM   13  C   UNL     1      -6.717  10.767  66.089  1.00  0.00    -0.126 C  
HETATM   14  C   UNL     1      -9.689   8.714  65.916  1.00  0.00    -0.154 C  
HETATM   15  O   UNL     1     -12.457  11.212  65.500  1.00  0.00     1.424 OA 
HETATM   16  C   UNL     1     -10.020  12.569  66.995  1.00  0.00    -0.217 C  
HETATM   17  C   UNL     1     -11.098   9.349  66.555  1.00  0.00     0.658 C  
HETATM   18  C   UNL     1     -11.097  11.053  65.988  1.00  0.00     0.017 C  
HETATM   19  H   UNL     1     -12.457  12.113  65.201  1.00  0.00     0.000 HD 
HETATM   20  C   UNL     1      -8.536  13.582  66.793  1.00  0.00     0.013 C  
HETATM   21  C   UNL     1     -11.980   8.103  66.190  1.00  0.00     7.777 C  
ENDROOT
BRANCH  12  22
HETATM   22  O   UNL     1      -7.367   8.154  65.863  1.00  0.00    -0.074 OA 
BRANCH  22  23
HETATM   23  C   UNL     1      -6.317   8.892  65.399  1.00  0.00    -0.063 C  
HETATM   24  O   UNL     1      -6.240   9.398  64.287  1.00  0.00    -0.079 OA 
BRANCH  23  25
HETATM   25  C   UNL     1      -5.295   9.109  66.485  1.00  0.00    -0.041 C  
BRANCH  25  26
HETATM   26  S   UNL     1      -5.414   7.826  67.764  1.00  0.00    -0.033 SA 
BRANCH  26  27
HETATM   27  C   UNL     1      -6.817   8.464  68.764  1.00  0.00    -0.062 C  
HETATM   28  C   UNL     1      -7.543   9.613  68.056  1.00  0.00    -0.083 C  
HETATM   29  C   UNL     1      -8.779  10.041  68.848  1.00  0.00    -0.146 C  
HETATM   30  C   UNL     1      -8.406  10.431  70.283  1.00  0.00     0.636 C  
HETATM   31  N   UNL     1      -9.604  10.793  71.035  1.00  0.00     2.054 NA 
HETATM   32  C   UNL     1      -7.666   9.293  70.994  1.00  0.00    -0.100 C  
HETATM   33  C   UNL     1      -6.428   8.855  70.206  1.00  0.00    -0.041 C  
HETATM   34  H2  UNL     1     -10.306  10.053  71.011  1.00  0.00     0.000 HD 
HETATM   35  H1  UNL     1      -9.356  11.052  71.990  1.00  0.00     0.000 HD 
HETATM   36  O   UNL     1      -5.810   7.775  70.905  1.00  0.00    -0.034 OA 
HETATM   37  H   UNL     1      -5.570   8.017  71.793  1.00  0.00     0.000 HD 
ENDBRANCH  26  27
ENDBRANCH  25  26
ENDBRANCH  23  25
ENDBRANCH  22  23
ENDBRANCH  12  22
BRANCH  17  38
HETATM   38  C   UNL     1     -11.964   9.642  67.764  1.00  0.00     2.756 C  
HETATM   39  C   UNL     1     -13.002  10.368  68.153  1.00  0.00     5.504 C  
ENDBRANCH  17  38
TORSDOF 6
ENDMDL
