MODEL        1
REMARK 921   NORMALIZED FREE ENERGY PREDICTED BY IDOCK:   -6.73 KCAL/MOL
REMARK 922        TOTAL FREE ENERGY PREDICTED BY IDOCK:   -7.79 KCAL/MOL
REMARK 923 INTER-LIGAND FREE ENERGY PREDICTED BY IDOCK:   -7.52 KCAL/MOL
REMARK 924 INTRA-LIGAND FREE ENERGY PREDICTED BY IDOCK:   -0.27 KCAL/MOL
REMARK 927      BINDING AFFINITY PREDICTED BY RF-SCORE:    0.00 PKD
ROOT
HETATM    1  C   UNL     1     -12.280  13.926  63.919  1.00  0.00    -0.375 C  
HETATM    2  C   UNL     1     -11.643  15.079  64.596  1.00  0.00    -0.386 A  
HETATM    3  C   UNL     1     -10.959  15.260  65.788  1.00  0.00    -0.340 A  
HETATM    4  O   UNL     1     -11.714  16.259  63.926  1.00  0.00    -0.986 OA 
HETATM    5  C   UNL     1     -10.647  16.638  65.763  1.00  0.00    -0.268 A  
HETATM    6  N   UNL     1     -11.086  17.247  64.663  1.00  0.00    -0.959 NA 
ENDROOT
BRANCH   3   7
HETATM    7  C   UNL     1     -10.696  14.202  66.749  1.00  0.00    -0.286 C  
HETATM    8  O   UNL     1      -9.535  13.950  67.051  1.00  0.00    -0.236 OA 
HETATM    9  H   UNL     1     -12.722  13.842  66.963  1.00  0.00     0.000 HD 
HETATM   10  N   UNL     1     -11.799  13.536  67.271  1.00  0.00    -0.376 N  
BRANCH  10  11
HETATM   11  C   UNL     1     -11.742  12.464  68.200  1.00  0.00    -0.353 A  
HETATM   12  C   UNL     1     -11.367  11.164  67.849  1.00  0.00    -0.378 A  
HETATM   13  C   UNL     1     -11.350  10.128  68.784  1.00  0.00    -0.172 A  
HETATM   14  C   UNL     1     -11.707  10.363  70.112  1.00  0.00    -0.394 A  
HETATM   15  C   UNL     1     -11.706   9.231  71.107  1.00  0.00    -0.325 C  
HETATM   16  C   UNL     1     -12.069  11.668  70.483  1.00  0.00    -0.458 A  
HETATM   17  C   UNL     1     -12.087  12.708  69.535  1.00  0.00    -0.253 A  
HETATM   18  F   UNL     1     -10.835   9.435  72.133  1.00  0.00    -0.389 F  
HETATM   19  F   UNL     1     -12.927   9.040  71.682  1.00  0.00    -0.321 F  
HETATM   20  F   UNL     1     -11.363   8.028  70.562  1.00  0.00    -0.265 F  
ENDBRANCH  10  11
ENDBRANCH   3   7
TORSDOF 2
ENDMDL
MODEL        2
REMARK 921   NORMALIZED FREE ENERGY PREDICTED BY IDOCK:   -6.67 KCAL/MOL
REMARK 922        TOTAL FREE ENERGY PREDICTED BY IDOCK:   -7.72 KCAL/MOL
REMARK 923 INTER-LIGAND FREE ENERGY PREDICTED BY IDOCK:   -7.47 KCAL/MOL
REMARK 924 INTRA-LIGAND FREE ENERGY PREDICTED BY IDOCK:   -0.25 KCAL/MOL
REMARK 927      BINDING AFFINITY PREDICTED BY RF-SCORE:    0.00 PKD
ROOT
HETATM    1  C   UNL     1      -9.581  17.104  66.524  1.00  0.00    -0.294 C  
HETATM    2  C   UNL     1     -10.521  16.405  65.618  1.00  0.00    -0.347 A  
HETATM    3  C   UNL     1     -11.021  15.115  65.530  1.00  0.00    -0.370 A  
HETATM    4  O   UNL     1     -11.049  17.169  64.626  1.00  0.00    -1.036 OA 
HETATM    5  C   UNL     1     -11.874  15.186  64.405  1.00  0.00    -0.305 A  
HETATM    6  N   UNL     1     -11.904  16.400  63.857  1.00  0.00    -0.948 NA 
ENDROOT
BRANCH   3   7
HETATM    7  C   UNL     1     -10.671  14.038  66.439  1.00  0.00    -0.278 C  
HETATM    8  O   UNL     1      -9.491  13.731  66.569  1.00  0.00    -0.276 OA 
HETATM    9  H   UNL     1     -12.658  13.767  66.944  1.00  0.00     0.000 HD 
HETATM   10  N   UNL     1     -11.716  13.417  67.114  1.00  0.00    -0.357 N  
BRANCH  10  11
HETATM   11  C   UNL     1     -11.574  12.334  68.022  1.00  0.00    -0.349 A  
HETATM   12  C   UNL     1     -11.215  11.043  67.625  1.00  0.00    -0.373 A  
HETATM   13  C   UNL     1     -11.112   9.996  68.542  1.00  0.00    -0.219 A  
HETATM   14  C   UNL     1     -11.366  10.210  69.897  1.00  0.00    -0.335 A  
HETATM   15  C   UNL     1     -11.274   9.066  70.874  1.00  0.00    -0.287 C  
HETATM   16  C   UNL     1     -11.711  11.507  70.312  1.00  0.00    -0.379 A  
HETATM   17  C   UNL     1     -11.815  12.558  69.383  1.00  0.00    -0.368 A  
HETATM   18  F   UNL     1     -10.327   9.268  71.830  1.00  0.00    -0.398 F  
HETATM   19  F   UNL     1     -12.444   8.855  71.540  1.00  0.00    -0.310 F  
HETATM   20  F   UNL     1     -10.963   7.875  70.288  1.00  0.00    -0.241 F  
ENDBRANCH  10  11
ENDBRANCH   3   7
TORSDOF 2
ENDMDL
MODEL        3
REMARK 921   NORMALIZED FREE ENERGY PREDICTED BY IDOCK:   -6.65 KCAL/MOL
REMARK 922        TOTAL FREE ENERGY PREDICTED BY IDOCK:   -7.70 KCAL/MOL
REMARK 923 INTER-LIGAND FREE ENERGY PREDICTED BY IDOCK:   -7.69 KCAL/MOL
REMARK 924 INTRA-LIGAND FREE ENERGY PREDICTED BY IDOCK:   -0.01 KCAL/MOL
REMARK 927      BINDING AFFINITY PREDICTED BY RF-SCORE:    0.00 PKD
ROOT
HETATM    1  C   UNL     1     -12.197  13.182  63.817  1.00  0.00    -0.528 C  
HETATM    2  C   UNL     1     -11.430  12.202  64.622  1.00  0.00    -0.328 A  
HETATM    3  C   UNL     1     -11.172  12.033  65.973  1.00  0.00    -0.385 A  
HETATM    4  O   UNL     1     -10.825  11.214  63.912  1.00  0.00    -0.380 OA 
HETATM    5  C   UNL     1     -10.362  10.875  65.993  1.00  0.00    -0.245 A  
HETATM    6  N   UNL     1     -10.148  10.373  64.777  1.00  0.00    -0.347 NA 
ENDROOT
BRANCH   3   7
HETATM    7  C   UNL     1     -11.671  12.910  67.018  1.00  0.00    -0.385 C  
HETATM    8  O   UNL     1     -12.531  13.737  66.737  1.00  0.00    -0.366 OA 
HETATM    9  H   UNL     1     -10.433  12.014  68.412  1.00  0.00     0.000 HD 
HETATM   10  N   UNL     1     -11.130  12.748  68.288  1.00  0.00    -0.242 N  
BRANCH  10  11
HETATM   11  C   UNL     1     -11.473  13.523  69.427  1.00  0.00    -0.282 A  
HETATM   12  C   UNL     1     -10.920  14.779  69.695  1.00  0.00    -0.285 A  
HETATM   13  C   UNL     1     -11.260  15.500  70.840  1.00  0.00    -0.409 A  
HETATM   14  C   UNL     1     -12.173  14.985  71.760  1.00  0.00    -0.417 A  
HETATM   15  C   UNL     1     -12.514  15.764  73.005  1.00  0.00    -0.472 C  
HETATM   16  C   UNL     1     -12.749  13.732  71.495  1.00  0.00    -0.432 A  
HETATM   17  C   UNL     1     -12.402  13.008  70.340  1.00  0.00    -0.351 A  
HETATM   18  F   UNL     1     -13.834  16.092  73.073  1.00  0.00    -0.636 F  
HETATM   19  F   UNL     1     -12.239  15.072  74.145  1.00  0.00    -0.623 F  
HETATM   20  F   UNL     1     -11.833  16.941  73.113  1.00  0.00    -0.574 F  
ENDBRANCH  10  11
ENDBRANCH   3   7
TORSDOF 2
ENDMDL
MODEL        4
REMARK 921   NORMALIZED FREE ENERGY PREDICTED BY IDOCK:   -6.64 KCAL/MOL
REMARK 922        TOTAL FREE ENERGY PREDICTED BY IDOCK:   -7.68 KCAL/MOL
REMARK 923 INTER-LIGAND FREE ENERGY PREDICTED BY IDOCK:   -7.62 KCAL/MOL
REMARK 924 INTRA-LIGAND FREE ENERGY PREDICTED BY IDOCK:   -0.05 KCAL/MOL
REMARK 927      BINDING AFFINITY PREDICTED BY RF-SCORE:    0.00 PKD
ROOT
HETATM    1  C   UNL     1     -12.279  13.451  67.149  1.00  0.00    -0.306 C  
HETATM    2  C   UNL     1     -12.302  13.513  65.670  1.00  0.00    -0.476 A  
HETATM    3  C   UNL     1     -11.819  14.399  64.719  1.00  0.00    -0.439 A  
HETATM    4  O   UNL     1     -12.930  12.477  65.054  1.00  0.00    -0.779 OA 
HETATM    5  C   UNL     1     -12.222  13.801  63.503  1.00  0.00    -0.179 A  
HETATM    6  N   UNL     1     -12.880  12.657  63.683  1.00  0.00    -0.728 NA 
ENDROOT
BRANCH   3   7
HETATM    7  C   UNL     1     -11.091  15.616  65.030  1.00  0.00    -0.389 C  
HETATM    8  O   UNL     1     -11.257  16.604  64.322  1.00  0.00    -1.098 OA 
HETATM    9  H   UNL     1     -10.195  14.709  66.658  1.00  0.00     0.000 HD 
HETATM   10  N   UNL     1     -10.241  15.579  66.129  1.00  0.00    -0.286 N  
BRANCH  10  11
HETATM   11  C   UNL     1      -9.431  16.658  66.573  1.00  0.00    -0.266 A  
HETATM   12  C   UNL     1      -8.066  16.761  66.288  1.00  0.00    -0.365 A  
HETATM   13  C   UNL     1      -7.296  17.822  66.765  1.00  0.00    -0.239 A  
HETATM   14  C   UNL     1      -7.871  18.824  67.547  1.00  0.00    -0.249 A  
HETATM   15  C   UNL     1      -7.024  19.953  68.075  1.00  0.00    -0.281 C  
HETATM   16  C   UNL     1      -9.246  18.742  67.827  1.00  0.00    -0.316 A  
HETATM   17  C   UNL     1     -10.017  17.669  67.344  1.00  0.00    -0.321 A  
HETATM   18  F   UNL     1      -7.430  21.170  67.622  1.00  0.00    -0.354 F  
HETATM   19  F   UNL     1      -7.047  20.030  69.435  1.00  0.00    -0.356 F  
HETATM   20  F   UNL     1      -5.707  19.849  67.734  1.00  0.00    -0.194 F  
ENDBRANCH  10  11
ENDBRANCH   3   7
TORSDOF 2
ENDMDL
MODEL        5
REMARK 921   NORMALIZED FREE ENERGY PREDICTED BY IDOCK:   -6.62 KCAL/MOL
REMARK 922        TOTAL FREE ENERGY PREDICTED BY IDOCK:   -7.66 KCAL/MOL
REMARK 923 INTER-LIGAND FREE ENERGY PREDICTED BY IDOCK:   -7.46 KCAL/MOL
REMARK 924 INTRA-LIGAND FREE ENERGY PREDICTED BY IDOCK:   -0.21 KCAL/MOL
REMARK 927      BINDING AFFINITY PREDICTED BY RF-SCORE:    0.00 PKD
ROOT
HETATM    1  C   UNL     1     -12.519  13.793  63.864  1.00  0.00    -0.260 C  
HETATM    2  C   UNL     1     -11.789  14.929  64.472  1.00  0.00    -0.396 A  
HETATM    3  C   UNL     1     -11.014  15.100  65.609  1.00  0.00    -0.359 A  
HETATM    4  O   UNL     1     -11.860  16.099  63.785  1.00  0.00    -0.885 OA 
HETATM    5  C   UNL     1     -10.648  16.463  65.535  1.00  0.00    -0.330 A  
HETATM    6  N   UNL     1     -11.139  17.072  64.457  1.00  0.00    -1.062 NA 
ENDROOT
BRANCH   3   7
HETATM    7  C   UNL     1     -10.727  14.048  66.569  1.00  0.00    -0.281 C  
HETATM    8  O   UNL     1      -9.561  13.713  66.750  1.00  0.00    -0.258 OA 
HETATM    9  H   UNL     1     -12.737  13.854  67.015  1.00  0.00     0.000 HD 
HETATM   10  N   UNL     1     -11.812  13.484  67.230  1.00  0.00    -0.376 N  
BRANCH  10  11
HETATM   11  C   UNL     1     -11.733  12.433  68.181  1.00  0.00    -0.353 A  
HETATM   12  C   UNL     1     -12.030  12.601  69.537  1.00  0.00    -0.332 A  
HETATM   13  C   UNL     1     -11.914  11.550  70.448  1.00  0.00    -0.459 A  
HETATM   14  C   UNL     1     -11.496  10.288  70.029  1.00  0.00    -0.367 A  
HETATM   15  C   UNL     1     -11.353   9.167  71.027  1.00  0.00    -0.309 C  
HETATM   16  C   UNL     1     -11.211  10.100  68.666  1.00  0.00    -0.223 A  
HETATM   17  C   UNL     1     -11.328  11.162  67.752  1.00  0.00    -0.364 A  
HETATM   18  F   UNL     1     -12.174   8.116  70.757  1.00  0.00    -0.271 F  
HETATM   19  F   UNL     1     -10.090   8.659  71.063  1.00  0.00    -0.208 F  
HETATM   20  F   UNL     1     -11.638   9.541  72.308  1.00  0.00    -0.364 F  
ENDBRANCH  10  11
ENDBRANCH   3   7
TORSDOF 2
ENDMDL
MODEL        6
REMARK 921   NORMALIZED FREE ENERGY PREDICTED BY IDOCK:   -6.62 KCAL/MOL
REMARK 922        TOTAL FREE ENERGY PREDICTED BY IDOCK:   -7.66 KCAL/MOL
REMARK 923 INTER-LIGAND FREE ENERGY PREDICTED BY IDOCK:   -7.67 KCAL/MOL
REMARK 924 INTRA-LIGAND FREE ENERGY PREDICTED BY IDOCK:    0.01 KCAL/MOL
REMARK 927      BINDING AFFINITY PREDICTED BY RF-SCORE:    0.00 PKD
ROOT
HETATM    1  C   UNL     1     -13.473  12.863  72.196  1.00  0.00    -0.619 C  
HETATM    2  C   UNL     1     -12.906  14.225  72.322  1.00  0.00    -0.340 A  
HETATM    3  C   UNL     1     -12.096  15.025  71.532  1.00  0.00    -0.403 A  
HETATM    4  O   UNL     1     -13.235  14.889  73.461  1.00  0.00    -0.532 OA 
HETATM    5  C   UNL     1     -11.972  16.203  72.304  1.00  0.00    -0.546 A  
HETATM    6  N   UNL     1     -12.644  16.140  73.452  1.00  0.00    -0.513 NA 
ENDROOT
BRANCH   3   7
HETATM    7  C   UNL     1     -11.564  14.629  70.239  1.00  0.00    -0.280 C  
HETATM    8  O   UNL     1     -10.481  15.078  69.880  1.00  0.00    -0.225 OA 
HETATM    9  H   UNL     1     -13.211  13.427  69.889  1.00  0.00     0.000 HD 
HETATM   10  N   UNL     1     -12.334  13.752  69.484  1.00  0.00    -0.280 N  
BRANCH  10  11
HETATM   11  C   UNL     1     -11.994  13.272  68.191  1.00  0.00    -0.304 A  
HETATM   12  C   UNL     1     -11.492  11.988  67.957  1.00  0.00    -0.392 A  
HETATM   13  C   UNL     1     -11.142  11.561  66.675  1.00  0.00    -0.355 A  
HETATM   14  C   UNL     1     -11.287  12.409  65.578  1.00  0.00    -0.387 A  
HETATM   15  C   UNL     1     -10.885  11.943  64.202  1.00  0.00    -0.356 C  
HETATM   16  C   UNL     1     -11.807  13.696  65.796  1.00  0.00    -0.397 A  
HETATM   17  C   UNL     1     -12.156  14.122  67.090  1.00  0.00    -0.432 A  
HETATM   18  F   UNL     1     -11.927  11.928  63.327  1.00  0.00    -0.529 F  
HETATM   19  F   UNL     1      -9.933  12.739  63.640  1.00  0.00    -0.385 F  
HETATM   20  F   UNL     1     -10.368  10.681  64.186  1.00  0.00    -0.391 F  
ENDBRANCH  10  11
ENDBRANCH   3   7
TORSDOF 2
ENDMDL
MODEL        7
REMARK 921   NORMALIZED FREE ENERGY PREDICTED BY IDOCK:   -6.58 KCAL/MOL
REMARK 922        TOTAL FREE ENERGY PREDICTED BY IDOCK:   -7.62 KCAL/MOL
REMARK 923 INTER-LIGAND FREE ENERGY PREDICTED BY IDOCK:   -7.49 KCAL/MOL
REMARK 924 INTRA-LIGAND FREE ENERGY PREDICTED BY IDOCK:   -0.12 KCAL/MOL
REMARK 927      BINDING AFFINITY PREDICTED BY RF-SCORE:    0.00 PKD
ROOT
HETATM    1  C   UNL     1      -9.469  16.837  66.150  1.00  0.00    -0.295 C  
HETATM    2  C   UNL     1     -10.559  16.141  65.428  1.00  0.00    -0.380 A  
HETATM    3  C   UNL     1     -11.165  14.899  65.531  1.00  0.00    -0.348 A  
HETATM    4  O   UNL     1     -11.136  16.852  64.424  1.00  0.00    -1.128 OA 
HETATM    5  C   UNL     1     -12.133  14.938  64.502  1.00  0.00    -0.407 A  
HETATM    6  N   UNL     1     -12.132  16.092  63.836  1.00  0.00    -0.849 NA 
ENDROOT
BRANCH   3   7
HETATM    7  C   UNL     1     -10.797  13.887  66.505  1.00  0.00    -0.295 C  
HETATM    8  O   UNL     1      -9.612  13.725  66.774  1.00  0.00    -0.261 OA 
HETATM    9  H   UNL     1     -12.783  13.388  66.792  1.00  0.00     0.000 HD 
HETATM   10  N   UNL     1     -11.832  13.156  67.077  1.00  0.00    -0.379 N  
BRANCH  10  11
HETATM   11  C   UNL     1     -11.669  12.113  68.026  1.00  0.00    -0.344 A  
HETATM   12  C   UNL     1     -11.979  12.254  69.382  1.00  0.00    -0.318 A  
HETATM   13  C   UNL     1     -11.780  11.214  70.291  1.00  0.00    -0.431 A  
HETATM   14  C   UNL     1     -11.262   9.990  69.870  1.00  0.00    -0.327 A  
HETATM   15  C   UNL     1     -11.030   8.883  70.866  1.00  0.00    -0.266 C  
HETATM   16  C   UNL     1     -10.962   9.828  68.507  1.00  0.00    -0.195 A  
HETATM   17  C   UNL     1     -11.164  10.880  67.595  1.00  0.00    -0.379 A  
HETATM   18  F   UNL     1     -11.763   7.769  70.593  1.00  0.00    -0.289 F  
HETATM   19  F   UNL     1      -9.729   8.478  70.902  1.00  0.00    -0.177 F  
HETATM   20  F   UNL     1     -11.344   9.230  72.147  1.00  0.00    -0.425 F  
ENDBRANCH  10  11
ENDBRANCH   3   7
TORSDOF 2
ENDMDL
MODEL        8
REMARK 921   NORMALIZED FREE ENERGY PREDICTED BY IDOCK:   -6.49 KCAL/MOL
REMARK 922        TOTAL FREE ENERGY PREDICTED BY IDOCK:   -7.51 KCAL/MOL
REMARK 923 INTER-LIGAND FREE ENERGY PREDICTED BY IDOCK:   -7.20 KCAL/MOL
REMARK 924 INTRA-LIGAND FREE ENERGY PREDICTED BY IDOCK:   -0.31 KCAL/MOL
REMARK 927      BINDING AFFINITY PREDICTED BY RF-SCORE:    0.00 PKD
ROOT
HETATM    1  C   UNL     1      -7.726  17.219  66.260  1.00  0.00    -0.353 C  
HETATM    2  C   UNL     1      -8.912  18.025  66.633  1.00  0.00    -0.273 A  
HETATM    3  C   UNL     1      -9.964  17.867  67.520  1.00  0.00    -0.322 A  
HETATM    4  O   UNL     1      -9.035  19.211  65.981  1.00  0.00    -0.447 OA 
HETATM    5  C   UNL     1     -10.715  19.049  67.328  1.00  0.00    -0.470 A  
HETATM    6  N   UNL     1     -10.176  19.860  66.419  1.00  0.00    -0.476 NA 
ENDROOT
BRANCH   3   7
HETATM    7  C   UNL     1     -10.140  16.712  68.384  1.00  0.00    -0.268 C  
HETATM    8  O   UNL     1      -9.252  16.425  69.178  1.00  0.00    -0.257 OA 
HETATM    9  H   UNL     1     -12.004  16.340  67.567  1.00  0.00     0.000 HD 
HETATM   10  N   UNL     1     -11.326  15.999  68.248  1.00  0.00    -0.350 N  
BRANCH  10  11
HETATM   11  C   UNL     1     -11.667  14.833  68.984  1.00  0.00    -0.312 A  
HETATM   12  C   UNL     1     -12.226  14.871  70.265  1.00  0.00    -0.389 A  
HETATM   13  C   UNL     1     -12.523  13.703  70.969  1.00  0.00    -0.456 A  
HETATM   14  C   UNL     1     -12.271  12.451  70.410  1.00  0.00    -0.370 A  
HETATM   15  C   UNL     1     -12.575  11.198  71.190  1.00  0.00    -0.409 C  
HETATM   16  C   UNL     1     -11.725  12.399  69.116  1.00  0.00    -0.376 A  
HETATM   17  C   UNL     1     -11.427  13.579  68.411  1.00  0.00    -0.346 A  
HETATM   18  F   UNL     1     -13.498  10.409  70.577  1.00  0.00    -0.387 F  
HETATM   19  F   UNL     1     -11.473  10.417  71.372  1.00  0.00    -0.386 F  
HETATM   20  F   UNL     1     -13.065  11.441  72.439  1.00  0.00    -0.552 F  
ENDBRANCH  10  11
ENDBRANCH   3   7
TORSDOF 2
ENDMDL
MODEL        9
REMARK 921   NORMALIZED FREE ENERGY PREDICTED BY IDOCK:   -6.44 KCAL/MOL
REMARK 922        TOTAL FREE ENERGY PREDICTED BY IDOCK:   -7.46 KCAL/MOL
REMARK 923 INTER-LIGAND FREE ENERGY PREDICTED BY IDOCK:   -7.21 KCAL/MOL
REMARK 924 INTRA-LIGAND FREE ENERGY PREDICTED BY IDOCK:   -0.24 KCAL/MOL
REMARK 927      BINDING AFFINITY PREDICTED BY RF-SCORE:    0.00 PKD
ROOT
HETATM    1  C   UNL     1      -9.920   9.373  66.003  1.00  0.00    -0.352 C  
HETATM    2  C   UNL     1     -10.032  10.435  64.977  1.00  0.00    -0.330 A  
HETATM    3  C   UNL     1     -10.650  11.674  64.913  1.00  0.00    -0.349 A  
HETATM    4  O   UNL     1      -9.387  10.184  63.807  1.00  0.00    -0.262 OA 
HETATM    5  C   UNL     1     -10.322  12.120  63.613  1.00  0.00    -0.452 A  
HETATM    6  N   UNL     1      -9.570  11.248  62.942  1.00  0.00    -0.361 NA 
ENDROOT
BRANCH   3   7
HETATM    7  C   UNL     1     -11.423  12.259  65.995  1.00  0.00    -0.381 C  
HETATM    8  O   UNL     1     -12.582  12.597  65.780  1.00  0.00    -0.575 OA 
HETATM    9  H   UNL     1      -9.825  12.065  67.293  1.00  0.00     0.000 HD 
HETATM   10  N   UNL     1     -10.786  12.398  67.222  1.00  0.00    -0.236 N  
BRANCH  10  11
HETATM   11  C   UNL     1     -11.368  12.968  68.386  1.00  0.00    -0.291 A  
HETATM   12  C   UNL     1     -11.586  14.339  68.542  1.00  0.00    -0.355 A  
HETATM   13  C   UNL     1     -12.135  14.866  69.712  1.00  0.00    -0.357 A  
HETATM   14  C   UNL     1     -12.489  14.029  70.770  1.00  0.00    -0.442 A  
HETATM   15  C   UNL     1     -13.060  14.612  72.038  1.00  0.00    -0.337 C  
HETATM   16  C   UNL     1     -12.292  12.646  70.620  1.00  0.00    -0.375 A  
HETATM   17  C   UNL     1     -11.736  12.122  69.439  1.00  0.00    -0.391 A  
HETATM   18  F   UNL     1     -14.318  14.165  72.301  1.00  0.00    -0.533 F  
HETATM   19  F   UNL     1     -12.314  14.306  73.135  1.00  0.00    -0.332 F  
HETATM   20  F   UNL     1     -13.147  15.973  72.019  1.00  0.00    -0.502 F  
ENDBRANCH  10  11
ENDBRANCH   3   7
TORSDOF 2
ENDMDL
MODEL       10
REMARK 921   NORMALIZED FREE ENERGY PREDICTED BY IDOCK:   -6.30 KCAL/MOL
REMARK 922        TOTAL FREE ENERGY PREDICTED BY IDOCK:   -7.30 KCAL/MOL
REMARK 923 INTER-LIGAND FREE ENERGY PREDICTED BY IDOCK:   -7.90 KCAL/MOL
REMARK 924 INTRA-LIGAND FREE ENERGY PREDICTED BY IDOCK:    0.59 KCAL/MOL
REMARK 927      BINDING AFFINITY PREDICTED BY RF-SCORE:    0.00 PKD
ROOT
HETATM    1  C   UNL     1     -13.291  12.886  71.838  1.00  0.00    -0.530 C  
HETATM    2  C   UNL     1     -12.761  14.248  72.077  1.00  0.00    -0.324 A  
HETATM    3  C   UNL     1     -12.244  15.253  71.274  1.00  0.00    -0.408 A  
HETATM    4  O   UNL     1     -12.770  14.657  73.373  1.00  0.00    -0.496 OA 
HETATM    5  C   UNL     1     -11.944  16.273  72.205  1.00  0.00    -0.520 A  
HETATM    6  N   UNL     1     -12.253  15.937  73.457  1.00  0.00    -0.490 NA 
ENDROOT
BRANCH   3   7
HETATM    7  C   UNL     1     -12.095  15.153  69.833  1.00  0.00    -0.336 C  
HETATM    8  O   UNL     1     -11.943  16.180  69.180  1.00  0.00    -0.281 OA 
HETATM    9  H   UNL     1     -12.246  13.092  69.922  1.00  0.00     0.000 HD 
HETATM   10  N   UNL     1     -12.134  13.878  69.282  1.00  0.00    -0.349 N  
BRANCH  10  11
HETATM   11  C   UNL     1     -12.031  13.582  67.897  1.00  0.00    -0.337 A  
HETATM   12  C   UNL     1     -12.254  14.528  66.892  1.00  0.00    -0.220 A  
HETATM   13  C   UNL     1     -12.170  14.193  65.539  1.00  0.00    -0.443 A  
HETATM   14  C   UNL     1     -11.856  12.893  65.146  1.00  0.00    -0.415 A  
HETATM   15  C   UNL     1     -11.792  12.539  63.682  1.00  0.00    -0.530 C  
HETATM   16  C   UNL     1     -11.613  11.936  66.146  1.00  0.00    -0.299 A  
HETATM   17  C   UNL     1     -11.700  12.278  67.507  1.00  0.00    -0.402 A  
HETATM   18  F   UNL     1     -10.559  12.107  63.301  1.00  0.00    -0.410 F  
HETATM   19  F   UNL     1     -12.659  11.544  63.348  1.00  0.00    -0.592 F  
HETATM   20  F   UNL     1     -12.091  13.583  62.857  1.00  0.00    -0.517 F  
ENDBRANCH  10  11
ENDBRANCH   3   7
TORSDOF 2
ENDMDL
MODEL       11
REMARK 921   NORMALIZED FREE ENERGY PREDICTED BY IDOCK:   -6.30 KCAL/MOL
REMARK 922        TOTAL FREE ENERGY PREDICTED BY IDOCK:   -7.30 KCAL/MOL
REMARK 923 INTER-LIGAND FREE ENERGY PREDICTED BY IDOCK:   -7.33 KCAL/MOL
REMARK 924 INTRA-LIGAND FREE ENERGY PREDICTED BY IDOCK:    0.03 KCAL/MOL
REMARK 927      BINDING AFFINITY PREDICTED BY RF-SCORE:    0.00 PKD
ROOT
HETATM    1  C   UNL     1     -12.298  14.157  64.104  1.00  0.00    -0.372 C  
HETATM    2  C   UNL     1     -11.392  14.774  65.100  1.00  0.00    -0.379 A  
HETATM    3  C   UNL     1     -10.986  14.454  66.386  1.00  0.00    -0.319 A  
HETATM    4  O   UNL     1     -10.789  15.925  64.702  1.00  0.00    -0.557 OA 
HETATM    5  C   UNL     1     -10.107  15.513  66.708  1.00  0.00    -0.264 A  
HETATM    6  N   UNL     1      -9.976  16.395  65.718  1.00  0.00    -0.478 NA 
ENDROOT
BRANCH   3   7
HETATM    7  C   UNL     1     -11.434  13.282  67.118  1.00  0.00    -0.341 C  
HETATM    8  O   UNL     1     -12.133  12.455  66.543  1.00  0.00    -0.599 OA 
HETATM    9  H   UNL     1     -10.435  13.915  68.815  1.00  0.00     0.000 HD 
HETATM   10  N   UNL     1     -11.032  13.176  68.444  1.00  0.00    -0.251 N  
BRANCH  10  11
HETATM   11  C   UNL     1     -11.388  12.120  69.324  1.00  0.00    -0.266 A  
HETATM   12  C   UNL     1     -12.396  12.229  70.286  1.00  0.00    -0.267 A  
HETATM   13  C   UNL     1     -12.700  11.178  71.153  1.00  0.00    -0.510 A  
HETATM   14  C   UNL     1     -12.000   9.974  71.083  1.00  0.00    -0.484 A  
HETATM   15  C   UNL     1     -12.321   8.855  72.040  1.00  0.00    -0.390 C  
HETATM   16  C   UNL     1     -10.995   9.844  70.109  1.00  0.00    -0.356 A  
HETATM   17  C   UNL     1     -10.693  10.907  69.239  1.00  0.00    -0.271 A  
HETATM   18  F   UNL     1     -12.751   7.730  71.406  1.00  0.00    -0.321 F  
HETATM   19  F   UNL     1     -11.243   8.479  72.784  1.00  0.00    -0.415 F  
HETATM   20  F   UNL     1     -13.298   9.171  72.938  1.00  0.00    -0.489 F  
ENDBRANCH  10  11
ENDBRANCH   3   7
TORSDOF 2
ENDMDL
MODEL       12
REMARK 921   NORMALIZED FREE ENERGY PREDICTED BY IDOCK:   -6.27 KCAL/MOL
REMARK 922        TOTAL FREE ENERGY PREDICTED BY IDOCK:   -7.27 KCAL/MOL
REMARK 923 INTER-LIGAND FREE ENERGY PREDICTED BY IDOCK:   -6.95 KCAL/MOL
REMARK 924 INTRA-LIGAND FREE ENERGY PREDICTED BY IDOCK:   -0.31 KCAL/MOL
REMARK 927      BINDING AFFINITY PREDICTED BY RF-SCORE:    0.00 PKD
ROOT
HETATM    1  C   UNL     1     -10.632  18.656  67.495  1.00  0.00    -0.472 C  
HETATM    2  C   UNL     1      -9.427  17.935  67.025  1.00  0.00    -0.272 A  
HETATM    3  C   UNL     1      -8.826  16.724  67.333  1.00  0.00    -0.209 A  
HETATM    4  O   UNL     1      -8.712  18.568  66.057  1.00  0.00    -0.497 OA 
HETATM    5  C   UNL     1      -7.702  16.706  66.477  1.00  0.00    -0.302 A  
HETATM    6  N   UNL     1      -7.620  17.793  65.710  1.00  0.00    -0.547 NA 
ENDROOT
BRANCH   3   7
HETATM    7  C   UNL     1      -9.331  15.789  68.323  1.00  0.00    -0.193 C  
HETATM    8  O   UNL     1      -8.803  15.753  69.429  1.00  0.00    -0.252 OA 
HETATM    9  H   UNL     1     -10.771  15.111  67.002  1.00  0.00     0.000 HD 
HETATM   10  N   UNL     1     -10.398  14.984  67.943  1.00  0.00    -0.239 N  
BRANCH  10  11
HETATM   11  C   UNL     1     -11.010  13.997  68.760  1.00  0.00    -0.262 A  
HETATM   12  C   UNL     1     -11.793  14.304  69.877  1.00  0.00    -0.382 A  
HETATM   13  C   UNL     1     -12.355  13.305  70.674  1.00  0.00    -0.416 A  
HETATM   14  C   UNL     1     -12.153  11.958  70.375  1.00  0.00    -0.421 A  
HETATM   15  C   UNL     1     -12.747  10.890  71.257  1.00  0.00    -0.437 C  
HETATM   16  C   UNL     1     -11.383  11.636  69.245  1.00  0.00    -0.353 A  
HETATM   17  C   UNL     1     -10.817  12.646  68.447  1.00  0.00    -0.268 A  
HETATM   18  F   UNL     1     -13.626  10.090  70.593  1.00  0.00    -0.417 F  
HETATM   19  F   UNL     1     -11.802  10.059  71.779  1.00  0.00    -0.440 F  
HETATM   20  F   UNL     1     -13.433  11.387  72.326  1.00  0.00    -0.572 F  
ENDBRANCH  10  11
ENDBRANCH   3   7
TORSDOF 2
ENDMDL
MODEL       13
REMARK 921   NORMALIZED FREE ENERGY PREDICTED BY IDOCK:   -6.19 KCAL/MOL
REMARK 922        TOTAL FREE ENERGY PREDICTED BY IDOCK:   -7.18 KCAL/MOL
REMARK 923 INTER-LIGAND FREE ENERGY PREDICTED BY IDOCK:   -7.36 KCAL/MOL
REMARK 924 INTRA-LIGAND FREE ENERGY PREDICTED BY IDOCK:    0.18 KCAL/MOL
REMARK 927      BINDING AFFINITY PREDICTED BY RF-SCORE:    0.00 PKD
ROOT
HETATM    1  C   UNL     1     -13.657  13.596  72.571  1.00  0.00    -0.675 C  
HETATM    2  C   UNL     1     -12.963  12.805  71.530  1.00  0.00    -0.292 A  
HETATM    3  C   UNL     1     -12.276  13.107  70.365  1.00  0.00    -0.389 A  
HETATM    4  O   UNL     1     -12.968  11.459  71.722  1.00  0.00    -0.459 OA 
HETATM    5  C   UNL     1     -11.890  11.833  69.889  1.00  0.00    -0.348 A  
HETATM    6  N   UNL     1     -12.291  10.842  70.685  1.00  0.00    -0.345 NA 
ENDROOT
BRANCH   3   7
HETATM    7  C   UNL     1     -12.074  14.454  69.860  1.00  0.00    -0.344 C  
HETATM    8  O   UNL     1     -12.830  15.346  70.229  1.00  0.00    -0.350 OA 
HETATM    9  H   UNL     1     -10.440  13.834  68.754  1.00  0.00     0.000 HD 
HETATM   10  N   UNL     1     -11.017  14.645  68.977  1.00  0.00    -0.249 N  
BRANCH  10  11
HETATM   11  C   UNL     1     -10.678  15.879  68.362  1.00  0.00    -0.281 A  
HETATM   12  C   UNL     1     -10.526  17.074  69.072  1.00  0.00    -0.337 A  
HETATM   13  C   UNL     1     -10.219  18.274  68.430  1.00  0.00    -0.402 A  
HETATM   14  C   UNL     1     -10.050  18.317  67.046  1.00  0.00    -0.370 A  
HETATM   15  C   UNL     1      -9.742  19.624  66.361  1.00  0.00    -0.409 C  
HETATM   16  C   UNL     1     -10.183  17.120  66.322  1.00  0.00    -0.340 A  
HETATM   17  C   UNL     1     -10.494  15.914  66.975  1.00  0.00    -0.306 A  
HETATM   18  F   UNL     1      -8.545  19.607  65.713  1.00  0.00    -0.332 F  
HETATM   19  F   UNL     1     -10.673  19.955  65.424  1.00  0.00    -0.584 F  
HETATM   20  F   UNL     1      -9.685  20.685  67.216  1.00  0.00    -0.548 F  
ENDBRANCH  10  11
ENDBRANCH   3   7
TORSDOF 2
ENDMDL
MODEL       14
REMARK 921   NORMALIZED FREE ENERGY PREDICTED BY IDOCK:   -6.10 KCAL/MOL
REMARK 922        TOTAL FREE ENERGY PREDICTED BY IDOCK:   -7.08 KCAL/MOL
REMARK 923 INTER-LIGAND FREE ENERGY PREDICTED BY IDOCK:   -6.75 KCAL/MOL
REMARK 924 INTRA-LIGAND FREE ENERGY PREDICTED BY IDOCK:   -0.32 KCAL/MOL
REMARK 927      BINDING AFFINITY PREDICTED BY RF-SCORE:    0.00 PKD
ROOT
HETATM    1  C   UNL     1     -11.201   6.313  72.458  1.00  0.00    -0.316 C  
HETATM    2  C   UNL     1     -11.092   6.584  71.007  1.00  0.00    -0.288 A  
HETATM    3  C   UNL     1     -11.044   7.727  70.224  1.00  0.00    -0.242 A  
HETATM    4  O   UNL     1     -11.010   5.483  70.214  1.00  0.00    -0.269 OA 
HETATM    5  C   UNL     1     -10.937   7.206  68.915  1.00  0.00    -0.070 A  
HETATM    6  N   UNL     1     -10.912   5.873  68.891  1.00  0.00    -0.310 NA 
ENDROOT
BRANCH   3   7
HETATM    7  C   UNL     1     -11.102   9.081  70.748  1.00  0.00    -0.272 C  
HETATM    8  O   UNL     1     -10.240   9.449  71.539  1.00  0.00    -0.308 OA 
HETATM    9  H   UNL     1     -12.800   9.478  69.635  1.00  0.00     0.000 HD 
HETATM   10  N   UNL     1     -12.150   9.882  70.310  1.00  0.00    -0.157 N  
BRANCH  10  11
HETATM   11  C   UNL     1     -12.387  11.219  70.726  1.00  0.00    -0.398 A  
HETATM   12  C   UNL     1     -11.839  12.331  70.081  1.00  0.00    -0.352 A  
HETATM   13  C   UNL     1     -12.072  13.630  70.536  1.00  0.00    -0.411 A  
HETATM   14  C   UNL     1     -12.868  13.859  71.658  1.00  0.00    -0.432 A  
HETATM   15  C   UNL     1     -13.093  15.265  72.153  1.00  0.00    -0.381 C  
HETATM   16  C   UNL     1     -13.439  12.751  72.306  1.00  0.00    -0.591 A  
HETATM   17  C   UNL     1     -13.200  11.444  71.844  1.00  0.00    -0.485 A  
HETATM   18  F   UNL     1     -14.405  15.627  72.127  1.00  0.00    -0.569 F  
HETATM   19  F   UNL     1     -12.680  15.437  73.439  1.00  0.00    -0.430 F  
HETATM   20  F   UNL     1     -12.433  16.210  71.423  1.00  0.00    -0.472 F  
ENDBRANCH  10  11
ENDBRANCH   3   7
TORSDOF 2
ENDMDL
MODEL       15
REMARK 921   NORMALIZED FREE ENERGY PREDICTED BY IDOCK:   -6.05 KCAL/MOL
REMARK 922        TOTAL FREE ENERGY PREDICTED BY IDOCK:   -7.02 KCAL/MOL
REMARK 923 INTER-LIGAND FREE ENERGY PREDICTED BY IDOCK:   -6.66 KCAL/MOL
REMARK 924 INTRA-LIGAND FREE ENERGY PREDICTED BY IDOCK:   -0.37 KCAL/MOL
REMARK 927      BINDING AFFINITY PREDICTED BY RF-SCORE:    0.00 PKD
ROOT
HETATM    1  C   UNL     1     -11.802  11.722  63.431  1.00  0.00    -0.435 C  
HETATM    2  C   UNL     1     -11.927  13.058  64.058  1.00  0.00    -0.456 A  
HETATM    3  C   UNL     1     -11.618  13.589  65.301  1.00  0.00    -0.329 A  
HETATM    4  O   UNL     1     -12.459  14.025  63.265  1.00  0.00    -0.795 OA 
HETATM    5  C   UNL     1     -12.020  14.938  65.172  1.00  0.00    -0.210 A  
HETATM    6  N   UNL     1     -12.520  15.215  63.968  1.00  0.00    -0.738 NA 
ENDROOT
BRANCH   3   7
HETATM    7  C   UNL     1     -11.028  12.833  66.391  1.00  0.00    -0.276 C  
HETATM    8  O   UNL     1      -9.862  13.050  66.701  1.00  0.00    -0.239 OA 
HETATM    9  H   UNL     1     -12.802  11.812  66.692  1.00  0.00     0.000 HD 
HETATM   10  N   UNL     1     -11.840  11.896  67.020  1.00  0.00    -0.214 N  
BRANCH  10  11
HETATM   11  C   UNL     1     -11.437  11.048  68.085  1.00  0.00    -0.302 A  
HETATM   12  C   UNL     1     -10.825   9.807  67.888  1.00  0.00    -0.298 A  
HETATM   13  C   UNL     1     -10.467   8.988  68.959  1.00  0.00    -0.235 A  
HETATM   14  C   UNL     1     -10.709   9.388  70.273  1.00  0.00    -0.299 A  
HETATM   15  C   UNL     1     -10.339   8.484  71.421  1.00  0.00    -0.239 C  
HETATM   16  C   UNL     1     -11.308  10.641  70.487  1.00  0.00    -0.355 A  
HETATM   17  C   UNL     1     -11.668  11.462  69.403  1.00  0.00    -0.406 A  
HETATM   18  F   UNL     1      -9.421   9.044  72.255  1.00  0.00    -0.354 F  
HETATM   19  F   UNL     1     -11.410   8.163  72.199  1.00  0.00    -0.295 F  
HETATM   20  F   UNL     1      -9.802   7.294  71.024  1.00  0.00    -0.181 F  
ENDBRANCH  10  11
ENDBRANCH   3   7
TORSDOF 2
ENDMDL
MODEL       16
REMARK 921   NORMALIZED FREE ENERGY PREDICTED BY IDOCK:   -6.00 KCAL/MOL
REMARK 922        TOTAL FREE ENERGY PREDICTED BY IDOCK:   -6.96 KCAL/MOL
REMARK 923 INTER-LIGAND FREE ENERGY PREDICTED BY IDOCK:   -6.69 KCAL/MOL
REMARK 924 INTRA-LIGAND FREE ENERGY PREDICTED BY IDOCK:   -0.27 KCAL/MOL
REMARK 927      BINDING AFFINITY PREDICTED BY RF-SCORE:    0.00 PKD
ROOT
HETATM    1  C   UNL     1     -10.109   8.123  67.256  1.00  0.00    -0.309 C  
HETATM    2  C   UNL     1     -10.433   7.389  68.500  1.00  0.00    -0.186 A  
HETATM    3  C   UNL     1     -10.743   7.754  69.801  1.00  0.00    -0.236 A  
HETATM    4  O   UNL     1     -10.448   6.034  68.389  1.00  0.00    -0.188 OA 
HETATM    5  C   UNL     1     -10.930   6.507  70.439  1.00  0.00    -0.298 A  
HETATM    6  N   UNL     1     -10.761   5.474  69.615  1.00  0.00    -0.321 NA 
ENDROOT
BRANCH   3   7
HETATM    7  C   UNL     1     -10.821   9.127  70.269  1.00  0.00    -0.246 C  
HETATM    8  O   UNL     1      -9.800   9.678  70.664  1.00  0.00    -0.265 OA 
HETATM    9  H   UNL     1     -12.849   9.187  69.868  1.00  0.00     0.000 HD 
HETATM   10  N   UNL     1     -12.071   9.734  70.235  1.00  0.00    -0.110 N  
BRANCH  10  11
HETATM   11  C   UNL     1     -12.349  11.057  70.671  1.00  0.00    -0.386 A  
HETATM   12  C   UNL     1     -13.119  11.345  71.802  1.00  0.00    -0.523 A  
HETATM   13  C   UNL     1     -13.395  12.659  72.184  1.00  0.00    -0.570 A  
HETATM   14  C   UNL     1     -12.904  13.734  71.443  1.00  0.00    -0.449 A  
HETATM   15  C   UNL     1     -13.229  15.147  71.854  1.00  0.00    -0.384 C  
HETATM   16  C   UNL     1     -12.115  13.458  70.314  1.00  0.00    -0.419 A  
HETATM   17  C   UNL     1     -11.841  12.133  69.932  1.00  0.00    -0.392 A  
HETATM   18  F   UNL     1     -12.119  15.873  72.159  1.00  0.00    -0.396 F  
HETATM   19  F   UNL     1     -13.874  15.840  70.874  1.00  0.00    -0.490 F  
HETATM   20  F   UNL     1     -14.035  15.223  72.951  1.00  0.00    -0.518 F  
ENDBRANCH  10  11
ENDBRANCH   3   7
TORSDOF 2
ENDMDL
MODEL       17
REMARK 921   NORMALIZED FREE ENERGY PREDICTED BY IDOCK:   -5.97 KCAL/MOL
REMARK 922        TOTAL FREE ENERGY PREDICTED BY IDOCK:   -6.94 KCAL/MOL
REMARK 923 INTER-LIGAND FREE ENERGY PREDICTED BY IDOCK:   -6.68 KCAL/MOL
REMARK 924 INTRA-LIGAND FREE ENERGY PREDICTED BY IDOCK:   -0.26 KCAL/MOL
REMARK 927      BINDING AFFINITY PREDICTED BY RF-SCORE:    0.00 PKD
ROOT
HETATM    1  C   UNL     1     -11.384  15.943  68.505  1.00  0.00    -0.374 C  
HETATM    2  C   UNL     1     -10.973  15.449  67.170  1.00  0.00    -0.317 A  
HETATM    3  C   UNL     1     -10.930  14.208  66.555  1.00  0.00    -0.309 A  
HETATM    4  O   UNL     1     -10.532  16.403  66.308  1.00  0.00    -0.309 OA 
HETATM    5  C   UNL     1     -10.422  14.513  65.272  1.00  0.00    -0.390 A  
HETATM    6  N   UNL     1     -10.182  15.813  65.107  1.00  0.00    -0.468 NA 
ENDROOT
BRANCH   3   7
HETATM    7  C   UNL     1     -11.337  12.966  67.189  1.00  0.00    -0.306 C  
HETATM    8  O   UNL     1     -12.158  12.252  66.624  1.00  0.00    -0.612 OA 
HETATM    9  H   UNL     1     -10.071  13.323  68.785  1.00  0.00     0.000 HD 
HETATM   10  N   UNL     1     -10.757  12.666  68.416  1.00  0.00    -0.235 N  
BRANCH  10  11
HETATM   11  C   UNL     1     -11.045  11.514  69.196  1.00  0.00    -0.259 A  
HETATM   12  C   UNL     1     -10.318  10.324  69.103  1.00  0.00    -0.241 A  
HETATM   13  C   UNL     1     -10.648   9.203  69.867  1.00  0.00    -0.246 A  
HETATM   14  C   UNL     1     -11.722   9.239  70.756  1.00  0.00    -0.328 A  
HETATM   15  C   UNL     1     -12.081   8.014  71.558  1.00  0.00    -0.298 C  
HETATM   16  C   UNL     1     -12.450  10.435  70.872  1.00  0.00    -0.478 A  
HETATM   17  C   UNL     1     -12.114  11.561  70.099  1.00  0.00    -0.432 A  
HETATM   18  F   UNL     1     -11.986   8.219  72.900  1.00  0.00    -0.460 F  
HETATM   19  F   UNL     1     -13.359   7.598  71.330  1.00  0.00    -0.350 F  
HETATM   20  F   UNL     1     -11.289   6.937  71.290  1.00  0.00    -0.268 F  
ENDBRANCH  10  11
ENDBRANCH   3   7
TORSDOF 2
ENDMDL
MODEL       18
REMARK 921   NORMALIZED FREE ENERGY PREDICTED BY IDOCK:   -5.97 KCAL/MOL
REMARK 922        TOTAL FREE ENERGY PREDICTED BY IDOCK:   -6.93 KCAL/MOL
REMARK 923 INTER-LIGAND FREE ENERGY PREDICTED BY IDOCK:   -6.61 KCAL/MOL
REMARK 924 INTRA-LIGAND FREE ENERGY PREDICTED BY IDOCK:   -0.32 KCAL/MOL
REMARK 927      BINDING AFFINITY PREDICTED BY RF-SCORE:    0.00 PKD
ROOT
HETATM    1  C   UNL     1     -11.240   6.480  70.417  1.00  0.00    -0.414 C  
HETATM    2  C   UNL     1     -10.918   7.167  69.144  1.00  0.00    -0.113 A  
HETATM    3  C   UNL     1     -10.741   8.487  68.761  1.00  0.00    -0.089 A  
HETATM    4  O   UNL     1     -10.740   6.350  68.072  1.00  0.00    -0.229 OA 
HETATM    5  C   UNL     1     -10.454   8.376  67.382  1.00  0.00    -0.283 A  
HETATM    6  N   UNL     1     -10.447   7.113  66.956  1.00  0.00    -0.300 NA 
ENDROOT
BRANCH   3   7
HETATM    7  C   UNL     1     -10.853   9.622  69.660  1.00  0.00    -0.244 C  
HETATM    8  O   UNL     1     -10.067   9.719  70.595  1.00  0.00    -0.272 OA 
HETATM    9  H   UNL     1     -12.449  10.369  68.576  1.00  0.00     0.000 HD 
HETATM   10  N   UNL     1     -11.864  10.539  69.394  1.00  0.00    -0.238 N  
BRANCH  10  11
HETATM   11  C   UNL     1     -12.145  11.694  70.170  1.00  0.00    -0.333 A  
HETATM   12  C   UNL     1     -11.707  12.976  69.824  1.00  0.00    -0.346 A  
HETATM   13  C   UNL     1     -11.979  14.085  70.627  1.00  0.00    -0.376 A  
HETATM   14  C   UNL     1     -12.705  13.946  71.810  1.00  0.00    -0.393 A  
HETATM   15  C   UNL     1     -12.972  15.147  72.680  1.00  0.00    -0.400 C  
HETATM   16  C   UNL     1     -13.165  12.666  72.161  1.00  0.00    -0.527 A  
HETATM   17  C   UNL     1     -12.887  11.552  71.349  1.00  0.00    -0.489 A  
HETATM   18  F   UNL     1     -14.300  15.406  72.824  1.00  0.00    -0.529 F  
HETATM   19  F   UNL     1     -12.478  14.998  73.941  1.00  0.00    -0.556 F  
HETATM   20  F   UNL     1     -12.419  16.299  72.201  1.00  0.00    -0.482 F  
ENDBRANCH  10  11
ENDBRANCH   3   7
TORSDOF 2
ENDMDL
MODEL       19
REMARK 921   NORMALIZED FREE ENERGY PREDICTED BY IDOCK:   -5.93 KCAL/MOL
REMARK 922        TOTAL FREE ENERGY PREDICTED BY IDOCK:   -6.88 KCAL/MOL
REMARK 923 INTER-LIGAND FREE ENERGY PREDICTED BY IDOCK:   -7.40 KCAL/MOL
REMARK 924 INTRA-LIGAND FREE ENERGY PREDICTED BY IDOCK:    0.51 KCAL/MOL
REMARK 927      BINDING AFFINITY PREDICTED BY RF-SCORE:    0.00 PKD
ROOT
HETATM    1  C   UNL     1     -11.307  16.438  70.802  1.00  0.00    -0.211 C  
HETATM    2  C   UNL     1     -12.045  15.459  71.634  1.00  0.00    -0.380 A  
HETATM    3  C   UNL     1     -12.441  14.140  71.475  1.00  0.00    -0.423 A  
HETATM    4  O   UNL     1     -12.441  15.913  72.852  1.00  0.00    -0.396 OA 
HETATM    5  C   UNL     1     -13.107  13.866  72.691  1.00  0.00    -0.429 A  
HETATM    6  N   UNL     1     -13.114  14.907  73.522  1.00  0.00    -0.526 NA 
ENDROOT
BRANCH   3   7
HETATM    7  C   UNL     1     -12.176  13.343  70.290  1.00  0.00    -0.335 C  
HETATM    8  O   UNL     1     -11.973  12.141  70.417  1.00  0.00    -0.343 OA 
HETATM    9  H   UNL     1     -12.372  15.009  69.080  1.00  0.00     0.000 HD 
HETATM   10  N   UNL     1     -12.171  14.009  69.070  1.00  0.00    -0.316 N  
BRANCH  10  11
HETATM   11  C   UNL     1     -11.909  13.407  67.811  1.00  0.00    -0.358 A  
HETATM   12  C   UNL     1     -11.431  12.101  67.670  1.00  0.00    -0.399 A  
HETATM   13  C   UNL     1     -11.159  11.552  66.416  1.00  0.00    -0.328 A  
HETATM   14  C   UNL     1     -11.360  12.297  65.254  1.00  0.00    -0.384 A  
HETATM   15  C   UNL     1     -11.040  11.701  63.907  1.00  0.00    -0.401 C  
HETATM   16  C   UNL     1     -11.857  13.606  65.380  1.00  0.00    -0.370 A  
HETATM   17  C   UNL     1     -12.128  14.154  66.647  1.00  0.00    -0.480 A  
HETATM   18  F   UNL     1     -12.131  11.618  63.098  1.00  0.00    -0.536 F  
HETATM   19  F   UNL     1     -10.116  12.429  63.221  1.00  0.00    -0.399 F  
HETATM   20  F   UNL     1     -10.534  10.436  63.979  1.00  0.00    -0.380 F  
ENDBRANCH  10  11
ENDBRANCH   3   7
TORSDOF 2
ENDMDL
MODEL       20
REMARK 921   NORMALIZED FREE ENERGY PREDICTED BY IDOCK:   -5.88 KCAL/MOL
REMARK 922        TOTAL FREE ENERGY PREDICTED BY IDOCK:   -6.83 KCAL/MOL
REMARK 923 INTER-LIGAND FREE ENERGY PREDICTED BY IDOCK:   -6.78 KCAL/MOL
REMARK 924 INTRA-LIGAND FREE ENERGY PREDICTED BY IDOCK:   -0.05 KCAL/MOL
REMARK 927      BINDING AFFINITY PREDICTED BY RF-SCORE:    0.00 PKD
ROOT
HETATM    1  C   UNL     1     -12.708  13.317  71.450  1.00  0.00    -0.401 C  
HETATM    2  C   UNL     1     -12.065  12.392  70.489  1.00  0.00    -0.275 A  
HETATM    3  C   UNL     1     -11.525  12.518  69.219  1.00  0.00    -0.353 A  
HETATM    4  O   UNL     1     -11.947  11.105  70.911  1.00  0.00    -0.331 OA 
HETATM    5  C   UNL     1     -11.093  11.204  68.930  1.00  0.00    -0.237 A  
HETATM    6  N   UNL     1     -11.334  10.351  69.926  1.00  0.00    -0.281 NA 
ENDROOT
BRANCH   3   7
HETATM    7  C   UNL     1     -11.479  13.762  68.469  1.00  0.00    -0.307 C  
HETATM    8  O   UNL     1     -12.198  13.888  67.485  1.00  0.00    -0.366 OA 
HETATM    9  H   UNL     1     -10.068  14.536  69.770  1.00  0.00     0.000 HD 
HETATM   10  N   UNL     1     -10.606  14.742  68.928  1.00  0.00    -0.243 N  
BRANCH  10  11
HETATM   11  C   UNL     1     -10.405  16.008  68.317  1.00  0.00    -0.261 A  
HETATM   12  C   UNL     1     -10.437  17.214  69.023  1.00  0.00    -0.321 A  
HETATM   13  C   UNL     1     -10.262  18.442  68.384  1.00  0.00    -0.407 A  
HETATM   14  C   UNL     1     -10.046  18.503  67.007  1.00  0.00    -0.385 A  
HETATM   15  C   UNL     1      -9.882  19.838  66.325  1.00  0.00    -0.455 C  
HETATM   16  C   UNL     1      -9.994  17.298  66.288  1.00  0.00    -0.311 A  
HETATM   17  C   UNL     1     -10.172  16.063  66.937  1.00  0.00    -0.280 A  
HETATM   18  F   UNL     1      -8.668  19.974  65.724  1.00  0.00    -0.374 F  
HETATM   19  F   UNL     1     -10.810  20.042  65.350  1.00  0.00    -0.583 F  
HETATM   20  F   UNL     1      -9.997  20.899  67.173  1.00  0.00    -0.607 F  
ENDBRANCH  10  11
ENDBRANCH   3   7
TORSDOF 2
ENDMDL
MODEL       21
REMARK 921   NORMALIZED FREE ENERGY PREDICTED BY IDOCK:   -5.85 KCAL/MOL
REMARK 922        TOTAL FREE ENERGY PREDICTED BY IDOCK:   -6.80 KCAL/MOL
REMARK 923 INTER-LIGAND FREE ENERGY PREDICTED BY IDOCK:   -6.51 KCAL/MOL
REMARK 924 INTRA-LIGAND FREE ENERGY PREDICTED BY IDOCK:   -0.29 KCAL/MOL
REMARK 927      BINDING AFFINITY PREDICTED BY RF-SCORE:    0.00 PKD
ROOT
HETATM    1  C   UNL     1      -9.545  19.803  68.441  1.00  0.00    -0.454 C  
HETATM    2  C   UNL     1      -8.188  19.231  68.601  1.00  0.00    -0.373 A  
HETATM    3  C   UNL     1      -7.482  18.201  68.000  1.00  0.00    -0.242 A  
HETATM    4  O   UNL     1      -7.412  19.830  69.542  1.00  0.00    -0.255 OA 
HETATM    5  C   UNL     1      -6.239  18.241  68.672  1.00  0.00    -0.208 A  
HETATM    6  N   UNL     1      -6.179  19.205  69.590  1.00  0.00    -0.265 NA 
ENDROOT
BRANCH   3   7
HETATM    7  C   UNL     1      -8.010  17.353  66.945  1.00  0.00    -0.227 C  
HETATM    8  O   UNL     1      -7.560  17.469  65.811  1.00  0.00    -0.514 OA 
HETATM    9  H   UNL     1      -9.292  16.428  68.279  1.00  0.00     0.000 HD 
HETATM   10  N   UNL     1      -9.007  16.452  67.301  1.00  0.00    -0.193 N  
BRANCH  10  11
HETATM   11  C   UNL     1      -9.660  15.561  66.408  1.00  0.00    -0.291 A  
HETATM   12  C   UNL     1     -10.517  15.988  65.389  1.00  0.00    -0.415 A  
HETATM   13  C   UNL     1     -11.163  15.081  64.548  1.00  0.00    -0.276 A  
HETATM   14  C   UNL     1     -10.969  13.708  64.698  1.00  0.00    -0.403 A  
HETATM   15  C   UNL     1     -11.690  12.738  63.798  1.00  0.00    -0.493 C  
HETATM   16  C   UNL     1     -10.096  13.266  65.707  1.00  0.00    -0.293 A  
HETATM   17  C   UNL     1      -9.449  14.184  66.553  1.00  0.00    -0.303 A  
HETATM   18  F   UNL     1     -10.839  11.977  63.057  1.00  0.00    -0.388 F  
HETATM   19  F   UNL     1     -12.470  11.863  64.493  1.00  0.00    -0.385 F  
HETATM   20  F   UNL     1     -12.522  13.344  62.903  1.00  0.00    -0.531 F  
ENDBRANCH  10  11
ENDBRANCH   3   7
TORSDOF 2
ENDMDL
MODEL       22
REMARK 921   NORMALIZED FREE ENERGY PREDICTED BY IDOCK:   -5.84 KCAL/MOL
REMARK 922        TOTAL FREE ENERGY PREDICTED BY IDOCK:   -6.79 KCAL/MOL
REMARK 923 INTER-LIGAND FREE ENERGY PREDICTED BY IDOCK:   -6.62 KCAL/MOL
REMARK 924 INTRA-LIGAND FREE ENERGY PREDICTED BY IDOCK:   -0.17 KCAL/MOL
REMARK 927      BINDING AFFINITY PREDICTED BY RF-SCORE:    0.00 PKD
ROOT
HETATM    1  C   UNL     1      -9.578  15.562  66.363  1.00  0.00    -0.317 C  
HETATM    2  C   UNL     1     -10.850  15.017  65.835  1.00  0.00    -0.337 A  
HETATM    3  C   UNL     1     -11.774  14.083  66.277  1.00  0.00    -0.401 A  
HETATM    4  O   UNL     1     -11.251  15.529  64.642  1.00  0.00    -0.423 OA 
HETATM    5  C   UNL     1     -12.738  14.085  65.244  1.00  0.00    -0.439 A  
HETATM    6  N   UNL     1     -12.445  14.940  64.265  1.00  0.00    -0.726 NA 
ENDROOT
BRANCH   3   7
HETATM    7  C   UNL     1     -11.659  13.345  67.523  1.00  0.00    -0.344 C  
HETATM    8  O   UNL     1     -11.935  13.911  68.575  1.00  0.00    -0.352 OA 
HETATM    9  H   UNL     1     -11.054  11.649  66.505  1.00  0.00     0.000 HD 
HETATM   10  N   UNL     1     -11.238  12.023  67.436  1.00  0.00    -0.286 N  
BRANCH  10  11
HETATM   11  C   UNL     1     -11.044  11.153  68.541  1.00  0.00    -0.244 A  
HETATM   12  C   UNL     1     -12.025  10.907  69.505  1.00  0.00    -0.401 A  
HETATM   13  C   UNL     1     -11.789  10.066  70.594  1.00  0.00    -0.411 A  
HETATM   14  C   UNL     1     -10.554   9.437  70.752  1.00  0.00    -0.371 A  
HETATM   15  C   UNL     1     -10.304   8.549  71.944  1.00  0.00    -0.308 C  
HETATM   16  C   UNL     1      -9.564   9.661  69.780  1.00  0.00    -0.242 A  
HETATM   17  C   UNL     1      -9.807  10.511  68.686  1.00  0.00    -0.183 A  
HETATM   18  F   UNL     1     -10.023   7.265  71.592  1.00  0.00    -0.179 F  
HETATM   19  F   UNL     1      -9.250   8.972  72.697  1.00  0.00    -0.238 F  
HETATM   20  F   UNL     1     -11.363   8.477  72.799  1.00  0.00    -0.422 F  
ENDBRANCH  10  11
ENDBRANCH   3   7
TORSDOF 2
ENDMDL
MODEL       23
REMARK 921   NORMALIZED FREE ENERGY PREDICTED BY IDOCK:   -5.82 KCAL/MOL
REMARK 922        TOTAL FREE ENERGY PREDICTED BY IDOCK:   -6.76 KCAL/MOL
REMARK 923 INTER-LIGAND FREE ENERGY PREDICTED BY IDOCK:   -6.65 KCAL/MOL
REMARK 924 INTRA-LIGAND FREE ENERGY PREDICTED BY IDOCK:   -0.11 KCAL/MOL
REMARK 927      BINDING AFFINITY PREDICTED BY RF-SCORE:    0.00 PKD
ROOT
HETATM    1  C   UNL     1     -10.527  10.356  66.054  1.00  0.00    -0.211 C  
HETATM    2  C   UNL     1     -11.039  11.630  65.497  1.00  0.00    -0.237 A  
HETATM    3  C   UNL     1     -11.605  12.775  66.034  1.00  0.00    -0.432 A  
HETATM    4  O   UNL     1     -10.946  11.753  64.147  1.00  0.00    -0.324 OA 
HETATM    5  C   UNL     1     -11.842  13.571  64.890  1.00  0.00    -0.374 A  
HETATM    6  N   UNL     1     -11.455  12.980  63.760  1.00  0.00    -0.436 NA 
ENDROOT
BRANCH   3   7
HETATM    7  C   UNL     1     -11.845  12.983  67.451  1.00  0.00    -0.357 C  
HETATM    8  O   UNL     1     -12.187  12.029  68.141  1.00  0.00    -0.428 OA 
HETATM    9  H   UNL     1     -11.363  14.987  67.276  1.00  0.00     0.000 HD 
HETATM   10  N   UNL     1     -11.668  14.273  67.937  1.00  0.00    -0.342 N  
BRANCH  10  11
HETATM   11  C   UNL     1     -11.878  14.675  69.283  1.00  0.00    -0.321 A  
HETATM   12  C   UNL     1     -13.145  14.781  69.863  1.00  0.00     0.287 A  
HETATM   13  C   UNL     1     -13.314  15.206  71.182  1.00  0.00    -0.535 A  
HETATM   14  C   UNL     1     -12.212  15.540  71.969  1.00  0.00    -0.484 A  
HETATM   15  C   UNL     1     -12.410  16.020  73.384  1.00  0.00    -0.548 C  
HETATM   16  C   UNL     1     -10.931  15.422  71.404  1.00  0.00    -0.200 A  
HETATM   17  C   UNL     1     -10.767  14.994  70.074  1.00  0.00    -0.216 A  
HETATM   18  F   UNL     1     -11.821  15.206  74.301  1.00  0.00    -0.615 F  
HETATM   19  F   UNL     1     -11.886  17.261  73.591  1.00  0.00    -0.408 F  
HETATM   20  F   UNL     1     -13.720  16.107  73.750  1.00  0.00    -0.472 F  
ENDBRANCH  10  11
ENDBRANCH   3   7
TORSDOF 2
ENDMDL
MODEL       24
REMARK 921   NORMALIZED FREE ENERGY PREDICTED BY IDOCK:   -5.81 KCAL/MOL
REMARK 922        TOTAL FREE ENERGY PREDICTED BY IDOCK:   -6.75 KCAL/MOL
REMARK 923 INTER-LIGAND FREE ENERGY PREDICTED BY IDOCK:   -6.79 KCAL/MOL
REMARK 924 INTRA-LIGAND FREE ENERGY PREDICTED BY IDOCK:    0.04 KCAL/MOL
REMARK 927      BINDING AFFINITY PREDICTED BY RF-SCORE:    0.00 PKD
ROOT
HETATM    1  C   UNL     1      -9.536  15.286  66.550  1.00  0.00    -0.308 C  
HETATM    2  C   UNL     1     -10.571  15.361  65.494  1.00  0.00    -0.383 A  
HETATM    3  C   UNL     1     -11.513  14.483  64.981  1.00  0.00    -0.382 A  
HETATM    4  O   UNL     1     -10.661  16.556  64.852  1.00  0.00    -0.702 OA 
HETATM    5  C   UNL     1     -12.152  15.257  63.985  1.00  0.00    -0.010 A  
HETATM    6  N   UNL     1     -11.660  16.492  63.897  1.00  0.00    -1.071 NA 
ENDROOT
BRANCH   3   7
HETATM    7  C   UNL     1     -11.696  13.118  65.442  1.00  0.00    -0.350 C  
HETATM    8  O   UNL     1     -12.773  12.566  65.248  1.00  0.00    -0.654 OA 
HETATM    9  H   UNL     1      -9.762  13.067  66.174  1.00  0.00     0.000 HD 
HETATM   10  N   UNL     1     -10.618  12.520  66.084  1.00  0.00    -0.249 N  
BRANCH  10  11
HETATM   11  C   UNL     1     -10.614  11.206  66.624  1.00  0.00    -0.264 A  
HETATM   12  C   UNL     1     -11.072  10.904  67.909  1.00  0.00    -0.362 A  
HETATM   13  C   UNL     1     -11.027   9.604  68.416  1.00  0.00    -0.161 A  
HETATM   14  C   UNL     1     -10.520   8.558  67.646  1.00  0.00    -0.308 A  
HETATM   15  C   UNL     1     -10.456   7.163  68.214  1.00  0.00    -0.198 C  
HETATM   16  C   UNL     1     -10.073   8.844  66.346  1.00  0.00    -0.333 A  
HETATM   17  C   UNL     1     -10.119  10.156  65.841  1.00  0.00    -0.325 A  
HETATM   18  F   UNL     1     -11.203   6.273  67.506  1.00  0.00    -0.374 F  
HETATM   19  F   UNL     1      -9.188   6.664  68.228  1.00  0.00    -0.125 F  
HETATM   20  F   UNL     1     -10.900   7.079  69.501  1.00  0.00    -0.228 F  
ENDBRANCH  10  11
ENDBRANCH   3   7
TORSDOF 2
ENDMDL
MODEL       25
REMARK 921   NORMALIZED FREE ENERGY PREDICTED BY IDOCK:   -5.79 KCAL/MOL
REMARK 922        TOTAL FREE ENERGY PREDICTED BY IDOCK:   -6.73 KCAL/MOL
REMARK 923 INTER-LIGAND FREE ENERGY PREDICTED BY IDOCK:   -6.39 KCAL/MOL
REMARK 924 INTRA-LIGAND FREE ENERGY PREDICTED BY IDOCK:   -0.34 KCAL/MOL
REMARK 927      BINDING AFFINITY PREDICTED BY RF-SCORE:    0.00 PKD
ROOT
HETATM    1  C   UNL     1     -11.873  10.945  69.186  1.00  0.00    -0.389 C  
HETATM    2  C   UNL     1     -11.207  10.766  67.876  1.00  0.00    -0.318 A  
HETATM    3  C   UNL     1     -10.846  11.609  66.837  1.00  0.00    -0.322 A  
HETATM    4  O   UNL     1     -10.838   9.491  67.581  1.00  0.00    -0.279 OA 
HETATM    5  C   UNL     1     -10.248  10.725  65.911  1.00  0.00    -0.259 A  
HETATM    6  N   UNL     1     -10.232   9.463  66.337  1.00  0.00    -0.258 NA 
ENDROOT
BRANCH   3   7
HETATM    7  C   UNL     1     -11.086  13.041  66.824  1.00  0.00    -0.286 C  
HETATM    8  O   UNL     1     -12.134  13.463  66.348  1.00  0.00    -0.404 OA 
HETATM    9  H   UNL     1      -9.270  13.391  67.749  1.00  0.00     0.000 HD 
HETATM   10  N   UNL     1     -10.093  13.851  67.363  1.00  0.00    -0.242 N  
BRANCH  10  11
HETATM   11  C   UNL     1     -10.136  15.270  67.418  1.00  0.00    -0.232 A  
HETATM   12  C   UNL     1     -10.444  15.983  68.580  1.00  0.00    -0.251 A  
HETATM   13  C   UNL     1     -10.503  17.377  68.590  1.00  0.00    -0.355 A  
HETATM   14  C   UNL     1     -10.253  18.108  67.429  1.00  0.00    -0.383 A  
HETATM   15  C   UNL     1     -10.343  19.613  67.447  1.00  0.00    -0.453 C  
HETATM   16  C   UNL     1      -9.925  17.405  66.258  1.00  0.00    -0.306 A  
HETATM   17  C   UNL     1      -9.868  15.999  66.253  1.00  0.00    -0.331 A  
HETATM   18  F   UNL     1      -9.163  20.213  67.134  1.00  0.00    -0.391 F  
HETATM   19  F   UNL     1     -11.257  20.091  66.557  1.00  0.00    -0.445 F  
HETATM   20  F   UNL     1     -10.708  20.121  68.659  1.00  0.00    -0.491 F  
ENDBRANCH  10  11
ENDBRANCH   3   7
TORSDOF 2
ENDMDL
MODEL       26
REMARK 921   NORMALIZED FREE ENERGY PREDICTED BY IDOCK:   -5.77 KCAL/MOL
REMARK 922        TOTAL FREE ENERGY PREDICTED BY IDOCK:   -6.71 KCAL/MOL
REMARK 923 INTER-LIGAND FREE ENERGY PREDICTED BY IDOCK:   -6.37 KCAL/MOL
REMARK 924 INTRA-LIGAND FREE ENERGY PREDICTED BY IDOCK:   -0.34 KCAL/MOL
REMARK 927      BINDING AFFINITY PREDICTED BY RF-SCORE:    0.00 PKD
ROOT
HETATM    1  C   UNL     1     -10.040  19.662  68.548  1.00  0.00    -0.557 C  
HETATM    2  C   UNL     1      -8.633  19.206  68.606  1.00  0.00    -0.361 A  
HETATM    3  C   UNL     1      -7.899  18.210  67.981  1.00  0.00    -0.266 A  
HETATM    4  O   UNL     1      -7.831  19.902  69.454  1.00  0.00    -0.130 OA 
HETATM    5  C   UNL     1      -6.611  18.374  68.538  1.00  0.00    -0.236 A  
HETATM    6  N   UNL     1      -6.551  19.377  69.413  1.00  0.00    -0.321 NA 
ENDROOT
BRANCH   3   7
HETATM    7  C   UNL     1      -8.445  17.281  67.006  1.00  0.00    -0.219 C  
HETATM    8  O   UNL     1      -8.170  17.435  65.821  1.00  0.00    -0.540 OA 
HETATM    9  H   UNL     1      -9.403  16.218  68.500  1.00  0.00     0.000 HD 
HETATM   10  N   UNL     1      -9.256  16.262  67.491  1.00  0.00    -0.204 N  
BRANCH  10  11
HETATM   11  C   UNL     1      -9.897  15.277  66.694  1.00  0.00    -0.250 A  
HETATM   12  C   UNL     1      -9.428  13.966  66.572  1.00  0.00    -0.288 A  
HETATM   13  C   UNL     1     -10.069  13.032  65.756  1.00  0.00    -0.294 A  
HETATM   14  C   UNL     1     -11.209  13.383  65.033  1.00  0.00    -0.332 A  
HETATM   15  C   UNL     1     -11.879  12.371  64.138  1.00  0.00    -0.413 C  
HETATM   16  C   UNL     1     -11.701  14.693  65.160  1.00  0.00    -0.364 A  
HETATM   17  C   UNL     1     -11.050  15.630  65.983  1.00  0.00    -0.136 A  
HETATM   18  F   UNL     1     -13.161  12.107  64.512  1.00  0.00    -0.529 F  
HETATM   19  F   UNL     1     -11.942  12.784  62.841  1.00  0.00    -0.515 F  
HETATM   20  F   UNL     1     -11.244  11.165  64.111  1.00  0.00    -0.416 F  
ENDBRANCH  10  11
ENDBRANCH   3   7
TORSDOF 2
ENDMDL
MODEL       27
REMARK 921   NORMALIZED FREE ENERGY PREDICTED BY IDOCK:   -5.77 KCAL/MOL
REMARK 922        TOTAL FREE ENERGY PREDICTED BY IDOCK:   -6.71 KCAL/MOL
REMARK 923 INTER-LIGAND FREE ENERGY PREDICTED BY IDOCK:   -6.54 KCAL/MOL
REMARK 924 INTRA-LIGAND FREE ENERGY PREDICTED BY IDOCK:   -0.16 KCAL/MOL
REMARK 927      BINDING AFFINITY PREDICTED BY RF-SCORE:    0.00 PKD
ROOT
HETATM    1  C   UNL     1      -9.927   8.770  71.363  1.00  0.00    -0.354 C  
HETATM    2  C   UNL     1     -11.327   9.234  71.500  1.00  0.00    -0.385 A  
HETATM    3  C   UNL     1     -12.124  10.151  70.833  1.00  0.00    -0.453 A  
HETATM    4  O   UNL     1     -12.039   8.647  72.497  1.00  0.00    -0.374 OA 
HETATM    5  C   UNL     1     -13.353  10.058  71.525  1.00  0.00    -0.361 A  
HETATM    6  N   UNL     1     -13.321   9.168  72.516  1.00  0.00    -0.460 NA 
ENDROOT
BRANCH   3   7
HETATM    7  C   UNL     1     -11.681  10.954  69.707  1.00  0.00    -0.338 C  
HETATM    8  O   UNL     1     -11.037  10.418  68.812  1.00  0.00    -0.231 OA 
HETATM    9  H   UNL     1     -12.579  12.637  70.507  1.00  0.00     0.000 HD 
HETATM   10  N   UNL     1     -12.023  12.302  69.720  1.00  0.00    -0.313 N  
BRANCH  10  11
HETATM   11  C   UNL     1     -11.662  13.247  68.724  1.00  0.00    -0.329 A  
HETATM   12  C   UNL     1     -12.192  13.240  67.431  1.00  0.00    -0.236 A  
HETATM   13  C   UNL     1     -11.792  14.169  66.470  1.00  0.00    -0.439 A  
HETATM   14  C   UNL     1     -10.843  15.144  66.775  1.00  0.00    -0.322 A  
HETATM   15  C   UNL     1     -10.402  16.128  65.721  1.00  0.00    -0.378 C  
HETATM   16  C   UNL     1     -10.314  15.174  68.077  1.00  0.00    -0.240 A  
HETATM   17  C   UNL     1     -10.720  14.234  69.041  1.00  0.00    -0.259 A  
HETATM   18  F   UNL     1     -10.677  17.417  66.059  1.00  0.00    -0.331 F  
HETATM   19  F   UNL     1      -9.060  16.078  65.490  1.00  0.00    -0.299 F  
HETATM   20  F   UNL     1     -10.993  15.927  64.509  1.00  0.00    -0.438 F  
ENDBRANCH  10  11
ENDBRANCH   3   7
TORSDOF 2
ENDMDL
MODEL       28
REMARK 921   NORMALIZED FREE ENERGY PREDICTED BY IDOCK:   -5.76 KCAL/MOL
REMARK 922        TOTAL FREE ENERGY PREDICTED BY IDOCK:   -6.69 KCAL/MOL
REMARK 923 INTER-LIGAND FREE ENERGY PREDICTED BY IDOCK:   -6.43 KCAL/MOL
REMARK 924 INTRA-LIGAND FREE ENERGY PREDICTED BY IDOCK:   -0.26 KCAL/MOL
REMARK 927      BINDING AFFINITY PREDICTED BY RF-SCORE:    0.00 PKD
ROOT
HETATM    1  C   UNL     1     -10.906  11.291  66.853  1.00  0.00    -0.333 C  
HETATM    2  C   UNL     1     -10.611  11.539  65.423  1.00  0.00    -0.282 A  
HETATM    3  C   UNL     1     -10.443  12.669  64.639  1.00  0.00    -0.361 A  
HETATM    4  O   UNL     1     -10.454  10.424  64.660  1.00  0.00    -0.259 OA 
HETATM    5  C   UNL     1     -10.184  12.126  63.360  1.00  0.00    -0.388 A  
HETATM    6  N   UNL     1     -10.185  10.794  63.354  1.00  0.00    -0.295 NA 
ENDROOT
BRANCH   3   7
HETATM    7  C   UNL     1     -10.538  14.031  65.135  1.00  0.00    -0.386 C  
HETATM    8  O   UNL     1     -11.342  14.797  64.616  1.00  0.00    -0.389 OA 
HETATM    9  H   UNL     1      -9.079  13.655  66.553  1.00  0.00     0.000 HD 
HETATM   10  N   UNL     1      -9.696  14.379  66.185  1.00  0.00    -0.311 N  
BRANCH  10  11
HETATM   11  C   UNL     1      -9.627  15.664  66.786  1.00  0.00    -0.240 A  
HETATM   12  C   UNL     1     -10.563  16.128  67.714  1.00  0.00    -0.309 A  
HETATM   13  C   UNL     1     -10.478  17.408  68.264  1.00  0.00    -0.385 A  
HETATM   14  C   UNL     1      -9.444  18.271  67.900  1.00  0.00    -0.288 A  
HETATM   15  C   UNL     1      -9.377  19.660  68.483  1.00  0.00    -0.342 C  
HETATM   16  C   UNL     1      -8.486  17.812  66.981  1.00  0.00    -0.245 A  
HETATM   17  C   UNL     1      -8.578  16.521  66.429  1.00  0.00    -0.347 A  
HETATM   18  F   UNL     1      -8.240  19.873  69.200  1.00  0.00    -0.300 F  
HETATM   19  F   UNL     1      -9.406  20.629  67.526  1.00  0.00    -0.482 F  
HETATM   20  F   UNL     1     -10.409  19.945  69.328  1.00  0.00    -0.487 F  
ENDBRANCH  10  11
ENDBRANCH   3   7
TORSDOF 2
ENDMDL
MODEL       29
REMARK 921   NORMALIZED FREE ENERGY PREDICTED BY IDOCK:   -5.75 KCAL/MOL
REMARK 922        TOTAL FREE ENERGY PREDICTED BY IDOCK:   -6.69 KCAL/MOL
REMARK 923 INTER-LIGAND FREE ENERGY PREDICTED BY IDOCK:   -6.42 KCAL/MOL
REMARK 924 INTRA-LIGAND FREE ENERGY PREDICTED BY IDOCK:   -0.27 KCAL/MOL
REMARK 927      BINDING AFFINITY PREDICTED BY RF-SCORE:    0.00 PKD
ROOT
HETATM    1  C   UNL     1      -9.854  10.541  64.099  1.00  0.00    -0.401 C  
HETATM    2  C   UNL     1     -10.150  10.254  65.522  1.00  0.00    -0.281 A  
HETATM    3  C   UNL     1     -10.642  10.990  66.588  1.00  0.00    -0.315 A  
HETATM    4  O   UNL     1      -9.901   8.979  65.921  1.00  0.00    -0.276 OA 
HETATM    5  C   UNL     1     -10.652  10.046  67.641  1.00  0.00    -0.270 A  
HETATM    6  N   UNL     1     -10.217   8.845  67.262  1.00  0.00    -0.237 NA 
ENDROOT
BRANCH   3   7
HETATM    7  C   UNL     1     -11.018  12.390  66.511  1.00  0.00    -0.272 C  
HETATM    8  O   UNL     1     -12.204  12.681  66.394  1.00  0.00    -0.550 OA 
HETATM    9  H   UNL     1      -9.041  12.970  66.695  1.00  0.00     0.000 HD 
HETATM   10  N   UNL     1      -9.990  13.324  66.578  1.00  0.00    -0.273 N  
BRANCH  10  11
HETATM   11  C   UNL     1     -10.158  14.732  66.496  1.00  0.00    -0.273 A  
HETATM   12  C   UNL     1     -10.658  15.380  65.363  1.00  0.00    -0.430 A  
HETATM   13  C   UNL     1     -10.783  16.769  65.309  1.00  0.00    -0.183 A  
HETATM   14  C   UNL     1     -10.410  17.560  66.396  1.00  0.00    -0.334 A  
HETATM   15  C   UNL     1     -10.528  19.060  66.317  1.00  0.00    -0.457 C  
HETATM   16  C   UNL     1      -9.921  16.920  67.548  1.00  0.00    -0.268 A  
HETATM   17  C   UNL     1      -9.797  15.520  67.596  1.00  0.00    -0.213 A  
HETATM   18  F   UNL     1     -11.378  19.570  67.248  1.00  0.00    -0.543 F  
HETATM   19  F   UNL     1      -9.335  19.688  66.513  1.00  0.00    -0.336 F  
HETATM   20  F   UNL     1     -10.986  19.506  65.112  1.00  0.00    -0.508 F  
ENDBRANCH  10  11
ENDBRANCH   3   7
TORSDOF 2
ENDMDL
MODEL       30
REMARK 921   NORMALIZED FREE ENERGY PREDICTED BY IDOCK:   -5.74 KCAL/MOL
REMARK 922        TOTAL FREE ENERGY PREDICTED BY IDOCK:   -6.68 KCAL/MOL
REMARK 923 INTER-LIGAND FREE ENERGY PREDICTED BY IDOCK:   -6.31 KCAL/MOL
REMARK 924 INTRA-LIGAND FREE ENERGY PREDICTED BY IDOCK:   -0.37 KCAL/MOL
REMARK 927      BINDING AFFINITY PREDICTED BY RF-SCORE:    0.00 PKD
ROOT
HETATM    1  C   UNL     1     -11.276   6.156  69.743  1.00  0.00    -0.494 C  
HETATM    2  C   UNL     1     -11.059   6.663  71.118  1.00  0.00    -0.279 A  
HETATM    3  C   UNL     1     -10.748   7.896  71.670  1.00  0.00    -0.268 A  
HETATM    4  O   UNL     1     -11.192   5.739  72.106  1.00  0.00    -0.268 OA 
HETATM    5  C   UNL     1     -10.702   7.615  73.055  1.00  0.00    -0.391 A  
HETATM    6  N   UNL     1     -10.965   6.339  73.332  1.00  0.00    -0.211 NA 
ENDROOT
BRANCH   3   7
HETATM    7  C   UNL     1     -10.542   9.109  70.899  1.00  0.00    -0.273 C  
HETATM    8  O   UNL     1      -9.403   9.546  70.774  1.00  0.00    -0.245 OA 
HETATM    9  H   UNL     1     -12.567   9.242  70.497  1.00  0.00     0.000 HD 
HETATM   10  N   UNL     1     -11.670   9.703  70.344  1.00  0.00    -0.237 N  
BRANCH  10  11
HETATM   11  C   UNL     1     -11.672  10.901  69.582  1.00  0.00    -0.331 A  
HETATM   12  C   UNL     1     -11.858  12.168  70.144  1.00  0.00    -0.368 A  
HETATM   13  C   UNL     1     -11.881  13.321  69.359  1.00  0.00    -0.386 A  
HETATM   14  C   UNL     1     -11.716  13.244  67.976  1.00  0.00    -0.394 A  
HETATM   15  C   UNL     1     -11.767  14.496  67.137  1.00  0.00    -0.399 C  
HETATM   16  C   UNL     1     -11.511  11.979  67.400  1.00  0.00    -0.406 A  
HETATM   17  C   UNL     1     -11.490  10.820  68.196  1.00  0.00    -0.346 A  
HETATM   18  F   UNL     1     -10.604  14.726  66.469  1.00  0.00    -0.279 F  
HETATM   19  F   UNL     1     -12.743  14.448  66.189  1.00  0.00    -0.452 F  
HETATM   20  F   UNL     1     -12.010  15.626  67.861  1.00  0.00    -0.280 F  
ENDBRANCH  10  11
ENDBRANCH   3   7
TORSDOF 2
ENDMDL
MODEL       31
REMARK 921   NORMALIZED FREE ENERGY PREDICTED BY IDOCK:   -5.72 KCAL/MOL
REMARK 922        TOTAL FREE ENERGY PREDICTED BY IDOCK:   -6.66 KCAL/MOL
REMARK 923 INTER-LIGAND FREE ENERGY PREDICTED BY IDOCK:   -6.49 KCAL/MOL
REMARK 924 INTRA-LIGAND FREE ENERGY PREDICTED BY IDOCK:   -0.17 KCAL/MOL
REMARK 927      BINDING AFFINITY PREDICTED BY RF-SCORE:    0.00 PKD
ROOT
HETATM    1  C   UNL     1     -13.096  11.848  71.864  1.00  0.00    -0.474 C  
HETATM    2  C   UNL     1     -13.163  13.323  71.747  1.00  0.00    -0.405 A  
HETATM    3  C   UNL     1     -12.685  14.257  70.842  1.00  0.00    -0.427 A  
HETATM    4  O   UNL     1     -13.852  13.953  72.735  1.00  0.00    -0.701 OA 
HETATM    5  C   UNL     1     -13.142  15.480  71.384  1.00  0.00    -0.507 A  
HETATM    6  N   UNL     1     -13.839  15.317  72.508  1.00  0.00    -0.511 NA 
ENDROOT
BRANCH   3   7
HETATM    7  C   UNL     1     -11.909  13.928  69.659  1.00  0.00    -0.327 C  
HETATM    8  O   UNL     1     -10.898  14.575  69.414  1.00  0.00    -0.249 OA 
HETATM    9  H   UNL     1     -13.219  12.399  69.180  1.00  0.00     0.000 HD 
HETATM   10  N   UNL     1     -12.375  12.881  68.871  1.00  0.00     0.033 N  
BRANCH  10  11
HETATM   11  C   UNL     1     -11.769  12.431  67.668  1.00  0.00    -0.346 A  
HETATM   12  C   UNL     1     -10.950  11.300  67.599  1.00  0.00    -0.312 A  
HETATM   13  C   UNL     1     -10.348  10.903  66.404  1.00  0.00    -0.306 A  
HETATM   14  C   UNL     1     -10.549  11.629  65.231  1.00  0.00    -0.333 A  
HETATM   15  C   UNL     1      -9.875  11.203  63.952  1.00  0.00    -0.308 C  
HETATM   16  C   UNL     1     -11.384  12.758  65.282  1.00  0.00    -0.338 A  
HETATM   17  C   UNL     1     -11.987  13.154  66.489  1.00  0.00    -0.459 A  
HETATM   18  F   UNL     1     -10.763  10.884  62.971  1.00  0.00    -0.312 F  
HETATM   19  F   UNL     1      -9.076  12.177  63.434  1.00  0.00    -0.023 F  
HETATM   20  F   UNL     1      -9.075  10.108  64.098  1.00  0.00    -0.184 F  
ENDBRANCH  10  11
ENDBRANCH   3   7
TORSDOF 2
ENDMDL
MODEL       32
REMARK 921   NORMALIZED FREE ENERGY PREDICTED BY IDOCK:   -5.72 KCAL/MOL
REMARK 922        TOTAL FREE ENERGY PREDICTED BY IDOCK:   -6.65 KCAL/MOL
REMARK 923 INTER-LIGAND FREE ENERGY PREDICTED BY IDOCK:   -6.40 KCAL/MOL
REMARK 924 INTRA-LIGAND FREE ENERGY PREDICTED BY IDOCK:   -0.25 KCAL/MOL
REMARK 927      BINDING AFFINITY PREDICTED BY RF-SCORE:    0.00 PKD
ROOT
HETATM    1  C   UNL     1     -14.022  15.442  71.976  1.00  0.00    -0.640 C  
HETATM    2  C   UNL     1     -13.488  14.093  71.682  1.00  0.00    -0.369 A  
HETATM    3  C   UNL     1     -12.620  13.567  70.737  1.00  0.00    -0.382 A  
HETATM    4  O   UNL     1     -13.917  13.104  72.510  1.00  0.00    -0.676 OA 
HETATM    5  C   UNL     1     -12.585  12.196  71.075  1.00  0.00    -0.263 A  
HETATM    6  N   UNL     1     -13.347  11.903  72.127  1.00  0.00    -0.420 NA 
ENDROOT
BRANCH   3   7
HETATM    7  C   UNL     1     -11.971  14.348  69.699  1.00  0.00    -0.336 C  
HETATM    8  O   UNL     1     -12.161  14.049  68.525  1.00  0.00    -0.357 OA 
HETATM    9  H   UNL     1     -11.093  15.572  71.116  1.00  0.00     0.000 HD 
HETATM   10  N   UNL     1     -11.164  15.401  70.113  1.00  0.00    -0.276 N  
BRANCH  10  11
HETATM   11  C   UNL     1     -10.431  16.259  69.251  1.00  0.00    -0.285 A  
HETATM   12  C   UNL     1     -11.030  17.233  68.448  1.00  0.00    -0.171 A  
HETATM   13  C   UNL     1     -10.279  18.040  67.591  1.00  0.00    -0.376 A  
HETATM   14  C   UNL     1      -8.895  17.897  67.511  1.00  0.00    -0.248 A  
HETATM   15  C   UNL     1      -8.098  18.758  66.564  1.00  0.00    -0.289 C  
HETATM   16  C   UNL     1      -8.277  16.932  68.325  1.00  0.00    -0.222 A  
HETATM   17  C   UNL     1      -9.039  16.121  69.186  1.00  0.00    -0.243 A  
HETATM   18  F   UNL     1      -7.187  19.539  67.206  1.00  0.00    -0.221 F  
HETATM   19  F   UNL     1      -7.393  18.023  65.659  1.00  0.00    -0.289 F  
HETATM   20  F   UNL     1      -8.866  19.611  65.829  1.00  0.00    -0.342 F  
ENDBRANCH  10  11
ENDBRANCH   3   7
TORSDOF 2
ENDMDL
MODEL       33
REMARK 921   NORMALIZED FREE ENERGY PREDICTED BY IDOCK:   -5.70 KCAL/MOL
REMARK 922        TOTAL FREE ENERGY PREDICTED BY IDOCK:   -6.63 KCAL/MOL
REMARK 923 INTER-LIGAND FREE ENERGY PREDICTED BY IDOCK:   -6.92 KCAL/MOL
REMARK 924 INTRA-LIGAND FREE ENERGY PREDICTED BY IDOCK:    0.29 KCAL/MOL
REMARK 927      BINDING AFFINITY PREDICTED BY RF-SCORE:    0.00 PKD
ROOT
HETATM    1  C   UNL     1     -13.746   8.890  72.279  1.00  0.00    -0.527 C  
HETATM    2  C   UNL     1     -12.272   8.766  72.202  1.00  0.00    -0.378 A  
HETATM    3  C   UNL     1     -11.276   9.371  71.452  1.00  0.00    -0.452 A  
HETATM    4  O   UNL     1     -11.720   7.862  73.055  1.00  0.00    -0.305 OA 
HETATM    5  C   UNL     1     -10.103   8.742  71.928  1.00  0.00    -0.339 A  
HETATM    6  N   UNL     1     -10.348   7.845  72.882  1.00  0.00    -0.325 NA 
ENDROOT
BRANCH   3   7
HETATM    7  C   UNL     1     -11.514  10.391  70.447  1.00  0.00    -0.337 C  
HETATM    8  O   UNL     1     -12.090  11.423  70.773  1.00  0.00    -0.363 OA 
HETATM    9  H   UNL     1     -10.580   9.240  69.004  1.00  0.00     0.000 HD 
HETATM   10  N   UNL     1     -11.064  10.124  69.159  1.00  0.00    -0.224 N  
BRANCH  10  11
HETATM   11  C   UNL     1     -11.225  10.986  68.042  1.00  0.00    -0.309 A  
HETATM   12  C   UNL     1     -11.871  12.223  68.114  1.00  0.00    -0.372 A  
HETATM   13  C   UNL     1     -12.035  13.031  66.988  1.00  0.00    -0.409 A  
HETATM   14  C   UNL     1     -11.553  12.625  65.744  1.00  0.00    -0.431 A  
HETATM   15  C   UNL     1     -11.756  13.496  64.531  1.00  0.00    -0.397 C  
HETATM   16  C   UNL     1     -10.886  11.390  65.660  1.00  0.00    -0.280 A  
HETATM   17  C   UNL     1     -10.725  10.580  66.798  1.00  0.00    -0.252 A  
HETATM   18  F   UNL     1     -10.583  13.899  63.971  1.00  0.00    -0.300 F  
HETATM   19  F   UNL     1     -12.447  12.861  63.543  1.00  0.00    -0.502 F  
HETATM   20  F   UNL     1     -12.454  14.638  64.794  1.00  0.00    -0.419 F  
ENDBRANCH  10  11
ENDBRANCH   3   7
TORSDOF 2
ENDMDL
MODEL       34
REMARK 921   NORMALIZED FREE ENERGY PREDICTED BY IDOCK:   -5.68 KCAL/MOL
REMARK 922        TOTAL FREE ENERGY PREDICTED BY IDOCK:   -6.61 KCAL/MOL
REMARK 923 INTER-LIGAND FREE ENERGY PREDICTED BY IDOCK:   -6.39 KCAL/MOL
REMARK 924 INTRA-LIGAND FREE ENERGY PREDICTED BY IDOCK:   -0.22 KCAL/MOL
REMARK 927      BINDING AFFINITY PREDICTED BY RF-SCORE:    0.00 PKD
ROOT
HETATM    1  C   UNL     1     -12.973  10.008  71.586  1.00  0.00    -0.554 C  
HETATM    2  C   UNL     1     -11.744   9.208  71.790  1.00  0.00    -0.386 A  
HETATM    3  C   UNL     1     -10.546   9.061  71.107  1.00  0.00    -0.361 A  
HETATM    4  O   UNL     1     -11.739   8.421  72.898  1.00  0.00    -0.300 OA 
HETATM    5  C   UNL     1      -9.849   8.121  71.899  1.00  0.00    -0.212 A  
HETATM    6  N   UNL     1     -10.541   7.732  72.969  1.00  0.00    -0.367 NA 
ENDROOT
BRANCH   3   7
HETATM    7  C   UNL     1     -10.213   9.761  69.879  1.00  0.00    -0.254 C  
HETATM    8  O   UNL     1      -9.138  10.345  69.802  1.00  0.00    -0.125 OA 
HETATM    9  H   UNL     1     -12.006   9.187  69.022  1.00  0.00     0.000 HD 
HETATM   10  N   UNL     1     -11.153   9.719  68.855  1.00  0.00    -0.152 N  
BRANCH  10  11
HETATM   11  C   UNL     1     -11.018  10.360  67.595  1.00  0.00    -0.312 A  
HETATM   12  C   UNL     1     -10.244   9.845  66.551  1.00  0.00    -0.292 A  
HETATM   13  C   UNL     1     -10.112  10.517  65.335  1.00  0.00    -0.358 A  
HETATM   14  C   UNL     1     -10.758  11.735  65.123  1.00  0.00    -0.343 A  
HETATM   15  C   UNL     1     -10.589  12.463  63.813  1.00  0.00    -0.452 C  
HETATM   16  C   UNL     1     -11.553  12.256  66.157  1.00  0.00    -0.450 A  
HETATM   17  C   UNL     1     -11.681  11.575  67.381  1.00  0.00    -0.231 A  
HETATM   18  F   UNL     1     -11.765  12.625  63.148  1.00  0.00    -0.525 F  
HETATM   19  F   UNL     1     -10.072  13.713  63.974  1.00  0.00    -0.336 F  
HETATM   20  F   UNL     1      -9.754  11.827  62.942  1.00  0.00    -0.385 F  
ENDBRANCH  10  11
ENDBRANCH   3   7
TORSDOF 2
ENDMDL
MODEL       35
REMARK 921   NORMALIZED FREE ENERGY PREDICTED BY IDOCK:   -5.68 KCAL/MOL
REMARK 922        TOTAL FREE ENERGY PREDICTED BY IDOCK:   -6.60 KCAL/MOL
REMARK 923 INTER-LIGAND FREE ENERGY PREDICTED BY IDOCK:   -6.39 KCAL/MOL
REMARK 924 INTRA-LIGAND FREE ENERGY PREDICTED BY IDOCK:   -0.22 KCAL/MOL
REMARK 927      BINDING AFFINITY PREDICTED BY RF-SCORE:    0.00 PKD
ROOT
HETATM    1  C   UNL     1     -13.192  11.938  71.937  1.00  0.00    -0.467 C  
HETATM    2  C   UNL     1     -13.285  13.398  71.703  1.00  0.00    -0.364 A  
HETATM    3  C   UNL     1     -12.755  14.276  70.772  1.00  0.00    -0.419 A  
HETATM    4  O   UNL     1     -14.070  14.078  72.580  1.00  0.00    -0.651 OA 
HETATM    5  C   UNL     1     -13.285  15.521  71.180  1.00  0.00    -0.507 A  
HETATM    6  N   UNL     1     -14.070  15.422  72.252  1.00  0.00    -0.551 NA 
ENDROOT
BRANCH   3   7
HETATM    7  C   UNL     1     -11.874  13.884  69.685  1.00  0.00    -0.327 C  
HETATM    8  O   UNL     1     -10.831  14.505  69.513  1.00  0.00    -0.237 OA 
HETATM    9  H   UNL     1     -13.161  12.356  69.145  1.00  0.00     0.000 HD 
HETATM   10  N   UNL     1     -12.282  12.812  68.900  1.00  0.00    -0.103 N  
BRANCH  10  11
HETATM   11  C   UNL     1     -11.570  12.300  67.782  1.00  0.00    -0.351 A  
HETATM   12  C   UNL     1     -11.825  12.693  66.465  1.00  0.00    -0.463 A  
HETATM   13  C   UNL     1     -11.123  12.147  65.389  1.00  0.00    -0.362 A  
HETATM   14  C   UNL     1     -10.136  11.185  65.599  1.00  0.00    -0.304 A  
HETATM   15  C   UNL     1      -9.402  10.586  64.426  1.00  0.00    -0.262 C  
HETATM   16  C   UNL     1      -9.858  10.793  66.919  1.00  0.00    -0.224 A  
HETATM   17  C   UNL     1     -10.569  11.345  67.999  1.00  0.00    -0.224 A  
HETATM   18  F   UNL     1      -8.063  10.828  64.467  1.00  0.00    -0.132 F  
HETATM   19  F   UNL     1      -9.539   9.232  64.361  1.00  0.00    -0.181 F  
HETATM   20  F   UNL     1      -9.828  11.059  63.220  1.00  0.00    -0.257 F  
ENDBRANCH  10  11
ENDBRANCH   3   7
TORSDOF 2
ENDMDL
MODEL       36
REMARK 921   NORMALIZED FREE ENERGY PREDICTED BY IDOCK:   -5.65 KCAL/MOL
REMARK 922        TOTAL FREE ENERGY PREDICTED BY IDOCK:   -6.58 KCAL/MOL
REMARK 923 INTER-LIGAND FREE ENERGY PREDICTED BY IDOCK:   -6.23 KCAL/MOL
REMARK 924 INTRA-LIGAND FREE ENERGY PREDICTED BY IDOCK:   -0.35 KCAL/MOL
REMARK 927      BINDING AFFINITY PREDICTED BY RF-SCORE:    0.00 PKD
ROOT
HETATM    1  C   UNL     1     -10.693  11.117  66.713  1.00  0.00    -0.326 C  
HETATM    2  C   UNL     1     -11.228  11.479  68.045  1.00  0.00    -0.269 A  
HETATM    3  C   UNL     1     -11.163  12.602  68.855  1.00  0.00    -0.329 A  
HETATM    4  O   UNL     1     -11.971  10.517  68.654  1.00  0.00    -0.334 OA 
HETATM    5  C   UNL     1     -11.917  12.216  69.986  1.00  0.00    -0.315 A  
HETATM    6  N   UNL     1     -12.407  10.981  69.883  1.00  0.00    -0.314 NA 
ENDROOT
BRANCH   3   7
HETATM    7  C   UNL     1     -10.453  13.821  68.509  1.00  0.00    -0.244 C  
HETATM    8  O   UNL     1      -9.228  13.799  68.454  1.00  0.00    -0.198 OA 
HETATM    9  H   UNL     1     -12.237  14.848  68.312  1.00  0.00     0.000 HD 
HETATM   10  N   UNL     1     -11.224  14.950  68.257  1.00  0.00    -0.280 N  
BRANCH  10  11
HETATM   11  C   UNL     1     -10.712  16.233  67.928  1.00  0.00    -0.329 A  
HETATM   12  C   UNL     1     -10.314  16.592  66.637  1.00  0.00    -0.296 A  
HETATM   13  C   UNL     1      -9.790  17.855  66.357  1.00  0.00    -0.339 A  
HETATM   14  C   UNL     1      -9.647  18.806  67.368  1.00  0.00    -0.337 A  
HETATM   15  C   UNL     1      -9.057  20.158  67.057  1.00  0.00    -0.367 C  
HETATM   16  C   UNL     1     -10.058  18.464  68.667  1.00  0.00    -0.407 A  
HETATM   17  C   UNL     1     -10.585  17.189  68.943  1.00  0.00    -0.314 A  
HETATM   18  F   UNL     1      -9.923  21.178  67.306  1.00  0.00    -0.594 F  
HETATM   19  F   UNL     1      -7.941  20.422  67.793  1.00  0.00    -0.325 F  
HETATM   20  F   UNL     1      -8.681  20.300  65.753  1.00  0.00    -0.311 F  
ENDBRANCH  10  11
ENDBRANCH   3   7
TORSDOF 2
ENDMDL
MODEL       37
REMARK 921   NORMALIZED FREE ENERGY PREDICTED BY IDOCK:   -5.65 KCAL/MOL
REMARK 922        TOTAL FREE ENERGY PREDICTED BY IDOCK:   -6.58 KCAL/MOL
REMARK 923 INTER-LIGAND FREE ENERGY PREDICTED BY IDOCK:   -6.21 KCAL/MOL
REMARK 924 INTRA-LIGAND FREE ENERGY PREDICTED BY IDOCK:   -0.37 KCAL/MOL
REMARK 927      BINDING AFFINITY PREDICTED BY RF-SCORE:    0.00 PKD
ROOT
HETATM    1  C   UNL     1     -12.323  11.049  70.659  1.00  0.00    -0.480 C  
HETATM    2  C   UNL     1     -11.524  10.432  69.576  1.00  0.00    -0.246 A  
HETATM    3  C   UNL     1     -11.020  10.867  68.361  1.00  0.00    -0.288 A  
HETATM    4  O   UNL     1     -11.174   9.134  69.779  1.00  0.00    -0.181 OA 
HETATM    5  C   UNL     1     -10.356   9.720  67.869  1.00  0.00    -0.213 A  
HETATM    6  N   UNL     1     -10.435   8.681  68.700  1.00  0.00    -0.203 NA 
ENDROOT
BRANCH   3   7
HETATM    7  C   UNL     1     -11.202  12.207  67.832  1.00  0.00    -0.272 C  
HETATM    8  O   UNL     1     -12.147  12.425  67.081  1.00  0.00    -0.532 OA 
HETATM    9  H   UNL     1      -9.541  12.881  68.864  1.00  0.00     0.000 HD 
HETATM   10  N   UNL     1     -10.277  13.169  68.220  1.00  0.00    -0.245 N  
BRANCH  10  11
HETATM   11  C   UNL     1     -10.276  14.523  67.790  1.00  0.00    -0.226 A  
HETATM   12  C   UNL     1     -10.859  15.561  68.523  1.00  0.00    -0.272 A  
HETATM   13  C   UNL     1     -10.862  16.876  68.055  1.00  0.00    -0.338 A  
HETATM   14  C   UNL     1     -10.278  17.197  66.831  1.00  0.00    -0.315 A  
HETATM   15  C   UNL     1     -10.309  18.617  66.326  1.00  0.00    -0.444 C  
HETATM   16  C   UNL     1      -9.673  16.166  66.091  1.00  0.00    -0.352 A  
HETATM   17  C   UNL     1      -9.673  14.843  66.567  1.00  0.00    -0.294 A  
HETATM   18  F   UNL     1      -9.064  19.143  66.161  1.00  0.00    -0.326 F  
HETATM   19  F   UNL     1     -10.927  18.727  65.117  1.00  0.00    -0.421 F  
HETATM   20  F   UNL     1     -10.968  19.475  67.157  1.00  0.00    -0.560 F  
ENDBRANCH  10  11
ENDBRANCH   3   7
TORSDOF 2
ENDMDL
MODEL       38
REMARK 921   NORMALIZED FREE ENERGY PREDICTED BY IDOCK:   -5.65 KCAL/MOL
REMARK 922        TOTAL FREE ENERGY PREDICTED BY IDOCK:   -6.58 KCAL/MOL
REMARK 923 INTER-LIGAND FREE ENERGY PREDICTED BY IDOCK:   -6.20 KCAL/MOL
REMARK 924 INTRA-LIGAND FREE ENERGY PREDICTED BY IDOCK:   -0.37 KCAL/MOL
REMARK 927      BINDING AFFINITY PREDICTED BY RF-SCORE:    0.00 PKD
ROOT
HETATM    1  C   UNL     1     -12.704  13.319  71.157  1.00  0.00    -0.404 C  
HETATM    2  C   UNL     1     -12.106  12.370  70.191  1.00  0.00    -0.290 A  
HETATM    3  C   UNL     1     -11.536  12.482  68.932  1.00  0.00    -0.364 A  
HETATM    4  O   UNL     1     -12.081  11.071  70.591  1.00  0.00    -0.322 OA 
HETATM    5  C   UNL     1     -11.186  11.147  68.627  1.00  0.00    -0.255 A  
HETATM    6  N   UNL     1     -11.501  10.296  69.603  1.00  0.00    -0.249 NA 
ENDROOT
BRANCH   3   7
HETATM    7  C   UNL     1     -11.395  13.732  68.206  1.00  0.00    -0.285 C  
HETATM    8  O   UNL     1     -12.142  13.957  67.260  1.00  0.00    -0.401 OA 
HETATM    9  H   UNL     1      -9.853  14.324  69.452  1.00  0.00     0.000 HD 
HETATM   10  N   UNL     1     -10.404  14.605  68.642  1.00  0.00    -0.239 N  
BRANCH  10  11
HETATM   11  C   UNL     1     -10.100  15.859  68.047  1.00  0.00    -0.230 A  
HETATM   12  C   UNL     1      -9.113  16.025  67.072  1.00  0.00    -0.234 A  
HETATM   13  C   UNL     1      -8.823  17.279  66.530  1.00  0.00    -0.290 A  
HETATM   14  C   UNL     1      -9.518  18.413  66.948  1.00  0.00    -0.291 A  
HETATM   15  C   UNL     1      -9.179  19.764  66.371  1.00  0.00    -0.389 C  
HETATM   16  C   UNL     1     -10.525  18.257  67.915  1.00  0.00    -0.408 A  
HETATM   17  C   UNL     1     -10.813  16.992  68.459  1.00  0.00    -0.310 A  
HETATM   18  F   UNL     1     -10.227  20.332  65.715  1.00  0.00    -0.532 F  
HETATM   19  F   UNL     1      -8.804  20.659  67.327  1.00  0.00    -0.416 F  
HETATM   20  F   UNL     1      -8.153  19.730  65.474  1.00  0.00    -0.296 F  
ENDBRANCH  10  11
ENDBRANCH   3   7
TORSDOF 2
ENDMDL
MODEL       39
REMARK 921   NORMALIZED FREE ENERGY PREDICTED BY IDOCK:   -5.62 KCAL/MOL
REMARK 922        TOTAL FREE ENERGY PREDICTED BY IDOCK:   -6.54 KCAL/MOL
REMARK 923 INTER-LIGAND FREE ENERGY PREDICTED BY IDOCK:   -6.27 KCAL/MOL
REMARK 924 INTRA-LIGAND FREE ENERGY PREDICTED BY IDOCK:   -0.27 KCAL/MOL
REMARK 927      BINDING AFFINITY PREDICTED BY RF-SCORE:    0.00 PKD
ROOT
HETATM    1  C   UNL     1     -11.892  11.024  69.058  1.00  0.00    -0.399 C  
HETATM    2  C   UNL     1     -11.225  10.753  67.764  1.00  0.00    -0.316 A  
HETATM    3  C   UNL     1     -10.896  11.513  66.653  1.00  0.00    -0.335 A  
HETATM    4  O   UNL     1     -10.813   9.471  67.580  1.00  0.00    -0.280 OA 
HETATM    5  C   UNL     1     -10.271  10.572  65.804  1.00  0.00    -0.243 A  
HETATM    6  N   UNL     1     -10.210   9.354  66.340  1.00  0.00    -0.258 NA 
ENDROOT
BRANCH   3   7
HETATM    7  C   UNL     1     -11.185  12.930  66.516  1.00  0.00    -0.302 C  
HETATM    8  O   UNL     1     -12.242  13.273  65.997  1.00  0.00    -0.421 OA 
HETATM    9  H   UNL     1      -9.393  13.421  67.425  1.00  0.00     0.000 HD 
HETATM   10  N   UNL     1     -10.228  13.818  66.993  1.00  0.00    -0.252 N  
BRANCH  10  11
HETATM   11  C   UNL     1     -10.320  15.233  66.927  1.00  0.00    -0.278 A  
HETATM   12  C   UNL     1     -10.356  15.944  65.724  1.00  0.00    -0.396 A  
HETATM   13  C   UNL     1     -10.419  17.338  65.699  1.00  0.00    -0.191 A  
HETATM   14  C   UNL     1     -10.450  18.071  66.885  1.00  0.00    -0.350 A  
HETATM   15  C   UNL     1     -10.495  19.577  66.844  1.00  0.00    -0.477 C  
HETATM   16  C   UNL     1     -10.432  17.368  68.102  1.00  0.00    -0.389 A  
HETATM   17  C   UNL     1     -10.367  15.963  68.122  1.00  0.00    -0.256 A  
HETATM   18  F   UNL     1     -11.615  20.085  67.427  1.00  0.00    -0.155 F  
HETATM   19  F   UNL     1      -9.441  20.148  67.493  1.00  0.00    -0.416 F  
HETATM   20  F   UNL     1     -10.470  20.087  65.580  1.00  0.00    -0.555 F  
ENDBRANCH  10  11
ENDBRANCH   3   7
TORSDOF 2
ENDMDL
MODEL       40
REMARK 921   NORMALIZED FREE ENERGY PREDICTED BY IDOCK:   -5.53 KCAL/MOL
REMARK 922        TOTAL FREE ENERGY PREDICTED BY IDOCK:   -6.44 KCAL/MOL
REMARK 923 INTER-LIGAND FREE ENERGY PREDICTED BY IDOCK:   -6.10 KCAL/MOL
REMARK 924 INTRA-LIGAND FREE ENERGY PREDICTED BY IDOCK:   -0.34 KCAL/MOL
REMARK 927      BINDING AFFINITY PREDICTED BY RF-SCORE:    0.00 PKD
ROOT
HETATM    1  C   UNL     1      -6.764  20.555  66.545  1.00  0.00    -0.308 C  
HETATM    2  C   UNL     1      -6.521  20.236  67.971  1.00  0.00    -0.277 A  
HETATM    3  C   UNL     1      -6.782  19.149  68.789  1.00  0.00    -0.330 A  
HETATM    4  O   UNL     1      -5.891  21.207  68.684  1.00  0.00    -0.329 OA 
HETATM    5  C   UNL     1      -6.263  19.565  70.036  1.00  0.00    -0.266 A  
HETATM    6  N   UNL     1      -5.728  20.784  69.992  1.00  0.00    -0.491 NA 
ENDROOT
BRANCH   3   7
HETATM    7  C   UNL     1      -7.441  17.932  68.348  1.00  0.00    -0.272 C  
HETATM    8  O   UNL     1      -6.787  16.899  68.266  1.00  0.00    -0.155 OA 
HETATM    9  H   UNL     1      -9.244  18.930  68.167  1.00  0.00     0.000 HD 
HETATM   10  N   UNL     1      -8.795  18.023  68.044  1.00  0.00    -0.268 N  
BRANCH  10  11
HETATM   11  C   UNL     1      -9.601  16.952  67.577  1.00  0.00    -0.245 A  
HETATM   12  C   UNL     1     -10.094  15.943  68.409  1.00  0.00    -0.223 A  
HETATM   13  C   UNL     1     -10.862  14.890  67.908  1.00  0.00    -0.276 A  
HETATM   14  C   UNL     1     -11.165  14.814  66.549  1.00  0.00    -0.342 A  
HETATM   15  C   UNL     1     -11.975  13.659  66.017  1.00  0.00    -0.413 C  
HETATM   16  C   UNL     1     -10.690  15.831  65.704  1.00  0.00    -0.360 A  
HETATM   17  C   UNL     1      -9.916  16.889  66.213  1.00  0.00    -0.324 A  
HETATM   18  F   UNL     1     -13.145  14.058  65.448  1.00  0.00    -0.526 F  
HETATM   19  F   UNL     1     -11.311  12.954  65.060  1.00  0.00    -0.311 F  
HETATM   20  F   UNL     1     -12.318  12.750  66.974  1.00  0.00    -0.380 F  
ENDBRANCH  10  11
ENDBRANCH   3   7
TORSDOF 2
ENDMDL
MODEL       41
REMARK 921   NORMALIZED FREE ENERGY PREDICTED BY IDOCK:   -5.51 KCAL/MOL
REMARK 922        TOTAL FREE ENERGY PREDICTED BY IDOCK:   -6.42 KCAL/MOL
REMARK 923 INTER-LIGAND FREE ENERGY PREDICTED BY IDOCK:   -6.21 KCAL/MOL
REMARK 924 INTRA-LIGAND FREE ENERGY PREDICTED BY IDOCK:   -0.21 KCAL/MOL
REMARK 927      BINDING AFFINITY PREDICTED BY RF-SCORE:    0.00 PKD
ROOT
HETATM    1  C   UNL     1      -9.614  15.760  66.775  1.00  0.00    -0.253 C  
HETATM    2  C   UNL     1     -10.586  15.653  65.663  1.00  0.00    -0.378 A  
HETATM    3  C   UNL     1     -11.431  14.659  65.193  1.00  0.00    -0.375 A  
HETATM    4  O   UNL     1     -10.721  16.769  64.900  1.00  0.00    -0.721 OA 
HETATM    5  C   UNL     1     -12.061  15.281  64.091  1.00  0.00    -0.129 A  
HETATM    6  N   UNL     1     -11.654  16.536  63.904  1.00  0.00    -1.071 NA 
ENDROOT
BRANCH   3   7
HETATM    7  C   UNL     1     -11.545  13.336  65.780  1.00  0.00    -0.337 C  
HETATM    8  O   UNL     1     -12.660  12.889  66.024  1.00  0.00    -0.467 OA 
HETATM    9  H   UNL     1      -9.488  13.114  65.769  1.00  0.00     0.000 HD 
HETATM   10  N   UNL     1     -10.360  12.653  66.030  1.00  0.00    -0.264 N  
BRANCH  10  11
HETATM   11  C   UNL     1     -10.267  11.365  66.619  1.00  0.00    -0.222 A  
HETATM   12  C   UNL     1     -10.150  10.187  65.875  1.00  0.00    -0.325 A  
HETATM   13  C   UNL     1     -10.089   8.935  66.489  1.00  0.00    -0.356 A  
HETATM   14  C   UNL     1     -10.143   8.821  67.877  1.00  0.00    -0.257 A  
HETATM   15  C   UNL     1     -10.100   7.461  68.527  1.00  0.00    -0.175 C  
HETATM   16  C   UNL     1     -10.244   9.997  68.639  1.00  0.00    -0.198 A  
HETATM   17  C   UNL     1     -10.306  11.256  68.015  1.00  0.00    -0.204 A  
HETATM   18  F   UNL     1      -9.024   7.305  69.346  1.00  0.00    -0.138 F  
HETATM   19  F   UNL     1     -11.198   7.215  69.295  1.00  0.00    -0.216 F  
HETATM   20  F   UNL     1     -10.037   6.433  67.632  1.00  0.00    -0.130 F  
ENDBRANCH  10  11
ENDBRANCH   3   7
TORSDOF 2
ENDMDL
MODEL       42
REMARK 921   NORMALIZED FREE ENERGY PREDICTED BY IDOCK:   -5.49 KCAL/MOL
REMARK 922        TOTAL FREE ENERGY PREDICTED BY IDOCK:   -6.40 KCAL/MOL
REMARK 923 INTER-LIGAND FREE ENERGY PREDICTED BY IDOCK:   -6.55 KCAL/MOL
REMARK 924 INTRA-LIGAND FREE ENERGY PREDICTED BY IDOCK:    0.14 KCAL/MOL
REMARK 927      BINDING AFFINITY PREDICTED BY RF-SCORE:    0.00 PKD
ROOT
HETATM    1  C   UNL     1     -13.856   8.644  72.191  1.00  0.00    -0.482 C  
HETATM    2  C   UNL     1     -12.381   8.670  72.052  1.00  0.00    -0.371 A  
HETATM    3  C   UNL     1     -11.487   9.331  71.225  1.00  0.00    -0.418 A  
HETATM    4  O   UNL     1     -11.701   7.881  72.925  1.00  0.00    -0.350 OA 
HETATM    5  C   UNL     1     -10.235   8.858  71.678  1.00  0.00    -0.345 A  
HETATM    6  N   UNL     1     -10.343   7.997  72.689  1.00  0.00    -0.304 NA 
ENDROOT
BRANCH   3   7
HETATM    7  C   UNL     1     -11.874  10.261  70.178  1.00  0.00    -0.263 C  
HETATM    8  O   UNL     1     -12.997  10.753  70.207  1.00  0.00    -0.257 OA 
HETATM    9  H   UNL     1     -10.018  10.083  69.283  1.00  0.00     0.000 HD 
HETATM   10  N   UNL     1     -10.928  10.535  69.197  1.00  0.00    -0.223 N  
BRANCH  10  11
HETATM   11  C   UNL     1     -11.129  11.395  68.085  1.00  0.00    -0.248 A  
HETATM   12  C   UNL     1     -11.032  10.968  66.758  1.00  0.00    -0.279 A  
HETATM   13  C   UNL     1     -11.209  11.849  65.690  1.00  0.00    -0.360 A  
HETATM   14  C   UNL     1     -11.492  13.195  65.918  1.00  0.00    -0.366 A  
HETATM   15  C   UNL     1     -11.657  14.141  64.756  1.00  0.00    -0.396 C  
HETATM   16  C   UNL     1     -11.608  13.635  67.247  1.00  0.00    -0.387 A  
HETATM   17  C   UNL     1     -11.428  12.743  68.320  1.00  0.00    -0.354 A  
HETATM   18  F   UNL     1     -12.895  14.705  64.710  1.00  0.00    -0.404 F  
HETATM   19  F   UNL     1     -10.773  15.177  64.797  1.00  0.00    -0.383 F  
HETATM   20  F   UNL     1     -11.474  13.548  63.542  1.00  0.00    -0.356 F  
ENDBRANCH  10  11
ENDBRANCH   3   7
TORSDOF 2
ENDMDL
MODEL       43
REMARK 921   NORMALIZED FREE ENERGY PREDICTED BY IDOCK:   -5.47 KCAL/MOL
REMARK 922        TOTAL FREE ENERGY PREDICTED BY IDOCK:   -6.37 KCAL/MOL
REMARK 923 INTER-LIGAND FREE ENERGY PREDICTED BY IDOCK:   -6.32 KCAL/MOL
REMARK 924 INTRA-LIGAND FREE ENERGY PREDICTED BY IDOCK:   -0.05 KCAL/MOL
REMARK 927      BINDING AFFINITY PREDICTED BY RF-SCORE:    0.00 PKD
ROOT
HETATM    1  C   UNL     1     -12.682  14.363  71.159  1.00  0.00    -0.422 C  
HETATM    2  C   UNL     1     -12.211  14.398  69.755  1.00  0.00    -0.321 A  
HETATM    3  C   UNL     1     -11.847  13.441  68.820  1.00  0.00    -0.386 A  
HETATM    4  O   UNL     1     -12.100  15.638  69.210  1.00  0.00    -0.347 OA 
HETATM    5  C   UNL     1     -11.507  14.221  67.692  1.00  0.00    -0.346 A  
HETATM    6  N   UNL     1     -11.654  15.529  67.905  1.00  0.00    -0.283 NA 
ENDROOT
BRANCH   3   7
HETATM    7  C   UNL     1     -11.855  12.010  69.068  1.00  0.00    -0.315 C  
HETATM    8  O   UNL     1     -12.130  11.250  68.147  1.00  0.00    -0.635 OA 
HETATM    9  H   UNL     1     -11.310  12.312  71.041  1.00  0.00     0.000 HD 
HETATM   10  N   UNL     1     -11.542  11.592  70.357  1.00  0.00    -0.187 N  
BRANCH  10  11
HETATM   11  C   UNL     1     -11.521  10.241  70.795  1.00  0.00    -0.351 A  
HETATM   12  C   UNL     1     -12.672   9.529  71.141  1.00  0.00    -0.371 A  
HETATM   13  C   UNL     1     -12.610   8.211  71.595  1.00  0.00    -0.347 A  
HETATM   14  C   UNL     1     -11.384   7.558  71.716  1.00  0.00    -0.289 A  
HETATM   15  C   UNL     1     -11.328   6.141  72.229  1.00  0.00    -0.300 C  
HETATM   16  C   UNL     1     -10.219   8.256  71.355  1.00  0.00    -0.263 A  
HETATM   17  C   UNL     1     -10.288   9.585  70.900  1.00  0.00    -0.372 A  
HETATM   18  F   UNL     1     -10.804   5.274  71.320  1.00  0.00    -0.298 F  
HETATM   19  F   UNL     1     -10.560   6.022  73.349  1.00  0.00    -0.207 F  
HETATM   20  F   UNL     1     -12.549   5.636  72.563  1.00  0.00    -0.280 F  
ENDBRANCH  10  11
ENDBRANCH   3   7
TORSDOF 2
ENDMDL
MODEL       44
REMARK 921   NORMALIZED FREE ENERGY PREDICTED BY IDOCK:   -5.44 KCAL/MOL
REMARK 922        TOTAL FREE ENERGY PREDICTED BY IDOCK:   -6.34 KCAL/MOL
REMARK 923 INTER-LIGAND FREE ENERGY PREDICTED BY IDOCK:   -6.30 KCAL/MOL
REMARK 924 INTRA-LIGAND FREE ENERGY PREDICTED BY IDOCK:   -0.04 KCAL/MOL
REMARK 927      BINDING AFFINITY PREDICTED BY RF-SCORE:    0.00 PKD
ROOT
HETATM    1  C   UNL     1     -11.263   6.124  69.804  1.00  0.00    -0.494 C  
HETATM    2  C   UNL     1     -11.170   6.805  71.115  1.00  0.00    -0.283 A  
HETATM    3  C   UNL     1     -11.383   8.099  71.564  1.00  0.00    -0.308 A  
HETATM    4  O   UNL     1     -10.798   6.014  72.156  1.00  0.00    -0.229 OA 
HETATM    5  C   UNL     1     -11.097   8.002  72.945  1.00  0.00    -0.331 A  
HETATM    6  N   UNL     1     -10.749   6.770  73.315  1.00  0.00    -0.294 NA 
ENDROOT
BRANCH   3   7
HETATM    7  C   UNL     1     -11.797   9.202  70.715  1.00  0.00    -0.227 C  
HETATM    8  O   UNL     1     -12.886   9.729  70.915  1.00  0.00    -0.305 OA 
HETATM    9  H   UNL     1     -10.026   9.097  69.652  1.00  0.00     0.000 HD 
HETATM   10  N   UNL     1     -10.914   9.594  69.715  1.00  0.00    -0.240 N  
BRANCH  10  11
HETATM   11  C   UNL     1     -11.151  10.632  68.775  1.00  0.00    -0.265 A  
HETATM   12  C   UNL     1     -10.995  10.468  67.396  1.00  0.00    -0.352 A  
HETATM   13  C   UNL     1     -11.211  11.519  66.504  1.00  0.00    -0.324 A  
HETATM   14  C   UNL     1     -11.595  12.777  66.967  1.00  0.00    -0.422 A  
HETATM   15  C   UNL     1     -11.802  13.911  65.995  1.00  0.00    -0.393 C  
HETATM   16  C   UNL     1     -11.773  12.952  68.350  1.00  0.00    -0.382 A  
HETATM   17  C   UNL     1     -11.552  11.889  69.244  1.00  0.00    -0.376 A  
HETATM   18  F   UNL     1     -13.076  14.389  66.011  1.00  0.00    -0.430 F  
HETATM   19  F   UNL     1     -10.997  14.977  66.258  1.00  0.00    -0.317 F  
HETATM   20  F   UNL     1     -11.550  13.569  64.699  1.00  0.00    -0.327 F  
ENDBRANCH  10  11
ENDBRANCH   3   7
TORSDOF 2
ENDMDL
MODEL       45
REMARK 921   NORMALIZED FREE ENERGY PREDICTED BY IDOCK:   -5.41 KCAL/MOL
REMARK 922        TOTAL FREE ENERGY PREDICTED BY IDOCK:   -6.31 KCAL/MOL
REMARK 923 INTER-LIGAND FREE ENERGY PREDICTED BY IDOCK:   -6.19 KCAL/MOL
REMARK 924 INTRA-LIGAND FREE ENERGY PREDICTED BY IDOCK:   -0.12 KCAL/MOL
REMARK 927      BINDING AFFINITY PREDICTED BY RF-SCORE:    0.00 PKD
ROOT
HETATM    1  C   UNL     1      -7.374  14.837  67.617  1.00  0.00    -0.206 C  
HETATM    2  C   UNL     1      -8.675  15.331  67.112  1.00  0.00    -0.211 A  
HETATM    3  C   UNL     1     -10.002  15.124  67.456  1.00  0.00    -0.225 A  
HETATM    4  O   UNL     1      -8.602  16.201  66.070  1.00  0.00    -0.330 OA 
HETATM    5  C   UNL     1     -10.695  15.934  66.527  1.00  0.00    -0.258 A  
HETATM    6  N   UNL     1      -9.879  16.583  65.698  1.00  0.00    -0.550 NA 
ENDROOT
BRANCH   3   7
HETATM    7  C   UNL     1     -10.442  14.254  68.532  1.00  0.00    -0.253 C  
HETATM    8  O   UNL     1     -10.569  14.721  69.658  1.00  0.00    -0.220 OA 
HETATM    9  H   UNL     1     -10.574  12.651  67.232  1.00  0.00     0.000 HD 
HETATM   10  N   UNL     1     -10.695  12.927  68.206  1.00  0.00    -0.236 N  
BRANCH  10  11
HETATM   11  C   UNL     1     -11.108  11.924  69.124  1.00  0.00    -0.228 A  
HETATM   12  C   UNL     1     -12.155  12.101  70.032  1.00  0.00    -0.352 A  
HETATM   13  C   UNL     1     -12.516  11.102  70.938  1.00  0.00    -0.509 A  
HETATM   14  C   UNL     1     -11.836   9.885  70.962  1.00  0.00    -0.463 A  
HETATM   15  C   UNL     1     -12.220   8.823  71.961  1.00  0.00    -0.377 C  
HETATM   16  C   UNL     1     -10.792   9.687  70.042  1.00  0.00    -0.302 A  
HETATM   17  C   UNL     1     -10.433  10.697  69.133  1.00  0.00    -0.245 A  
HETATM   18  F   UNL     1     -12.642   7.673  71.368  1.00  0.00    -0.322 F  
HETATM   19  F   UNL     1     -11.183   8.470  72.771  1.00  0.00    -0.415 F  
HETATM   20  F   UNL     1     -13.228   9.202  72.797  1.00  0.00    -0.485 F  
ENDBRANCH  10  11
ENDBRANCH   3   7
TORSDOF 2
ENDMDL
MODEL       46
REMARK 921   NORMALIZED FREE ENERGY PREDICTED BY IDOCK:   -5.38 KCAL/MOL
REMARK 922        TOTAL FREE ENERGY PREDICTED BY IDOCK:   -6.28 KCAL/MOL
REMARK 923 INTER-LIGAND FREE ENERGY PREDICTED BY IDOCK:   -5.99 KCAL/MOL
REMARK 924 INTRA-LIGAND FREE ENERGY PREDICTED BY IDOCK:   -0.29 KCAL/MOL
REMARK 927      BINDING AFFINITY PREDICTED BY RF-SCORE:    0.00 PKD
ROOT
HETATM    1  C   UNL     1     -11.318   6.337  69.656  1.00  0.00    -0.492 C  
HETATM    2  C   UNL     1     -10.972   7.173  70.828  1.00  0.00    -0.252 A  
HETATM    3  C   UNL     1     -10.540   8.477  71.009  1.00  0.00    -0.267 A  
HETATM    4  O   UNL     1     -11.098   6.561  72.035  1.00  0.00    -0.237 OA 
HETATM    5  C   UNL     1     -10.416   8.574  72.413  1.00  0.00    -0.297 A  
HETATM    6  N   UNL     1     -10.747   7.445  73.040  1.00  0.00    -0.330 NA 
ENDROOT
BRANCH   3   7
HETATM    7  C   UNL     1     -10.305   9.418  69.928  1.00  0.00    -0.227 C  
HETATM    8  O   UNL     1      -9.151   9.680  69.609  1.00  0.00    -0.179 OA 
HETATM    9  H   UNL     1     -12.341   9.664  69.651  1.00  0.00     0.000 HD 
HETATM   10  N   UNL     1     -11.426   9.969  69.316  1.00  0.00    -0.118 N  
BRANCH  10  11
HETATM   11  C   UNL     1     -11.399  10.920  68.263  1.00  0.00    -0.308 A  
HETATM   12  C   UNL     1     -11.779  12.256  68.426  1.00  0.00    -0.390 A  
HETATM   13  C   UNL     1     -11.765  13.156  67.359  1.00  0.00    -0.419 A  
HETATM   14  C   UNL     1     -11.365  12.747  66.088  1.00  0.00    -0.371 A  
HETATM   15  C   UNL     1     -11.377  13.724  64.939  1.00  0.00    -0.347 C  
HETATM   16  C   UNL     1     -10.964  11.412  65.914  1.00  0.00    -0.268 A  
HETATM   17  C   UNL     1     -10.981  10.508  66.991  1.00  0.00    -0.247 A  
HETATM   18  F   UNL     1     -10.141  13.917  64.402  1.00  0.00    -0.449 F  
HETATM   19  F   UNL     1     -12.174  13.314  63.914  1.00  0.00    -0.442 F  
HETATM   20  F   UNL     1     -11.829  14.963  65.285  1.00  0.00    -0.349 F  
ENDBRANCH  10  11
ENDBRANCH   3   7
TORSDOF 2
ENDMDL
MODEL       47
REMARK 921   NORMALIZED FREE ENERGY PREDICTED BY IDOCK:   -5.38 KCAL/MOL
REMARK 922        TOTAL FREE ENERGY PREDICTED BY IDOCK:   -6.27 KCAL/MOL
REMARK 923 INTER-LIGAND FREE ENERGY PREDICTED BY IDOCK:   -6.00 KCAL/MOL
REMARK 924 INTRA-LIGAND FREE ENERGY PREDICTED BY IDOCK:   -0.27 KCAL/MOL
REMARK 927      BINDING AFFINITY PREDICTED BY RF-SCORE:    0.00 PKD
ROOT
HETATM    1  C   UNL     1      -9.444  16.509  65.846  1.00  0.00    -0.254 C  
HETATM    2  C   UNL     1     -10.585  15.903  65.122  1.00  0.00    -0.397 A  
HETATM    3  C   UNL     1     -11.113  14.626  65.020  1.00  0.00    -0.401 A  
HETATM    4  O   UNL     1     -11.321  16.765  64.372  1.00  0.00    -1.089 OA 
HETATM    5  C   UNL     1     -12.208  14.809  64.145  1.00  0.00    -0.295 A  
HETATM    6  N   UNL     1     -12.348  16.075  63.752  1.00  0.00    -0.608 NA 
ENDROOT
BRANCH   3   7
HETATM    7  C   UNL     1     -10.574  13.460  65.699  1.00  0.00    -0.282 C  
HETATM    8  O   UNL     1     -10.037  12.581  65.034  1.00  0.00    -0.279 OA 
HETATM    9  H   UNL     1     -11.153  14.217  67.535  1.00  0.00     0.000 HD 
HETATM   10  N   UNL     1     -10.705  13.420  67.082  1.00  0.00    -0.263 N  
BRANCH  10  11
HETATM   11  C   UNL     1     -10.264  12.358  67.915  1.00  0.00    -0.213 A  
HETATM   12  C   UNL     1      -8.916  12.035  68.098  1.00  0.00    -0.190 A  
HETATM   13  C   UNL     1      -8.522  10.965  68.903  1.00  0.00    -0.142 A  
HETATM   14  C   UNL     1      -9.470  10.180  69.557  1.00  0.00    -0.235 A  
HETATM   15  C   UNL     1      -9.031   9.013  70.405  1.00  0.00    -0.205 C  
HETATM   16  C   UNL     1     -10.828  10.504  69.396  1.00  0.00    -0.291 A  
HETATM   17  C   UNL     1     -11.220  11.582  68.583  1.00  0.00    -0.307 A  
HETATM   18  F   UNL     1      -9.399   9.145  71.709  1.00  0.00    -0.327 F  
HETATM   19  F   UNL     1      -9.562   7.832  69.982  1.00  0.00    -0.160 F  
HETATM   20  F   UNL     1      -7.680   8.827  70.417  1.00  0.00    -0.065 F  
ENDBRANCH  10  11
ENDBRANCH   3   7
TORSDOF 2
ENDMDL
MODEL       48
REMARK 921   NORMALIZED FREE ENERGY PREDICTED BY IDOCK:   -5.37 KCAL/MOL
REMARK 922        TOTAL FREE ENERGY PREDICTED BY IDOCK:   -6.27 KCAL/MOL
REMARK 923 INTER-LIGAND FREE ENERGY PREDICTED BY IDOCK:   -6.00 KCAL/MOL
REMARK 924 INTRA-LIGAND FREE ENERGY PREDICTED BY IDOCK:   -0.27 KCAL/MOL
REMARK 927      BINDING AFFINITY PREDICTED BY RF-SCORE:    0.00 PKD
ROOT
HETATM    1  C   UNL     1     -10.817  15.102  68.521  1.00  0.00    -0.247 C  
HETATM    2  C   UNL     1     -10.787  15.045  67.042  1.00  0.00    -0.311 A  
HETATM    3  C   UNL     1     -10.953  14.045  66.097  1.00  0.00    -0.295 A  
HETATM    4  O   UNL     1     -10.549  16.230  66.419  1.00  0.00    -0.306 OA 
HETATM    5  C   UNL     1     -10.785  14.738  64.876  1.00  0.00    -0.417 A  
HETATM    6  N   UNL     1     -10.547  16.038  65.049  1.00  0.00    -0.606 NA 
ENDROOT
BRANCH   3   7
HETATM    7  C   UNL     1     -11.228  12.655  66.415  1.00  0.00    -0.305 C  
HETATM    8  O   UNL     1     -12.277  12.153  66.028  1.00  0.00    -0.609 OA 
HETATM    9  H   UNL     1      -9.419  12.486  67.405  1.00  0.00     0.000 HD 
HETATM   10  N   UNL     1     -10.264  11.975  67.152  1.00  0.00    -0.201 N  
BRANCH  10  11
HETATM   11  C   UNL     1     -10.364  10.624  67.578  1.00  0.00    -0.214 A  
HETATM   12  C   UNL     1     -10.277   9.536  66.705  1.00  0.00    -0.313 A  
HETATM   13  C   UNL     1     -10.407   8.222  67.157  1.00  0.00    -0.387 A  
HETATM   14  C   UNL     1     -10.629   7.953  68.507  1.00  0.00    -0.146 A  
HETATM   15  C   UNL     1     -10.791   6.530  68.979  1.00  0.00    -0.306 C  
HETATM   16  C   UNL     1     -10.701   9.036  69.399  1.00  0.00    -0.202 A  
HETATM   17  C   UNL     1     -10.571  10.359  68.938  1.00  0.00    -0.241 A  
HETATM   18  F   UNL     1      -9.835   6.163  69.876  1.00  0.00    -0.168 F  
HETATM   19  F   UNL     1     -11.987   6.318  69.595  1.00  0.00    -0.468 F  
HETATM   20  F   UNL     1     -10.727   5.613  67.972  1.00  0.00    -0.255 F  
ENDBRANCH  10  11
ENDBRANCH   3   7
TORSDOF 2
ENDMDL
MODEL       49
REMARK 921   NORMALIZED FREE ENERGY PREDICTED BY IDOCK:   -5.34 KCAL/MOL
REMARK 922        TOTAL FREE ENERGY PREDICTED BY IDOCK:   -6.23 KCAL/MOL
REMARK 923 INTER-LIGAND FREE ENERGY PREDICTED BY IDOCK:   -6.42 KCAL/MOL
REMARK 924 INTRA-LIGAND FREE ENERGY PREDICTED BY IDOCK:    0.19 KCAL/MOL
REMARK 927      BINDING AFFINITY PREDICTED BY RF-SCORE:    0.00 PKD
ROOT
HETATM    1  C   UNL     1     -12.007  15.282  69.511  1.00  0.00    -0.356 C  
HETATM    2  C   UNL     1     -12.862  14.819  70.628  1.00  0.00    -0.343 A  
HETATM    3  C   UNL     1     -13.081  13.602  71.255  1.00  0.00    -0.357 A  
HETATM    4  O   UNL     1     -13.626  15.779  71.213  1.00  0.00    -0.561 OA 
HETATM    5  C   UNL     1     -14.038  13.927  72.243  1.00  0.00    -0.535 A  
HETATM    6  N   UNL     1     -14.372  15.217  72.234  1.00  0.00    -0.544 NA 
ENDROOT
BRANCH   3   7
HETATM    7  C   UNL     1     -12.423  12.361  70.886  1.00  0.00    -0.274 C  
HETATM    8  O   UNL     1     -11.666  12.355  69.921  1.00  0.00    -0.309 OA 
HETATM    9  H   UNL     1     -13.331  11.369  72.457  1.00  0.00     0.000 HD 
HETATM   10  N   UNL     1     -12.700  11.244  71.666  1.00  0.00    -0.375 N  
BRANCH  10  11
HETATM   11  C   UNL     1     -12.172   9.944  71.448  1.00  0.00    -0.408 A  
HETATM   12  C   UNL     1     -10.803   9.676  71.358  1.00  0.00    -0.294 A  
HETATM   13  C   UNL     1     -10.323   8.389  71.115  1.00  0.00    -0.264 A  
HETATM   14  C   UNL     1     -11.203   7.319  70.956  1.00  0.00    -0.291 A  
HETATM   15  C   UNL     1     -10.673   5.937  70.671  1.00  0.00    -0.285 C  
HETATM   16  C   UNL     1     -12.582   7.571  71.061  1.00  0.00    -0.223 A  
HETATM   17  C   UNL     1     -13.060   8.871  71.304  1.00  0.00    -0.241 A  
HETATM   18  F   UNL     1     -11.003   5.039  71.638  1.00  0.00    -0.241 F  
HETATM   19  F   UNL     1     -11.150   5.426  69.503  1.00  0.00    -0.365 F  
HETATM   20  F   UNL     1      -9.314   5.888  70.568  1.00  0.00    -0.157 F  
ENDBRANCH  10  11
ENDBRANCH   3   7
TORSDOF 2
ENDMDL
MODEL       50
REMARK 921   NORMALIZED FREE ENERGY PREDICTED BY IDOCK:   -5.28 KCAL/MOL
REMARK 922        TOTAL FREE ENERGY PREDICTED BY IDOCK:   -6.17 KCAL/MOL
REMARK 923 INTER-LIGAND FREE ENERGY PREDICTED BY IDOCK:   -6.29 KCAL/MOL
REMARK 924 INTRA-LIGAND FREE ENERGY PREDICTED BY IDOCK:    0.13 KCAL/MOL
REMARK 927      BINDING AFFINITY PREDICTED BY RF-SCORE:    0.00 PKD
ROOT
HETATM    1  C   UNL     1      -8.856   8.512  71.779  1.00  0.00    -0.278 C  
HETATM    2  C   UNL     1     -10.323   8.689  71.880  1.00  0.00    -0.335 A  
HETATM    3  C   UNL     1     -11.287   9.334  71.122  1.00  0.00    -0.412 A  
HETATM    4  O   UNL     1     -10.909   8.087  72.950  1.00  0.00    -0.366 OA 
HETATM    5  C   UNL     1     -12.477   9.070  71.838  1.00  0.00    -0.384 A  
HETATM    6  N   UNL     1     -12.271   8.328  72.925  1.00  0.00    -0.198 NA 
ENDROOT
BRANCH   3   7
HETATM    7  C   UNL     1     -11.009  10.075  69.904  1.00  0.00    -0.293 C  
HETATM    8  O   UNL     1     -10.205   9.615  69.100  1.00  0.00    -0.184 OA 
HETATM    9  H   UNL     1     -12.348  11.553  70.453  1.00  0.00     0.000 HD 
HETATM   10  N   UNL     1     -11.686  11.276  69.728  1.00  0.00    -0.317 N  
BRANCH  10  11
HETATM   11  C   UNL     1     -11.530  12.148  68.618  1.00  0.00    -0.296 A  
HETATM   12  C   UNL     1     -11.333  13.526  68.746  1.00  0.00    -0.329 A  
HETATM   13  C   UNL     1     -11.211  14.356  67.631  1.00  0.00    -0.328 A  
HETATM   14  C   UNL     1     -11.281  13.829  66.342  1.00  0.00    -0.321 A  
HETATM   15  C   UNL     1     -11.171  14.739  65.145  1.00  0.00    -0.382 C  
HETATM   16  C   UNL     1     -11.461  12.443  66.198  1.00  0.00    -0.430 A  
HETATM   17  C   UNL     1     -11.585  11.611  67.325  1.00  0.00    -0.316 A  
HETATM   18  F   UNL     1     -10.102  14.443  64.357  1.00  0.00    -0.355 F  
HETATM   19  F   UNL     1     -12.265  14.672  64.336  1.00  0.00    -0.447 F  
HETATM   20  F   UNL     1     -11.036  16.056  65.475  1.00  0.00    -0.325 F  
ENDBRANCH  10  11
ENDBRANCH   3   7
TORSDOF 2
ENDMDL
MODEL       51
REMARK 921   NORMALIZED FREE ENERGY PREDICTED BY IDOCK:   -5.27 KCAL/MOL
REMARK 922        TOTAL FREE ENERGY PREDICTED BY IDOCK:   -6.15 KCAL/MOL
REMARK 923 INTER-LIGAND FREE ENERGY PREDICTED BY IDOCK:   -5.77 KCAL/MOL
REMARK 924 INTRA-LIGAND FREE ENERGY PREDICTED BY IDOCK:   -0.38 KCAL/MOL
REMARK 927      BINDING AFFINITY PREDICTED BY RF-SCORE:    0.00 PKD
ROOT
HETATM    1  C   UNL     1     -10.576  19.559  66.895  1.00  0.00    -0.602 C  
HETATM    2  C   UNL     1      -9.226  19.072  66.526  1.00  0.00    -0.337 A  
HETATM    3  C   UNL     1      -8.497  17.921  66.779  1.00  0.00    -0.268 A  
HETATM    4  O   UNL     1      -8.495  19.918  65.753  1.00  0.00    -0.342 OA 
HETATM    5  C   UNL     1      -7.282  18.166  66.100  1.00  0.00    -0.281 A  
HETATM    6  N   UNL     1      -7.265  19.346  65.482  1.00  0.00    -0.431 NA 
ENDROOT
BRANCH   3   7
HETATM    7  C   UNL     1      -8.980  16.804  67.571  1.00  0.00    -0.205 C  
HETATM    8  O   UNL     1      -8.849  16.839  68.789  1.00  0.00    -0.252 OA 
HETATM    9  H   UNL     1      -9.644  15.836  65.868  1.00  0.00     0.000 HD 
HETATM   10  N   UNL     1      -9.570  15.751  66.881  1.00  0.00    -0.224 N  
BRANCH  10  11
HETATM   11  C   UNL     1     -10.079  14.566  67.477  1.00  0.00    -0.228 A  
HETATM   12  C   UNL     1     -11.365  14.469  68.016  1.00  0.00    -0.326 A  
HETATM   13  C   UNL     1     -11.820  13.296  68.618  1.00  0.00    -0.380 A  
HETATM   14  C   UNL     1     -10.998  12.172  68.700  1.00  0.00    -0.284 A  
HETATM   15  C   UNL     1     -11.494  10.918  69.374  1.00  0.00    -0.302 C  
HETATM   16  C   UNL     1      -9.708  12.250  68.147  1.00  0.00    -0.213 A  
HETATM   17  C   UNL     1      -9.254  13.436  67.542  1.00  0.00    -0.219 A  
HETATM   18  F   UNL     1     -11.533   9.850  68.532  1.00  0.00    -0.218 F  
HETATM   19  F   UNL     1     -10.707  10.543  70.421  1.00  0.00    -0.330 F  
HETATM   20  F   UNL     1     -12.753  11.037  69.883  1.00  0.00    -0.328 F  
ENDBRANCH  10  11
ENDBRANCH   3   7
TORSDOF 2
ENDMDL
MODEL       52
REMARK 921   NORMALIZED FREE ENERGY PREDICTED BY IDOCK:   -5.24 KCAL/MOL
REMARK 922        TOTAL FREE ENERGY PREDICTED BY IDOCK:   -6.11 KCAL/MOL
REMARK 923 INTER-LIGAND FREE ENERGY PREDICTED BY IDOCK:   -5.82 KCAL/MOL
REMARK 924 INTRA-LIGAND FREE ENERGY PREDICTED BY IDOCK:   -0.29 KCAL/MOL
REMARK 927      BINDING AFFINITY PREDICTED BY RF-SCORE:    0.00 PKD
ROOT
HETATM    1  C   UNL     1      -8.783   9.799  65.859  1.00  0.00    -0.156 C  
HETATM    2  C   UNL     1      -9.411   8.685  66.606  1.00  0.00    -0.207 A  
HETATM    3  C   UNL     1     -10.062   8.566  67.824  1.00  0.00    -0.266 A  
HETATM    4  O   UNL     1      -9.370   7.475  65.989  1.00  0.00    -0.118 OA 
HETATM    5  C   UNL     1     -10.388   7.192  67.871  1.00  0.00    -0.198 A  
HETATM    6  N   UNL     1      -9.986   6.528  66.788  1.00  0.00    -0.169 NA 
ENDROOT
BRANCH   3   7
HETATM    7  C   UNL     1     -10.288   9.669  68.742  1.00  0.00    -0.213 C  
HETATM    8  O   UNL     1      -9.490   9.855  69.654  1.00  0.00    -0.206 OA 
HETATM    9  H   UNL     1     -11.999  10.219  67.718  1.00  0.00     0.000 HD 
HETATM   10  N   UNL     1     -11.414  10.453  68.520  1.00  0.00    -0.218 N  
BRANCH  10  11
HETATM   11  C   UNL     1     -11.813  11.556  69.321  1.00  0.00    -0.348 A  
HETATM   12  C   UNL     1     -11.740  12.884  68.889  1.00  0.00    -0.370 A  
HETATM   13  C   UNL     1     -12.116  13.944  69.715  1.00  0.00    -0.404 A  
HETATM   14  C   UNL     1     -12.582  13.708  71.008  1.00  0.00    -0.441 A  
HETATM   15  C   UNL     1     -12.963  14.863  71.899  1.00  0.00    -0.333 C  
HETATM   16  C   UNL     1     -12.677  12.377  71.449  1.00  0.00    -0.346 A  
HETATM   17  C   UNL     1     -12.296  11.312  70.612  1.00  0.00    -0.477 A  
HETATM   18  F   UNL     1     -14.272  14.830  72.270  1.00  0.00    -0.465 F  
HETATM   19  F   UNL     1     -12.244  14.889  73.055  1.00  0.00    -0.405 F  
HETATM   20  F   UNL     1     -12.773  16.082  71.318  1.00  0.00    -0.483 F  
ENDBRANCH  10  11
ENDBRANCH   3   7
TORSDOF 2
ENDMDL
MODEL       53
REMARK 921   NORMALIZED FREE ENERGY PREDICTED BY IDOCK:   -5.20 KCAL/MOL
REMARK 922        TOTAL FREE ENERGY PREDICTED BY IDOCK:   -6.08 KCAL/MOL
REMARK 923 INTER-LIGAND FREE ENERGY PREDICTED BY IDOCK:   -5.71 KCAL/MOL
REMARK 924 INTRA-LIGAND FREE ENERGY PREDICTED BY IDOCK:   -0.36 KCAL/MOL
REMARK 927      BINDING AFFINITY PREDICTED BY RF-SCORE:    0.00 PKD
ROOT
HETATM    1  C   UNL     1      -9.398   6.017  69.955  1.00  0.00    -0.170 C  
HETATM    2  C   UNL     1      -9.876   7.050  70.903  1.00  0.00    -0.185 A  
HETATM    3  C   UNL     1     -10.081   8.419  70.838  1.00  0.00    -0.234 A  
HETATM    4  O   UNL     1     -10.209   6.595  72.140  1.00  0.00    -0.190 OA 
HETATM    5  C   UNL     1     -10.551   8.727  72.135  1.00  0.00    -0.316 A  
HETATM    6  N   UNL     1     -10.635   7.654  72.921  1.00  0.00    -0.321 NA 
ENDROOT
BRANCH   3   7
HETATM    7  C   UNL     1      -9.832   9.229  69.659  1.00  0.00    -0.186 C  
HETATM    8  O   UNL     1      -8.768   9.832  69.567  1.00  0.00    -0.154 OA 
HETATM    9  H   UNL     1     -11.671   8.711  68.868  1.00  0.00     0.000 HD 
HETATM   10  N   UNL     1     -10.834   9.267  68.696  1.00  0.00    -0.136 N  
BRANCH  10  11
HETATM   11  C   UNL     1     -10.784  10.018  67.492  1.00  0.00    -0.281 A  
HETATM   12  C   UNL     1     -10.085   9.600  66.356  1.00  0.00    -0.317 A  
HETATM   13  C   UNL     1     -10.035  10.379  65.199  1.00  0.00    -0.390 A  
HETATM   14  C   UNL     1     -10.689  11.609  65.141  1.00  0.00    -0.351 A  
HETATM   15  C   UNL     1     -10.608  12.452  63.893  1.00  0.00    -0.437 C  
HETATM   16  C   UNL     1     -11.410  12.034  66.270  1.00  0.00    -0.415 A  
HETATM   17  C   UNL     1     -11.455  11.246  67.434  1.00  0.00    -0.300 A  
HETATM   18  F   UNL     1     -11.827  12.670  63.327  1.00  0.00    -0.511 F  
HETATM   19  F   UNL     1     -10.077  13.683  64.129  1.00  0.00    -0.418 F  
HETATM   20  F   UNL     1      -9.838  11.898  62.913  1.00  0.00    -0.403 F  
ENDBRANCH  10  11
ENDBRANCH   3   7
TORSDOF 2
ENDMDL
MODEL       54
REMARK 921   NORMALIZED FREE ENERGY PREDICTED BY IDOCK:   -5.17 KCAL/MOL
REMARK 922        TOTAL FREE ENERGY PREDICTED BY IDOCK:   -6.04 KCAL/MOL
REMARK 923 INTER-LIGAND FREE ENERGY PREDICTED BY IDOCK:   -5.67 KCAL/MOL
REMARK 924 INTRA-LIGAND FREE ENERGY PREDICTED BY IDOCK:   -0.38 KCAL/MOL
REMARK 927      BINDING AFFINITY PREDICTED BY RF-SCORE:    0.00 PKD
ROOT
HETATM    1  C   UNL     1     -10.386  11.205  65.142  1.00  0.00    -0.354 C  
HETATM    2  C   UNL     1     -10.318  10.952  66.600  1.00  0.00    -0.239 A  
HETATM    3  C   UNL     1     -10.002  11.714  67.713  1.00  0.00    -0.191 A  
HETATM    4  O   UNL     1     -10.639   9.688  66.985  1.00  0.00    -0.241 OA 
HETATM    5  C   UNL     1     -10.156  10.794  68.775  1.00  0.00    -0.191 A  
HETATM    6  N   UNL     1     -10.536   9.586  68.361  1.00  0.00    -0.226 NA 
ENDROOT
BRANCH   3   7
HETATM    7  C   UNL     1      -9.618  13.114  67.664  1.00  0.00    -0.210 C  
HETATM    8  O   UNL     1      -8.429  13.406  67.738  1.00  0.00    -0.155 OA 
HETATM    9  H   UNL     1     -11.595  13.688  67.463  1.00  0.00     0.000 HD 
HETATM   10  N   UNL     1     -10.642  14.045  67.534  1.00  0.00    -0.258 N  
BRANCH  10  11
HETATM   11  C   UNL     1     -10.466  15.453  67.493  1.00  0.00    -0.275 A  
HETATM   12  C   UNL     1     -10.533  16.268  68.627  1.00  0.00    -0.282 A  
HETATM   13  C   UNL     1     -10.383  17.653  68.544  1.00  0.00    -0.370 A  
HETATM   14  C   UNL     1     -10.157  18.271  67.314  1.00  0.00    -0.366 A  
HETATM   15  C   UNL     1     -10.019  19.770  67.235  1.00  0.00    -0.400 C  
HETATM   16  C   UNL     1     -10.070  17.463  66.169  1.00  0.00    -0.309 A  
HETATM   17  C   UNL     1     -10.223  16.067  66.258  1.00  0.00    -0.329 A  
HETATM   18  F   UNL     1      -8.804  20.161  66.762  1.00  0.00    -0.349 F  
HETATM   19  F   UNL     1     -10.944  20.336  66.410  1.00  0.00    -0.410 F  
HETATM   20  F   UNL     1     -10.167  20.394  68.439  1.00  0.00    -0.511 F  
ENDBRANCH  10  11
ENDBRANCH   3   7
TORSDOF 2
ENDMDL
MODEL       55
REMARK 921   NORMALIZED FREE ENERGY PREDICTED BY IDOCK:   -5.15 KCAL/MOL
REMARK 922        TOTAL FREE ENERGY PREDICTED BY IDOCK:   -6.02 KCAL/MOL
REMARK 923 INTER-LIGAND FREE ENERGY PREDICTED BY IDOCK:   -5.83 KCAL/MOL
REMARK 924 INTRA-LIGAND FREE ENERGY PREDICTED BY IDOCK:   -0.19 KCAL/MOL
REMARK 927      BINDING AFFINITY PREDICTED BY RF-SCORE:    0.00 PKD
ROOT
HETATM    1  C   UNL     1     -10.315  10.741  64.431  1.00  0.00    -0.405 C  
HETATM    2  C   UNL     1     -10.404  12.075  65.067  1.00  0.00    -0.281 A  
HETATM    3  C   UNL     1     -10.764  12.540  66.322  1.00  0.00    -0.288 A  
HETATM    4  O   UNL     1     -10.055  13.122  64.273  1.00  0.00    -0.343 OA 
HETATM    5  C   UNL     1     -10.606  13.939  66.194  1.00  0.00    -0.291 A  
HETATM    6  N   UNL     1     -10.182  14.302  64.984  1.00  0.00    -0.406 NA 
ENDROOT
BRANCH   3   7
HETATM    7  C   UNL     1     -11.188  11.689  67.420  1.00  0.00    -0.298 C  
HETATM    8  O   UNL     1     -12.323  11.816  67.866  1.00  0.00    -0.399 OA 
HETATM    9  H   UNL     1      -9.350  10.739  67.440  1.00  0.00     0.000 HD 
HETATM   10  N   UNL     1     -10.260  10.771  67.899  1.00  0.00    -0.170 N  
BRANCH  10  11
HETATM   11  C   UNL     1     -10.481   9.873  68.978  1.00  0.00    -0.210 A  
HETATM   12  C   UNL     1     -10.793  10.294  70.274  1.00  0.00    -0.349 A  
HETATM   13  C   UNL     1     -10.975   9.383  71.316  1.00  0.00    -0.440 A  
HETATM   14  C   UNL     1     -10.853   8.012  71.091  1.00  0.00    -0.267 A  
HETATM   15  C   UNL     1     -11.030   7.040  72.230  1.00  0.00    -0.245 C  
HETATM   16  C   UNL     1     -10.557   7.574  69.789  1.00  0.00    -0.245 A  
HETATM   17  C   UNL     1     -10.372   8.497  68.744  1.00  0.00    -0.233 A  
HETATM   18  F   UNL     1     -12.065   6.179  72.029  1.00  0.00    -0.361 F  
HETATM   19  F   UNL     1      -9.928   6.264  72.429  1.00  0.00    -0.172 F  
HETATM   20  F   UNL     1     -11.276   7.644  73.427  1.00  0.00    -0.431 F  
ENDBRANCH  10  11
ENDBRANCH   3   7
TORSDOF 2
ENDMDL
MODEL       56
REMARK 921   NORMALIZED FREE ENERGY PREDICTED BY IDOCK:   -5.10 KCAL/MOL
REMARK 922        TOTAL FREE ENERGY PREDICTED BY IDOCK:   -5.96 KCAL/MOL
REMARK 923 INTER-LIGAND FREE ENERGY PREDICTED BY IDOCK:   -5.64 KCAL/MOL
REMARK 924 INTRA-LIGAND FREE ENERGY PREDICTED BY IDOCK:   -0.33 KCAL/MOL
REMARK 927      BINDING AFFINITY PREDICTED BY RF-SCORE:    0.00 PKD
ROOT
HETATM    1  C   UNL     1     -13.009  10.031  71.106  1.00  0.00    -0.478 C  
HETATM    2  C   UNL     1     -11.898   9.148  71.530  1.00  0.00    -0.358 A  
HETATM    3  C   UNL     1     -10.647   8.835  71.023  1.00  0.00    -0.293 A  
HETATM    4  O   UNL     1     -12.106   8.468  72.689  1.00  0.00    -0.378 OA 
HETATM    5  C   UNL     1     -10.147   7.914  71.971  1.00  0.00    -0.202 A  
HETATM    6  N   UNL     1     -11.000   7.686  72.969  1.00  0.00    -0.400 NA 
ENDROOT
BRANCH   3   7
HETATM    7  C   UNL     1     -10.099   9.389  69.797  1.00  0.00    -0.211 C  
HETATM    8  O   UNL     1      -9.084  10.074  69.857  1.00  0.00    -0.213 OA 
HETATM    9  H   UNL     1     -11.600   8.502  68.683  1.00  0.00     0.000 HD 
HETATM   10  N   UNL     1     -10.775   9.099  68.617  1.00  0.00    -0.165 N  
BRANCH  10  11
HETATM   11  C   UNL     1     -10.408   9.568  67.328  1.00  0.00    -0.255 A  
HETATM   12  C   UNL     1     -10.781  10.820  66.832  1.00  0.00    -0.309 A  
HETATM   13  C   UNL     1     -10.425  11.236  65.548  1.00  0.00    -0.323 A  
HETATM   14  C   UNL     1      -9.676  10.406  64.715  1.00  0.00    -0.383 A  
HETATM   15  C   UNL     1      -9.317  10.857  63.322  1.00  0.00    -0.309 C  
HETATM   16  C   UNL     1      -9.279   9.151  65.207  1.00  0.00    -0.243 A  
HETATM   17  C   UNL     1      -9.642   8.737  66.501  1.00  0.00    -0.302 A  
HETATM   18  F   UNL     1      -7.972  10.942  63.128  1.00  0.00    -0.111 F  
HETATM   19  F   UNL     1      -9.783  10.010  62.363  1.00  0.00    -0.301 F  
HETATM   20  F   UNL     1      -9.816  12.086  63.003  1.00  0.00    -0.400 F  
ENDBRANCH  10  11
ENDBRANCH   3   7
TORSDOF 2
ENDMDL
MODEL       57
REMARK 921   NORMALIZED FREE ENERGY PREDICTED BY IDOCK:   -5.07 KCAL/MOL
REMARK 922        TOTAL FREE ENERGY PREDICTED BY IDOCK:   -5.93 KCAL/MOL
REMARK 923 INTER-LIGAND FREE ENERGY PREDICTED BY IDOCK:   -5.60 KCAL/MOL
REMARK 924 INTRA-LIGAND FREE ENERGY PREDICTED BY IDOCK:   -0.33 KCAL/MOL
REMARK 927      BINDING AFFINITY PREDICTED BY RF-SCORE:    0.00 PKD
ROOT
HETATM    1  C   UNL     1     -10.812   9.257  69.547  1.00  0.00    -0.211 C  
HETATM    2  C   UNL     1     -10.473   9.058  68.119  1.00  0.00    -0.207 A  
HETATM    3  C   UNL     1     -10.460   9.866  66.994  1.00  0.00    -0.296 A  
HETATM    4  O   UNL     1     -10.067   7.804  67.788  1.00  0.00    -0.168 OA 
HETATM    5  C   UNL     1     -10.024   8.983  65.980  1.00  0.00    -0.176 A  
HETATM    6  N   UNL     1      -9.783   7.754  66.434  1.00  0.00    -0.186 NA 
ENDROOT
BRANCH   3   7
HETATM    7  C   UNL     1     -10.833  11.270  66.990  1.00  0.00    -0.280 C  
HETATM    8  O   UNL     1     -11.986  11.579  67.268  1.00  0.00    -0.605 OA 
HETATM    9  H   UNL     1      -8.907  11.817  66.470  1.00  0.00     0.000 HD 
HETATM   10  N   UNL     1      -9.838  12.185  66.666  1.00  0.00    -0.207 N  
BRANCH  10  11
HETATM   11  C   UNL     1     -10.015  13.592  66.586  1.00  0.00    -0.282 A  
HETATM   12  C   UNL     1     -10.601  14.230  65.490  1.00  0.00    -0.351 A  
HETATM   13  C   UNL     1     -10.733  15.619  65.435  1.00  0.00    -0.424 A  
HETATM   14  C   UNL     1     -10.282  16.418  66.485  1.00  0.00    -0.310 A  
HETATM   15  C   UNL     1     -10.410  17.918  66.404  1.00  0.00    -0.365 C  
HETATM   16  C   UNL     1      -9.707  15.788  67.601  1.00  0.00    -0.222 A  
HETATM   17  C   UNL     1      -9.575  14.389  67.651  1.00  0.00    -0.214 A  
HETATM   18  F   UNL     1     -11.191  18.432  67.393  1.00  0.00    -0.360 F  
HETATM   19  F   UNL     1      -9.208  18.550  66.505  1.00  0.00    -0.281 F  
HETATM   20  F   UNL     1     -10.959  18.354  65.233  1.00  0.00    -0.457 F  
ENDBRANCH  10  11
ENDBRANCH   3   7
TORSDOF 2
ENDMDL
MODEL       58
REMARK 921   NORMALIZED FREE ENERGY PREDICTED BY IDOCK:   -5.06 KCAL/MOL
REMARK 922        TOTAL FREE ENERGY PREDICTED BY IDOCK:   -5.92 KCAL/MOL
REMARK 923 INTER-LIGAND FREE ENERGY PREDICTED BY IDOCK:   -6.05 KCAL/MOL
REMARK 924 INTRA-LIGAND FREE ENERGY PREDICTED BY IDOCK:    0.12 KCAL/MOL
REMARK 927      BINDING AFFINITY PREDICTED BY RF-SCORE:    0.00 PKD
ROOT
HETATM    1  C   UNL     1     -10.594  19.421  66.558  1.00  0.00    -0.554 C  
HETATM    2  C   UNL     1      -9.209  18.921  66.402  1.00  0.00    -0.313 A  
HETATM    3  C   UNL     1      -8.474  17.883  66.954  1.00  0.00    -0.260 A  
HETATM    4  O   UNL     1      -8.440  19.606  65.515  1.00  0.00    -0.284 OA 
HETATM    5  C   UNL     1      -7.216  18.023  66.325  1.00  0.00    -0.275 A  
HETATM    6  N   UNL     1      -7.178  19.040  65.465  1.00  0.00    -0.489 NA 
ENDROOT
BRANCH   3   7
HETATM    7  C   UNL     1      -8.991  16.947  67.937  1.00  0.00    -0.225 C  
HETATM    8  O   UNL     1      -8.218  16.157  68.468  1.00  0.00    -0.168 OA 
HETATM    9  H   UNL     1     -10.897  17.722  67.728  1.00  0.00     0.000 HD 
HETATM   10  N   UNL     1     -10.351  17.012  68.215  1.00  0.00    -0.326 N  
BRANCH  10  11
HETATM   11  C   UNL     1     -11.041  16.167  69.125  1.00  0.00    -0.329 A  
HETATM   12  C   UNL     1     -11.483  14.883  68.794  1.00  0.00    -0.328 A  
HETATM   13  C   UNL     1     -12.183  14.092  69.707  1.00  0.00    -0.397 A  
HETATM   14  C   UNL     1     -12.462  14.563  70.989  1.00  0.00    -0.412 A  
HETATM   15  C   UNL     1     -13.239  13.708  71.958  1.00  0.00    -0.434 C  
HETATM   16  C   UNL     1     -12.008  15.845  71.341  1.00  0.00    -0.515 A  
HETATM   17  C   UNL     1     -11.305  16.639  70.417  1.00  0.00     0.096 A  
HETATM   18  F   UNL     1     -12.528  13.407  73.079  1.00  0.00    -0.016 F  
HETATM   19  F   UNL     1     -14.382  14.312  72.387  1.00  0.00    -0.539 F  
HETATM   20  F   UNL     1     -13.629  12.511  71.433  1.00  0.00    -0.278 F  
ENDBRANCH  10  11
ENDBRANCH   3   7
TORSDOF 2
ENDMDL
MODEL       59
REMARK 921   NORMALIZED FREE ENERGY PREDICTED BY IDOCK:   -5.01 KCAL/MOL
REMARK 922        TOTAL FREE ENERGY PREDICTED BY IDOCK:   -5.86 KCAL/MOL
REMARK 923 INTER-LIGAND FREE ENERGY PREDICTED BY IDOCK:   -5.51 KCAL/MOL
REMARK 924 INTRA-LIGAND FREE ENERGY PREDICTED BY IDOCK:   -0.35 KCAL/MOL
REMARK 927      BINDING AFFINITY PREDICTED BY RF-SCORE:    0.00 PKD
ROOT
HETATM    1  C   UNL     1     -12.041  15.442  69.657  1.00  0.00    -0.354 C  
HETATM    2  C   UNL     1     -11.386  15.685  68.352  1.00  0.00    -0.364 A  
HETATM    3  C   UNL     1     -11.046  14.897  67.264  1.00  0.00    -0.336 A  
HETATM    4  O   UNL     1     -11.021  16.973  68.116  1.00  0.00    -0.367 OA 
HETATM    5  C   UNL     1     -10.446  15.823  66.382  1.00  0.00    -0.303 A  
HETATM    6  N   UNL     1     -10.425  17.063  66.871  1.00  0.00    -0.299 NA 
ENDROOT
BRANCH   3   7
HETATM    7  C   UNL     1     -11.298  13.469  67.178  1.00  0.00    -0.321 C  
HETATM    8  O   UNL     1     -12.376  13.082  66.741  1.00  0.00    -0.367 OA 
HETATM    9  H   UNL     1      -9.417  13.054  67.932  1.00  0.00     0.000 HD 
HETATM   10  N   UNL     1     -10.281  12.622  67.604  1.00  0.00    -0.214 N  
BRANCH  10  11
HETATM   11  C   UNL     1     -10.350  11.204  67.618  1.00  0.00    -0.192 A  
HETATM   12  C   UNL     1     -10.621  10.461  68.771  1.00  0.00    -0.232 A  
HETATM   13  C   UNL     1     -10.654   9.066  68.752  1.00  0.00    -0.196 A  
HETATM   14  C   UNL     1     -10.416   8.364  67.571  1.00  0.00    -0.328 A  
HETATM   15  C   UNL     1     -10.431   6.857  67.569  1.00  0.00    -0.247 C  
HETATM   16  C   UNL     1     -10.159   9.099  66.401  1.00  0.00    -0.345 A  
HETATM   17  C   UNL     1     -10.126  10.505  66.426  1.00  0.00    -0.285 A  
HETATM   18  F   UNL     1     -11.390   6.343  66.752  1.00  0.00    -0.434 F  
HETATM   19  F   UNL     1      -9.251   6.324  67.146  1.00  0.00    -0.120 F  
HETATM   20  F   UNL     1     -10.661   6.314  68.799  1.00  0.00    -0.211 F  
ENDBRANCH  10  11
ENDBRANCH   3   7
TORSDOF 2
ENDMDL
MODEL       60
REMARK 921   NORMALIZED FREE ENERGY PREDICTED BY IDOCK:   -4.99 KCAL/MOL
REMARK 922        TOTAL FREE ENERGY PREDICTED BY IDOCK:   -5.84 KCAL/MOL
REMARK 923 INTER-LIGAND FREE ENERGY PREDICTED BY IDOCK:   -5.54 KCAL/MOL
REMARK 924 INTRA-LIGAND FREE ENERGY PREDICTED BY IDOCK:   -0.29 KCAL/MOL
REMARK 927      BINDING AFFINITY PREDICTED BY RF-SCORE:    0.00 PKD
ROOT
HETATM    1  C   UNL     1      -7.483  19.140  68.164  1.00  0.00    -0.316 C  
HETATM    2  C   UNL     1      -8.817  19.332  67.550  1.00  0.00    -0.299 A  
HETATM    3  C   UNL     1      -9.657  18.553  66.770  1.00  0.00    -0.329 A  
HETATM    4  O   UNL     1      -9.397  20.539  67.783  1.00  0.00    -0.303 OA 
HETATM    5  C   UNL     1     -10.766  19.403  66.561  1.00  0.00    -0.418 A  
HETATM    6  N   UNL     1     -10.630  20.586  67.158  1.00  0.00     0.092 NA 
ENDROOT
BRANCH   3   7
HETATM    7  C   UNL     1      -9.351  17.201  66.336  1.00  0.00    -0.262 C  
HETATM    8  O   UNL     1      -8.302  16.993  65.736  1.00  0.00    -0.500 OA 
HETATM    9  H   UNL     1     -11.115  16.499  67.158  1.00  0.00     0.000 HD 
HETATM   10  N   UNL     1     -10.285  16.216  66.637  1.00  0.00    -0.279 N  
BRANCH  10  11
HETATM   11  C   UNL     1     -10.174  14.847  66.277  1.00  0.00    -0.294 A  
HETATM   12  C   UNL     1     -10.598  14.341  65.044  1.00  0.00    -0.444 A  
HETATM   13  C   UNL     1     -10.498  12.984  64.736  1.00  0.00    -0.382 A  
HETATM   14  C   UNL     1      -9.966  12.082  65.657  1.00  0.00    -0.270 A  
HETATM   15  C   UNL     1      -9.886  10.615  65.320  1.00  0.00    -0.275 C  
HETATM   16  C   UNL     1      -9.521  12.579  66.893  1.00  0.00    -0.219 A  
HETATM   17  C   UNL     1      -9.624  13.948  67.199  1.00  0.00    -0.247 A  
HETATM   18  F   UNL     1      -8.608  10.147  65.316  1.00  0.00    -0.134 F  
HETATM   19  F   UNL     1     -10.568   9.838  66.207  1.00  0.00    -0.280 F  
HETATM   20  F   UNL     1     -10.397  10.310  64.093  1.00  0.00    -0.383 F  
ENDBRANCH  10  11
ENDBRANCH   3   7
TORSDOF 2
ENDMDL
MODEL       61
REMARK 921   NORMALIZED FREE ENERGY PREDICTED BY IDOCK:   -4.97 KCAL/MOL
REMARK 922        TOTAL FREE ENERGY PREDICTED BY IDOCK:   -5.82 KCAL/MOL
REMARK 923 INTER-LIGAND FREE ENERGY PREDICTED BY IDOCK:   -5.66 KCAL/MOL
REMARK 924 INTRA-LIGAND FREE ENERGY PREDICTED BY IDOCK:   -0.16 KCAL/MOL
REMARK 927      BINDING AFFINITY PREDICTED BY RF-SCORE:    0.00 PKD
ROOT
HETATM    1  C   UNL     1     -10.647  11.955  63.787  1.00  0.00    -0.475 C  
HETATM    2  C   UNL     1     -10.778  12.990  64.838  1.00  0.00    -0.332 A  
HETATM    3  C   UNL     1     -11.026  12.975  66.202  1.00  0.00    -0.300 A  
HETATM    4  O   UNL     1     -10.619  14.272  64.415  1.00  0.00    -0.311 OA 
HETATM    5  C   UNL     1     -11.008  14.348  66.537  1.00  0.00    -0.316 A  
HETATM    6  N   UNL     1     -10.765  15.133  65.488  1.00  0.00    -0.340 NA 
ENDROOT
BRANCH   3   7
HETATM    7  C   UNL     1     -11.239  11.769  66.982  1.00  0.00    -0.322 C  
HETATM    8  O   UNL     1     -12.249  11.679  67.671  1.00  0.00    -0.544 OA 
HETATM    9  H   UNL     1      -9.475  10.954  66.273  1.00  0.00     0.000 HD 
HETATM   10  N   UNL     1     -10.266  10.780  66.893  1.00  0.00    -0.218 N  
BRANCH  10  11
HETATM   11  C   UNL     1     -10.287   9.547  67.596  1.00  0.00    -0.244 A  
HETATM   12  C   UNL     1     -10.469   8.310  66.971  1.00  0.00    -0.384 A  
HETATM   13  C   UNL     1     -10.511   7.120  67.699  1.00  0.00    -0.306 A  
HETATM   14  C   UNL     1     -10.370   7.129  69.086  1.00  0.00    -0.205 A  
HETATM   15  C   UNL     1     -10.441   5.839  69.863  1.00  0.00    -0.290 C  
HETATM   16  C   UNL     1     -10.170   8.364  69.726  1.00  0.00    -0.207 A  
HETATM   17  C   UNL     1     -10.129   9.560  68.988  1.00  0.00    -0.201 A  
HETATM   18  F   UNL     1      -9.291   5.570  70.539  1.00  0.00    -0.154 F  
HETATM   19  F   UNL     1     -11.434   5.846  70.796  1.00  0.00    -0.357 F  
HETATM   20  F   UNL     1     -10.676   4.747  69.081  1.00  0.00    -0.154 F  
ENDBRANCH  10  11
ENDBRANCH   3   7
TORSDOF 2
ENDMDL
MODEL       62
REMARK 921   NORMALIZED FREE ENERGY PREDICTED BY IDOCK:   -4.95 KCAL/MOL
REMARK 922        TOTAL FREE ENERGY PREDICTED BY IDOCK:   -5.80 KCAL/MOL
REMARK 923 INTER-LIGAND FREE ENERGY PREDICTED BY IDOCK:   -5.55 KCAL/MOL
REMARK 924 INTRA-LIGAND FREE ENERGY PREDICTED BY IDOCK:   -0.25 KCAL/MOL
REMARK 927      BINDING AFFINITY PREDICTED BY RF-SCORE:    0.00 PKD
ROOT
HETATM    1  C   UNL     1     -11.515   8.622  72.127  1.00  0.00    -0.443 C  
HETATM    2  C   UNL     1     -11.206   7.853  70.900  1.00  0.00    -0.270 A  
HETATM    3  C   UNL     1     -10.731   8.171  69.638  1.00  0.00    -0.196 A  
HETATM    4  O   UNL     1     -11.415   6.512  70.986  1.00  0.00    -0.302 OA 
HETATM    5  C   UNL     1     -10.689   6.914  68.993  1.00  0.00    -0.230 A  
HETATM    6  N   UNL     1     -11.090   5.917  69.781  1.00  0.00    -0.389 NA 
ENDROOT
BRANCH   3   7
HETATM    7  C   UNL     1     -10.396   9.517  69.205  1.00  0.00    -0.207 C  
HETATM    8  O   UNL     1      -9.474  10.106  69.757  1.00  0.00    -0.220 OA 
HETATM    9  H   UNL     1     -11.889   9.467  67.774  1.00  0.00     0.000 HD 
HETATM   10  N   UNL     1     -11.158  10.054  68.174  1.00  0.00    -0.233 N  
BRANCH  10  11
HETATM   11  C   UNL     1     -10.998  11.358  67.633  1.00  0.00    -0.250 A  
HETATM   12  C   UNL     1     -11.223  12.526  68.367  1.00  0.00    -0.313 A  
HETATM   13  C   UNL     1     -11.082  13.790  67.793  1.00  0.00    -0.288 A  
HETATM   14  C   UNL     1     -10.706  13.928  66.457  1.00  0.00    -0.277 A  
HETATM   15  C   UNL     1     -10.580  15.298  65.843  1.00  0.00    -0.335 C  
HETATM   16  C   UNL     1     -10.460  12.762  65.712  1.00  0.00    -0.294 A  
HETATM   17  C   UNL     1     -10.605  11.490  66.295  1.00  0.00    -0.309 A  
HETATM   18  F   UNL     1      -9.320  15.562  65.402  1.00  0.00    -0.309 F  
HETATM   19  F   UNL     1     -11.398  15.465  64.767  1.00  0.00    -0.371 F  
HETATM   20  F   UNL     1     -10.891  16.310  66.704  1.00  0.00    -0.312 F  
ENDBRANCH  10  11
ENDBRANCH   3   7
TORSDOF 2
ENDMDL
MODEL       63
REMARK 921   NORMALIZED FREE ENERGY PREDICTED BY IDOCK:   -4.93 KCAL/MOL
REMARK 922        TOTAL FREE ENERGY PREDICTED BY IDOCK:   -5.77 KCAL/MOL
REMARK 923 INTER-LIGAND FREE ENERGY PREDICTED BY IDOCK:   -5.49 KCAL/MOL
REMARK 924 INTRA-LIGAND FREE ENERGY PREDICTED BY IDOCK:   -0.28 KCAL/MOL
REMARK 927      BINDING AFFINITY PREDICTED BY RF-SCORE:    0.00 PKD
ROOT
HETATM    1  C   UNL     1      -9.382   4.050  70.361  1.00  0.00    -0.230 C  
HETATM    2  C   UNL     1     -10.168   4.358  71.578  1.00  0.00    -0.097 A  
HETATM    3  C   UNL     1     -11.010   5.388  71.965  1.00  0.00    -0.244 A  
HETATM    4  O   UNL     1     -10.079   3.439  72.576  1.00  0.00    -0.152 OA 
HETATM    5  C   UNL     1     -11.397   5.002  73.268  1.00  0.00    -0.317 A  
HETATM    6  N   UNL     1     -10.855   3.845  73.647  1.00  0.00    -0.225 NA 
ENDROOT
BRANCH   3   7
HETATM    7  C   UNL     1     -11.334   6.536  71.136  1.00  0.00    -0.314 C  
HETATM    8  O   UNL     1     -11.995   6.365  70.117  1.00  0.00    -0.354 OA 
HETATM    9  H   UNL     1     -10.340   7.802  72.436  1.00  0.00     0.000 HD 
HETATM   10  N   UNL     1     -10.865   7.774  71.561  1.00  0.00    -0.226 N  
BRANCH  10  11
HETATM   11  C   UNL     1     -11.059   9.002  70.875  1.00  0.00    -0.280 A  
HETATM   12  C   UNL     1     -11.923  10.004  71.325  1.00  0.00    -0.483 A  
HETATM   13  C   UNL     1     -12.108  11.187  70.609  1.00  0.00    -0.477 A  
HETATM   14  C   UNL     1     -11.429  11.408  69.411  1.00  0.00    -0.378 A  
HETATM   15  C   UNL     1     -11.656  12.680  68.635  1.00  0.00    -0.316 C  
HETATM   16  C   UNL     1     -10.544  10.416  68.956  1.00  0.00    -0.247 A  
HETATM   17  C   UNL     1     -10.362   9.225  69.681  1.00  0.00    -0.227 A  
HETATM   18  F   UNL     1     -10.522  13.420  68.498  1.00  0.00    -0.231 F  
HETATM   19  F   UNL     1     -12.109  12.447  67.372  1.00  0.00    -0.418 F  
HETATM   20  F   UNL     1     -12.574  13.510  69.209  1.00  0.00    -0.274 F  
ENDBRANCH  10  11
ENDBRANCH   3   7
TORSDOF 2
ENDMDL
MODEL       64
REMARK 921   NORMALIZED FREE ENERGY PREDICTED BY IDOCK:   -4.92 KCAL/MOL
REMARK 922        TOTAL FREE ENERGY PREDICTED BY IDOCK:   -5.76 KCAL/MOL
REMARK 923 INTER-LIGAND FREE ENERGY PREDICTED BY IDOCK:   -5.43 KCAL/MOL
REMARK 924 INTRA-LIGAND FREE ENERGY PREDICTED BY IDOCK:   -0.33 KCAL/MOL
REMARK 927      BINDING AFFINITY PREDICTED BY RF-SCORE:    0.00 PKD
ROOT
HETATM    1  C   UNL     1     -11.690  15.470  68.508  1.00  0.00    -0.351 C  
HETATM    2  C   UNL     1     -10.729  15.826  67.440  1.00  0.00    -0.317 A  
HETATM    3  C   UNL     1      -9.767  15.136  66.718  1.00  0.00    -0.255 A  
HETATM    4  O   UNL     1     -10.765  17.122  67.033  1.00  0.00    -0.266 OA 
HETATM    5  C   UNL     1      -9.240  16.134  65.867  1.00  0.00    -0.261 A  
HETATM    6  N   UNL     1      -9.823  17.320  66.038  1.00  0.00    -0.493 NA 
ENDROOT
BRANCH   3   7
HETATM    7  C   UNL     1      -9.467  13.726  66.894  1.00  0.00    -0.262 C  
HETATM    8  O   UNL     1      -8.352  13.401  67.286  1.00  0.00    -0.182 OA 
HETATM    9  H   UNL     1     -11.379  13.208  66.299  1.00  0.00     0.000 HD 
HETATM   10  N   UNL     1     -10.483  12.824  66.600  1.00  0.00    -0.255 N  
BRANCH  10  11
HETATM   11  C   UNL     1     -10.373  11.411  66.687  1.00  0.00    -0.233 A  
HETATM   12  C   UNL     1      -9.819  10.622  65.675  1.00  0.00    -0.307 A  
HETATM   13  C   UNL     1      -9.752   9.232  65.784  1.00  0.00    -0.339 A  
HETATM   14  C   UNL     1     -10.239   8.583  66.918  1.00  0.00    -0.375 A  
HETATM   15  C   UNL     1     -10.182   7.079  67.013  1.00  0.00    -0.260 C  
HETATM   16  C   UNL     1     -10.783   9.366  67.950  1.00  0.00    -0.269 A  
HETATM   17  C   UNL     1     -10.849  10.766  67.835  1.00  0.00    -0.313 A  
HETATM   18  F   UNL     1      -9.426   6.648  68.060  1.00  0.00    -0.122 F  
HETATM   19  F   UNL     1     -11.413   6.521  67.182  1.00  0.00    -0.437 F  
HETATM   20  F   UNL     1      -9.656   6.484  65.905  1.00  0.00    -0.134 F  
ENDBRANCH  10  11
ENDBRANCH   3   7
TORSDOF 2
ENDMDL
MODEL       65
REMARK 921   NORMALIZED FREE ENERGY PREDICTED BY IDOCK:   -4.90 KCAL/MOL
REMARK 922        TOTAL FREE ENERGY PREDICTED BY IDOCK:   -5.74 KCAL/MOL
REMARK 923 INTER-LIGAND FREE ENERGY PREDICTED BY IDOCK:   -5.45 KCAL/MOL
REMARK 924 INTRA-LIGAND FREE ENERGY PREDICTED BY IDOCK:   -0.28 KCAL/MOL
REMARK 927      BINDING AFFINITY PREDICTED BY RF-SCORE:    0.00 PKD
ROOT
HETATM    1  C   UNL     1      -7.277  18.923  66.561  1.00  0.00    -0.247 C  
HETATM    2  C   UNL     1      -8.675  18.968  67.048  1.00  0.00    -0.294 A  
HETATM    3  C   UNL     1      -9.713  18.053  67.134  1.00  0.00    -0.297 A  
HETATM    4  O   UNL     1      -9.080  20.168  67.543  1.00  0.00    -0.339 OA 
HETATM    5  C   UNL     1     -10.755  18.815  67.709  1.00  0.00    -0.343 A  
HETATM    6  N   UNL     1     -10.396  20.073  67.961  1.00  0.00    -0.396 NA 
ENDROOT
BRANCH   3   7
HETATM    7  C   UNL     1      -9.622  16.670  66.698  1.00  0.00    -0.263 C  
HETATM    8  O   UNL     1      -9.233  16.431  65.561  1.00  0.00    -0.419 OA 
HETATM    9  H   UNL     1     -10.280  16.008  68.544  1.00  0.00     0.000 HD 
HETATM   10  N   UNL     1      -9.989  15.695  67.618  1.00  0.00    -0.235 N  
BRANCH  10  11
HETATM   11  C   UNL     1      -9.991  14.296  67.370  1.00  0.00    -0.242 A  
HETATM   12  C   UNL     1      -8.902  13.466  67.653  1.00  0.00    -0.200 A  
HETATM   13  C   UNL     1      -8.930  12.100  67.370  1.00  0.00    -0.180 A  
HETATM   14  C   UNL     1     -10.057  11.516  66.792  1.00  0.00    -0.245 A  
HETATM   15  C   UNL     1     -10.066  10.043  66.469  1.00  0.00    -0.232 C  
HETATM   16  C   UNL     1     -11.165  12.336  66.518  1.00  0.00    -0.373 A  
HETATM   17  C   UNL     1     -11.131  13.712  66.804  1.00  0.00    -0.315 A  
HETATM   18  F   UNL     1     -11.034   9.364  67.142  1.00  0.00    -0.319 F  
HETATM   19  F   UNL     1     -10.285   9.800  65.147  1.00  0.00    -0.390 F  
HETATM   20  F   UNL     1      -8.893   9.414  66.770  1.00  0.00    -0.124 F  
ENDBRANCH  10  11
ENDBRANCH   3   7
TORSDOF 2
ENDMDL
MODEL       66
REMARK 921   NORMALIZED FREE ENERGY PREDICTED BY IDOCK:   -4.88 KCAL/MOL
REMARK 922        TOTAL FREE ENERGY PREDICTED BY IDOCK:   -5.72 KCAL/MOL
REMARK 923 INTER-LIGAND FREE ENERGY PREDICTED BY IDOCK:   -5.40 KCAL/MOL
REMARK 924 INTRA-LIGAND FREE ENERGY PREDICTED BY IDOCK:   -0.32 KCAL/MOL
REMARK 927      BINDING AFFINITY PREDICTED BY RF-SCORE:    0.00 PKD
ROOT
HETATM    1  C   UNL     1     -11.273  14.709  67.248  1.00  0.00    -0.344 C  
HETATM    2  C   UNL     1     -11.712  13.910  66.081  1.00  0.00    -0.376 A  
HETATM    3  C   UNL     1     -11.828  12.556  65.809  1.00  0.00    -0.494 A  
HETATM    4  O   UNL     1     -12.111  14.630  65.000  1.00  0.00    -0.386 OA 
HETATM    5  C   UNL     1     -12.316  12.544  64.483  1.00  0.00    -0.467 A  
HETATM    6  N   UNL     1     -12.493  13.768  63.987  1.00  0.00    -0.705 NA 
ENDROOT
BRANCH   3   7
HETATM    7  C   UNL     1     -11.491  11.500  66.749  1.00  0.00    -0.157 C  
HETATM    8  O   UNL     1     -12.076  11.455  67.825  1.00  0.00    -0.637 OA 
HETATM    9  H   UNL     1     -10.103  10.718  65.430  1.00  0.00     0.000 HD 
HETATM   10  N   UNL     1     -10.510  10.597  66.356  1.00  0.00    -0.235 N  
BRANCH  10  11
HETATM   11  C   UNL     1     -10.032   9.517  67.145  1.00  0.00    -0.204 A  
HETATM   12  C   UNL     1      -8.965   9.635  68.041  1.00  0.00    -0.122 A  
HETATM   13  C   UNL     1      -8.504   8.544  68.779  1.00  0.00    -0.123 A  
HETATM   14  C   UNL     1      -9.101   7.291  68.644  1.00  0.00    -0.133 A  
HETATM   15  C   UNL     1      -8.578   6.115  69.429  1.00  0.00    -0.123 C  
HETATM   16  C   UNL     1     -10.185   7.161  67.759  1.00  0.00    -0.234 A  
HETATM   17  C   UNL     1     -10.645   8.264  67.017  1.00  0.00    -0.328 A  
HETATM   18  F   UNL     1      -9.510   5.591  70.272  1.00  0.00    -0.165 F  
HETATM   19  F   UNL     1      -8.177   5.089  68.628  1.00  0.00    -0.084 F  
HETATM   20  F   UNL     1      -7.501   6.418  70.209  1.00  0.00    -0.083 F  
ENDBRANCH  10  11
ENDBRANCH   3   7
TORSDOF 2
ENDMDL
MODEL       67
REMARK 921   NORMALIZED FREE ENERGY PREDICTED BY IDOCK:   -4.82 KCAL/MOL
REMARK 922        TOTAL FREE ENERGY PREDICTED BY IDOCK:   -5.65 KCAL/MOL
REMARK 923 INTER-LIGAND FREE ENERGY PREDICTED BY IDOCK:   -5.32 KCAL/MOL
REMARK 924 INTRA-LIGAND FREE ENERGY PREDICTED BY IDOCK:   -0.33 KCAL/MOL
REMARK 927      BINDING AFFINITY PREDICTED BY RF-SCORE:    0.00 PKD
ROOT
HETATM    1  C   UNL     1     -10.113   8.636  66.848  1.00  0.00    -0.355 C  
HETATM    2  C   UNL     1     -10.317   8.862  68.297  1.00  0.00    -0.206 A  
HETATM    3  C   UNL     1     -10.688   9.946  69.077  1.00  0.00    -0.244 A  
HETATM    4  O   UNL     1     -10.110   7.777  69.089  1.00  0.00    -0.185 OA 
HETATM    5  C   UNL     1     -10.672   9.410  70.384  1.00  0.00    -0.263 A  
HETATM    6  N   UNL     1     -10.332   8.122  70.410  1.00  0.00    -0.202 NA 
ENDROOT
BRANCH   3   7
HETATM    7  C   UNL     1     -10.992  11.266  68.552  1.00  0.00    -0.220 C  
HETATM    8  O   UNL     1     -12.056  11.442  67.969  1.00  0.00    -0.629 OA 
HETATM    9  H   UNL     1      -9.196  12.004  69.266  1.00  0.00     0.000 HD 
HETATM   10  N   UNL     1     -10.039  12.258  68.750  1.00  0.00    -0.130 N  
BRANCH  10  11
HETATM   11  C   UNL     1     -10.145  13.598  68.291  1.00  0.00    -0.240 A  
HETATM   12  C   UNL     1     -10.968  14.552  68.895  1.00  0.00    -0.268 A  
HETATM   13  C   UNL     1     -11.068  15.853  68.399  1.00  0.00    -0.345 A  
HETATM   14  C   UNL     1     -10.340  16.243  67.276  1.00  0.00    -0.285 A  
HETATM   15  C   UNL     1     -10.475  17.644  66.736  1.00  0.00    -0.289 C  
HETATM   16  C   UNL     1      -9.495  15.299  66.669  1.00  0.00    -0.281 A  
HETATM   17  C   UNL     1      -9.400  13.989  67.172  1.00  0.00    -0.244 A  
HETATM   18  F   UNL     1      -9.300  18.330  66.758  1.00  0.00    -0.262 F  
HETATM   19  F   UNL     1     -10.899  17.666  65.441  1.00  0.00    -0.402 F  
HETATM   20  F   UNL     1     -11.365  18.411  67.429  1.00  0.00    -0.265 F  
ENDBRANCH  10  11
ENDBRANCH   3   7
TORSDOF 2
ENDMDL
MODEL       68
REMARK 921   NORMALIZED FREE ENERGY PREDICTED BY IDOCK:   -4.81 KCAL/MOL
REMARK 922        TOTAL FREE ENERGY PREDICTED BY IDOCK:   -5.64 KCAL/MOL
REMARK 923 INTER-LIGAND FREE ENERGY PREDICTED BY IDOCK:   -5.37 KCAL/MOL
REMARK 924 INTRA-LIGAND FREE ENERGY PREDICTED BY IDOCK:   -0.27 KCAL/MOL
REMARK 927      BINDING AFFINITY PREDICTED BY RF-SCORE:    0.00 PKD
ROOT
HETATM    1  C   UNL     1     -11.427   6.526  70.552  1.00  0.00    -0.448 C  
HETATM    2  C   UNL     1     -10.171   6.329  69.792  1.00  0.00    -0.187 A  
HETATM    3  C   UNL     1      -9.636   6.863  68.630  1.00  0.00    -0.133 A  
HETATM    4  O   UNL     1      -9.306   5.426  70.322  1.00  0.00    -0.145 OA 
HETATM    5  C   UNL     1      -8.396   6.193  68.521  1.00  0.00    -0.114 A  
HETATM    6  N   UNL     1      -8.182   5.337  69.520  1.00  0.00    -0.094 NA 
ENDROOT
BRANCH   3   7
HETATM    7  C   UNL     1     -10.295   7.864  67.809  1.00  0.00    -0.226 C  
HETATM    8  O   UNL     1     -11.091   7.498  66.952  1.00  0.00    -0.184 OA 
HETATM    9  H   UNL     1      -9.310   9.384  68.808  1.00  0.00     0.000 HD 
HETATM   10  N   UNL     1      -9.972   9.193  68.056  1.00  0.00    -0.169 N  
BRANCH  10  11
HETATM   11  C   UNL     1     -10.493  10.307  67.345  1.00  0.00    -0.251 A  
HETATM   12  C   UNL     1     -10.261  10.523  65.984  1.00  0.00    -0.310 A  
HETATM   13  C   UNL     1     -10.767  11.645  65.324  1.00  0.00    -0.346 A  
HETATM   14  C   UNL     1     -11.528  12.591  66.010  1.00  0.00    -0.423 A  
HETATM   15  C   UNL     1     -12.048  13.809  65.291  1.00  0.00    -0.407 C  
HETATM   16  C   UNL     1     -11.783  12.377  67.375  1.00  0.00    -0.417 A  
HETATM   17  C   UNL     1     -11.270  11.246  68.035  1.00  0.00    -0.351 A  
HETATM   18  F   UNL     1     -13.408  13.877  65.291  1.00  0.00    -0.414 F  
HETATM   19  F   UNL     1     -11.613  14.972  65.853  1.00  0.00    -0.347 F  
HETATM   20  F   UNL     1     -11.673  13.869  63.981  1.00  0.00    -0.407 F  
ENDBRANCH  10  11
ENDBRANCH   3   7
TORSDOF 2
ENDMDL
MODEL       69
REMARK 921   NORMALIZED FREE ENERGY PREDICTED BY IDOCK:   -4.79 KCAL/MOL
REMARK 922        TOTAL FREE ENERGY PREDICTED BY IDOCK:   -5.62 KCAL/MOL
REMARK 923 INTER-LIGAND FREE ENERGY PREDICTED BY IDOCK:   -5.26 KCAL/MOL
REMARK 924 INTRA-LIGAND FREE ENERGY PREDICTED BY IDOCK:   -0.36 KCAL/MOL
REMARK 927      BINDING AFFINITY PREDICTED BY RF-SCORE:    0.00 PKD
ROOT
HETATM    1  C   UNL     1      -5.695  14.881  70.631  1.00  0.00    -0.141 C  
HETATM    2  C   UNL     1      -5.998  16.212  70.056  1.00  0.00    -0.164 A  
HETATM    3  C   UNL     1      -6.623  16.662  68.903  1.00  0.00    -0.178 A  
HETATM    4  O   UNL     1      -5.592  17.274  70.802  1.00  0.00    -0.183 OA 
HETATM    5  C   UNL     1      -6.541  18.067  69.032  1.00  0.00    -0.251 A  
HETATM    6  N   UNL     1      -5.934  18.448  70.155  1.00  0.00    -0.185 NA 
ENDROOT
BRANCH   3   7
HETATM    7  C   UNL     1      -7.183  15.792  67.884  1.00  0.00    -0.139 C  
HETATM    8  O   UNL     1      -6.423  15.201  67.125  1.00  0.00    -0.291 OA 
HETATM    9  H   UNL     1      -9.103  16.212  68.529  1.00  0.00     0.000 HD 
HETATM   10  N   UNL     1      -8.568  15.688  67.836  1.00  0.00    -0.160 N  
BRANCH  10  11
HETATM   11  C   UNL     1      -9.298  14.910  66.898  1.00  0.00    -0.241 A  
HETATM   12  C   UNL     1      -9.571  15.337  65.595  1.00  0.00    -0.313 A  
HETATM   13  C   UNL     1     -10.316  14.556  64.710  1.00  0.00    -0.319 A  
HETATM   14  C   UNL     1     -10.812  13.313  65.102  1.00  0.00    -0.323 A  
HETATM   15  C   UNL     1     -11.634  12.489  64.144  1.00  0.00    -0.389 C  
HETATM   16  C   UNL     1     -10.530  12.864  66.403  1.00  0.00    -0.278 A  
HETATM   17  C   UNL     1      -9.780  13.656  67.292  1.00  0.00    -0.243 A  
HETATM   18  F   UNL     1     -11.062  11.288  63.860  1.00  0.00    -0.427 F  
HETATM   19  F   UNL     1     -12.876  12.210  64.629  1.00  0.00    -0.509 F  
HETATM   20  F   UNL     1     -11.837  13.098  62.940  1.00  0.00    -0.523 F  
ENDBRANCH  10  11
ENDBRANCH   3   7
TORSDOF 2
ENDMDL
MODEL       70
REMARK 921   NORMALIZED FREE ENERGY PREDICTED BY IDOCK:   -4.76 KCAL/MOL
REMARK 922        TOTAL FREE ENERGY PREDICTED BY IDOCK:   -5.58 KCAL/MOL
REMARK 923 INTER-LIGAND FREE ENERGY PREDICTED BY IDOCK:   -5.22 KCAL/MOL
REMARK 924 INTRA-LIGAND FREE ENERGY PREDICTED BY IDOCK:   -0.37 KCAL/MOL
REMARK 927      BINDING AFFINITY PREDICTED BY RF-SCORE:    0.00 PKD
ROOT
HETATM    1  C   UNL     1     -11.920  15.258  69.653  1.00  0.00    -0.364 C  
HETATM    2  C   UNL     1     -11.221  15.066  68.362  1.00  0.00    -0.293 A  
HETATM    3  C   UNL     1     -10.872  13.968  67.590  1.00  0.00    -0.270 A  
HETATM    4  O   UNL     1     -10.812  16.207  67.747  1.00  0.00    -0.321 OA 
HETATM    5  C   UNL     1     -10.221  14.559  66.484  1.00  0.00    -0.279 A  
HETATM    6  N   UNL     1     -10.178  15.889  66.559  1.00  0.00    -0.279 NA 
ENDROOT
BRANCH   3   7
HETATM    7  C   UNL     1     -11.163  12.591  67.948  1.00  0.00    -0.264 C  
HETATM    8  O   UNL     1     -12.275  12.136  67.703  1.00  0.00    -0.462 OA 
HETATM    9  H   UNL     1      -9.249  12.342  68.693  1.00  0.00     0.000 HD 
HETATM   10  N   UNL     1     -10.142  11.868  68.554  1.00  0.00    -0.215 N  
BRANCH  10  11
HETATM   11  C   UNL     1     -10.243  10.522  68.995  1.00  0.00    -0.216 A  
HETATM   12  C   UNL     1     -10.553  10.168  70.312  1.00  0.00    -0.324 A  
HETATM   13  C   UNL     1     -10.617   8.833  70.715  1.00  0.00    -0.269 A  
HETATM   14  C   UNL     1     -10.373   7.803  69.807  1.00  0.00    -0.221 A  
HETATM   15  C   UNL     1     -10.422   6.366  70.261  1.00  0.00    -0.219 C  
HETATM   16  C   UNL     1     -10.078   8.145  68.477  1.00  0.00    -0.220 A  
HETATM   17  C   UNL     1     -10.013   9.491  68.076  1.00  0.00    -0.198 A  
HETATM   18  F   UNL     1     -11.377   5.644  69.615  1.00  0.00    -0.425 F  
HETATM   19  F   UNL     1      -9.247   5.712  70.049  1.00  0.00    -0.138 F  
HETATM   20  F   UNL     1     -10.688   6.226  71.592  1.00  0.00    -0.241 F  
ENDBRANCH  10  11
ENDBRANCH   3   7
TORSDOF 2
ENDMDL
MODEL       71
REMARK 921   NORMALIZED FREE ENERGY PREDICTED BY IDOCK:   -4.76 KCAL/MOL
REMARK 922        TOTAL FREE ENERGY PREDICTED BY IDOCK:   -5.58 KCAL/MOL
REMARK 923 INTER-LIGAND FREE ENERGY PREDICTED BY IDOCK:   -5.24 KCAL/MOL
REMARK 924 INTRA-LIGAND FREE ENERGY PREDICTED BY IDOCK:   -0.34 KCAL/MOL
REMARK 927      BINDING AFFINITY PREDICTED BY RF-SCORE:    0.00 PKD
ROOT
HETATM    1  C   UNL     1     -10.512  19.744  66.009  1.00  0.00    -0.609 C  
HETATM    2  C   UNL     1      -9.290  19.628  66.839  1.00  0.00    -0.355 A  
HETATM    3  C   UNL     1      -8.673  18.600  67.533  1.00  0.00    -0.284 A  
HETATM    4  O   UNL     1      -8.568  20.771  66.974  1.00  0.00    -0.230 OA 
HETATM    5  C   UNL     1      -7.540  19.236  68.091  1.00  0.00    -0.290 A  
HETATM    6  N   UNL     1      -7.461  20.526  67.767  1.00  0.00    -0.273 NA 
ENDROOT
BRANCH   3   7
HETATM    7  C   UNL     1      -9.174  17.238  67.597  1.00  0.00    -0.229 C  
HETATM    8  O   UNL     1     -10.067  16.971  68.394  1.00  0.00    -0.267 OA 
HETATM    9  H   UNL     1      -7.874  16.650  66.099  1.00  0.00     0.000 HD 
HETATM   10  N   UNL     1      -8.597  16.313  66.734  1.00  0.00    -0.211 N  
BRANCH  10  11
HETATM   11  C   UNL     1      -8.936  14.936  66.667  1.00  0.00    -0.270 A  
HETATM   12  C   UNL     1      -8.172  13.928  67.263  1.00  0.00    -0.176 A  
HETATM   13  C   UNL     1      -8.522  12.581  67.152  1.00  0.00    -0.186 A  
HETATM   14  C   UNL     1      -9.656  12.197  66.438  1.00  0.00    -0.243 A  
HETATM   15  C   UNL     1     -10.010  10.738  66.306  1.00  0.00    -0.222 C  
HETATM   16  C   UNL     1     -10.443  13.201  65.848  1.00  0.00    -0.288 A  
HETATM   17  C   UNL     1     -10.085  14.557  65.962  1.00  0.00    -0.336 A  
HETATM   18  F   UNL     1     -11.221  10.440  66.851  1.00  0.00    -0.284 F  
HETATM   19  F   UNL     1     -10.072  10.331  65.007  1.00  0.00    -0.342 F  
HETATM   20  F   UNL     1      -9.115   9.905  66.911  1.00  0.00    -0.143 F  
ENDBRANCH  10  11
ENDBRANCH   3   7
TORSDOF 2
ENDMDL
MODEL       72
REMARK 921   NORMALIZED FREE ENERGY PREDICTED BY IDOCK:   -4.71 KCAL/MOL
REMARK 922        TOTAL FREE ENERGY PREDICTED BY IDOCK:   -5.52 KCAL/MOL
REMARK 923 INTER-LIGAND FREE ENERGY PREDICTED BY IDOCK:   -5.25 KCAL/MOL
REMARK 924 INTRA-LIGAND FREE ENERGY PREDICTED BY IDOCK:   -0.28 KCAL/MOL
REMARK 927      BINDING AFFINITY PREDICTED BY RF-SCORE:    0.00 PKD
ROOT
HETATM    1  C   UNL     1     -11.885   9.351  71.817  1.00  0.00    -0.452 C  
HETATM    2  C   UNL     1     -10.593   8.809  71.340  1.00  0.00    -0.279 A  
HETATM    3  C   UNL     1      -9.887   8.863  70.148  1.00  0.00    -0.199 A  
HETATM    4  O   UNL     1      -9.894   8.084  72.254  1.00  0.00    -0.194 OA 
HETATM    5  C   UNL     1      -8.728   8.107  70.436  1.00  0.00    -0.136 A  
HETATM    6  N   UNL     1      -8.714   7.639  71.684  1.00  0.00    -0.114 NA 
ENDROOT
BRANCH   3   7
HETATM    7  C   UNL     1     -10.343   9.562  68.959  1.00  0.00    -0.206 C  
HETATM    8  O   UNL     1     -10.726   8.907  67.996  1.00  0.00    -0.200 OA 
HETATM    9  H   UNL     1      -9.992  11.393  69.856  1.00  0.00     0.000 HD 
HETATM   10  N   UNL     1     -10.313  10.951  68.994  1.00  0.00    -0.206 N  
BRANCH  10  11
HETATM   11  C   UNL     1     -10.694  11.804  67.925  1.00  0.00    -0.204 A  
HETATM   12  C   UNL     1     -11.840  12.604  67.953  1.00  0.00    -0.388 A  
HETATM   13  C   UNL     1     -12.198  13.410  66.871  1.00  0.00    -0.343 A  
HETATM   14  C   UNL     1     -11.413  13.443  65.718  1.00  0.00    -0.341 A  
HETATM   15  C   UNL     1     -11.823  14.300  64.548  1.00  0.00    -0.442 C  
HETATM   16  C   UNL     1     -10.249  12.657  65.683  1.00  0.00    -0.290 A  
HETATM   17  C   UNL     1      -9.894  11.846  66.776  1.00  0.00    -0.214 A  
HETATM   18  F   UNL     1     -10.901  15.256  64.249  1.00  0.00    -0.274 F  
HETATM   19  F   UNL     1     -11.997  13.576  63.407  1.00  0.00    -0.499 F  
HETATM   20  F   UNL     1     -12.997  14.965  64.746  1.00  0.00    -0.265 F  
ENDBRANCH  10  11
ENDBRANCH   3   7
TORSDOF 2
ENDMDL
MODEL       73
REMARK 921   NORMALIZED FREE ENERGY PREDICTED BY IDOCK:   -4.68 KCAL/MOL
REMARK 922        TOTAL FREE ENERGY PREDICTED BY IDOCK:   -5.49 KCAL/MOL
REMARK 923 INTER-LIGAND FREE ENERGY PREDICTED BY IDOCK:   -5.81 KCAL/MOL
REMARK 924 INTRA-LIGAND FREE ENERGY PREDICTED BY IDOCK:    0.31 KCAL/MOL
REMARK 927      BINDING AFFINITY PREDICTED BY RF-SCORE:    0.00 PKD
ROOT
HETATM    1  C   UNL     1      -5.438  16.607  69.676  1.00  0.00    -0.160 C  
HETATM    2  C   UNL     1      -6.274  17.792  69.378  1.00  0.00    -0.244 A  
HETATM    3  C   UNL     1      -7.327  18.056  68.515  1.00  0.00    -0.276 A  
HETATM    4  O   UNL     1      -5.982  18.906  70.100  1.00  0.00    -0.245 OA 
HETATM    5  C   UNL     1      -7.619  19.413  68.785  1.00  0.00    -0.363 A  
HETATM    6  N   UNL     1      -6.831  19.933  69.726  1.00  0.00    -0.294 NA 
ENDROOT
BRANCH   3   7
HETATM    7  C   UNL     1      -7.899  17.084  67.600  1.00  0.00    -0.171 C  
HETATM    8  O   UNL     1      -7.176  16.565  66.758  1.00  0.00    -0.199 OA 
HETATM    9  H   UNL     1      -9.754  17.281  68.494  1.00  0.00     0.000 HD 
HETATM   10  N   UNL     1      -9.253  16.803  67.745  1.00  0.00    -0.220 N  
BRANCH  10  11
HETATM   11  C   UNL     1      -9.992  15.903  66.933  1.00  0.00    -0.249 A  
HETATM   12  C   UNL     1     -11.193  15.314  67.338  1.00  0.00    -0.311 A  
HETATM   13  C   UNL     1     -11.878  14.412  66.523  1.00  0.00    -0.406 A  
HETATM   14  C   UNL     1     -11.381  14.069  65.266  1.00  0.00    -0.321 A  
HETATM   15  C   UNL     1     -12.119  13.076  64.405  1.00  0.00    -0.411 C  
HETATM   16  C   UNL     1     -10.184  14.668  64.838  1.00  0.00    -0.322 A  
HETATM   17  C   UNL     1      -9.497  15.575  65.665  1.00  0.00    -0.271 A  
HETATM   18  F   UNL     1     -12.531  13.610  63.223  1.00  0.00    -0.542 F  
HETATM   19  F   UNL     1     -11.354  11.996  64.083  1.00  0.00    -0.351 F  
HETATM   20  F   UNL     1     -13.240  12.572  64.995  1.00  0.00    -0.453 F  
ENDBRANCH  10  11
ENDBRANCH   3   7
TORSDOF 2
ENDMDL
MODEL       74
REMARK 921   NORMALIZED FREE ENERGY PREDICTED BY IDOCK:   -4.64 KCAL/MOL
REMARK 922        TOTAL FREE ENERGY PREDICTED BY IDOCK:   -5.45 KCAL/MOL
REMARK 923 INTER-LIGAND FREE ENERGY PREDICTED BY IDOCK:   -5.31 KCAL/MOL
REMARK 924 INTRA-LIGAND FREE ENERGY PREDICTED BY IDOCK:   -0.14 KCAL/MOL
REMARK 927      BINDING AFFINITY PREDICTED BY RF-SCORE:    0.00 PKD
ROOT
HETATM    1  C   UNL     1      -8.161   5.835  71.115  1.00  0.00    -0.117 C  
HETATM    2  C   UNL     1      -9.466   5.767  71.812  1.00  0.00    -0.148 A  
HETATM    3  C   UNL     1     -10.716   6.328  71.607  1.00  0.00    -0.284 A  
HETATM    4  O   UNL     1      -9.495   4.974  72.916  1.00  0.00    -0.137 OA 
HETATM    5  C   UNL     1     -11.472   5.807  72.681  1.00  0.00    -0.287 A  
HETATM    6  N   UNL     1     -10.763   4.999  73.468  1.00  0.00    -0.255 NA 
ENDROOT
BRANCH   3   7
HETATM    7  C   UNL     1     -11.041   7.224  70.511  1.00  0.00    -0.267 C  
HETATM    8  O   UNL     1     -11.644   6.781  69.540  1.00  0.00    -0.230 OA 
HETATM    9  H   UNL     1     -10.161   8.813  71.502  1.00  0.00     0.000 HD 
HETATM   10  N   UNL     1     -10.640   8.549  70.641  1.00  0.00    -0.204 N  
BRANCH  10  11
HETATM   11  C   UNL     1     -10.845   9.564  69.669  1.00  0.00    -0.235 A  
HETATM   12  C   UNL     1     -11.497  10.770  69.945  1.00  0.00    -0.398 A  
HETATM   13  C   UNL     1     -11.704  11.733  68.957  1.00  0.00    -0.390 A  
HETATM   14  C   UNL     1     -11.261  11.520  67.652  1.00  0.00    -0.343 A  
HETATM   15  C   UNL     1     -11.512  12.559  66.588  1.00  0.00    -0.359 C  
HETATM   16  C   UNL     1     -10.589  10.321  67.364  1.00  0.00    -0.324 A  
HETATM   17  C   UNL     1     -10.384   9.353  68.364  1.00  0.00    -0.238 A  
HETATM   18  F   UNL     1     -10.361  13.055  66.057  1.00  0.00    -0.263 F  
HETATM   19  F   UNL     1     -12.231  12.069  65.540  1.00  0.00    -0.413 F  
HETATM   20  F   UNL     1     -12.209  13.641  67.039  1.00  0.00    -0.414 F  
ENDBRANCH  10  11
ENDBRANCH   3   7
TORSDOF 2
ENDMDL
MODEL       75
REMARK 921   NORMALIZED FREE ENERGY PREDICTED BY IDOCK:   -4.62 KCAL/MOL
REMARK 922        TOTAL FREE ENERGY PREDICTED BY IDOCK:   -5.43 KCAL/MOL
REMARK 923 INTER-LIGAND FREE ENERGY PREDICTED BY IDOCK:   -5.06 KCAL/MOL
REMARK 924 INTRA-LIGAND FREE ENERGY PREDICTED BY IDOCK:   -0.37 KCAL/MOL
REMARK 927      BINDING AFFINITY PREDICTED BY RF-SCORE:    0.00 PKD
ROOT
HETATM    1  C   UNL     1      -9.498   6.669  69.121  1.00  0.00    -0.136 C  
HETATM    2  C   UNL     1     -10.379   6.650  70.312  1.00  0.00    -0.202 A  
HETATM    3  C   UNL     1     -10.923   7.616  71.143  1.00  0.00    -0.263 A  
HETATM    4  O   UNL     1     -10.780   5.416  70.718  1.00  0.00    -0.248 OA 
HETATM    5  C   UNL     1     -11.664   6.848  72.070  1.00  0.00    -0.300 A  
HETATM    6  N   UNL     1     -11.592   5.539  71.831  1.00  0.00    -0.030 NA 
ENDROOT
BRANCH   3   7
HETATM    7  C   UNL     1     -10.704   9.044  70.992  1.00  0.00    -0.269 C  
HETATM    8  O   UNL     1      -9.712   9.549  71.504  1.00  0.00    -0.195 OA 
HETATM    9  H   UNL     1     -12.429   9.226  69.865  1.00  0.00     0.000 HD 
HETATM   10  N   UNL     1     -11.652   9.753  70.263  1.00  0.00    -0.243 N  
BRANCH  10  11
HETATM   11  C   UNL     1     -11.623  11.153  70.028  1.00  0.00    -0.338 A  
HETATM   12  C   UNL     1     -12.312  12.077  70.818  1.00  0.00    -0.403 A  
HETATM   13  C   UNL     1     -12.282  13.445  70.540  1.00  0.00    -0.425 A  
HETATM   14  C   UNL     1     -11.555  13.935  69.456  1.00  0.00    -0.358 A  
HETATM   15  C   UNL     1     -11.550  15.411  69.152  1.00  0.00    -0.339 C  
HETATM   16  C   UNL     1     -10.844  13.018  68.663  1.00  0.00    -0.287 A  
HETATM   17  C   UNL     1     -10.878  11.641  68.947  1.00  0.00    -0.264 A  
HETATM   18  F   UNL     1     -10.305  15.957  69.221  1.00  0.00    -0.194 F  
HETATM   19  F   UNL     1     -12.014  15.688  67.902  1.00  0.00    -0.280 F  
HETATM   20  F   UNL     1     -12.324  16.143  70.004  1.00  0.00    -0.287 F  
ENDBRANCH  10  11
ENDBRANCH   3   7
TORSDOF 2
ENDMDL
MODEL       76
REMARK 921   NORMALIZED FREE ENERGY PREDICTED BY IDOCK:   -4.62 KCAL/MOL
REMARK 922        TOTAL FREE ENERGY PREDICTED BY IDOCK:   -5.43 KCAL/MOL
REMARK 923 INTER-LIGAND FREE ENERGY PREDICTED BY IDOCK:   -5.14 KCAL/MOL
REMARK 924 INTRA-LIGAND FREE ENERGY PREDICTED BY IDOCK:   -0.29 KCAL/MOL
REMARK 927      BINDING AFFINITY PREDICTED BY RF-SCORE:    0.00 PKD
ROOT
HETATM    1  C   UNL     1     -11.939  12.759  66.294  1.00  0.00    -0.460 C  
HETATM    2  C   UNL     1     -11.044  12.067  65.337  1.00  0.00    -0.320 A  
HETATM    3  C   UNL     1     -10.260  10.925  65.380  1.00  0.00    -0.339 A  
HETATM    4  O   UNL     1     -10.940  12.650  64.114  1.00  0.00    -0.334 OA 
HETATM    5  C   UNL     1      -9.685  10.893  64.089  1.00  0.00    -0.296 A  
HETATM    6  N   UNL     1     -10.080  11.909  63.323  1.00  0.00    -0.433 NA 
ENDROOT
BRANCH   3   7
HETATM    7  C   UNL     1     -10.142  10.056  66.538  1.00  0.00    -0.232 C  
HETATM    8  O   UNL     1     -10.420   8.868  66.419  1.00  0.00    -0.219 OA 
HETATM    9  H   UNL     1      -9.493  11.637  67.704  1.00  0.00     0.000 HD 
HETATM   10  N   UNL     1      -9.715  10.642  67.724  1.00  0.00    -0.160 N  
BRANCH  10  11
HETATM   11  C   UNL     1      -9.562   9.963  68.962  1.00  0.00    -0.186 A  
HETATM   12  C   UNL     1     -10.600   9.807  69.885  1.00  0.00    -0.301 A  
HETATM   13  C   UNL     1     -10.405   9.157  71.104  1.00  0.00    -0.387 A  
HETATM   14  C   UNL     1      -9.155   8.637  71.441  1.00  0.00    -0.295 A  
HETATM   15  C   UNL     1      -8.952   7.957  72.772  1.00  0.00    -0.198 C  
HETATM   16  C   UNL     1      -8.107   8.771  70.515  1.00  0.00    -0.130 A  
HETATM   17  C   UNL     1      -8.309   9.428  69.288  1.00  0.00    -0.131 A  
HETATM   18  F   UNL     1      -8.581   6.654  72.644  1.00  0.00    -0.122 F  
HETATM   19  F   UNL     1      -7.981   8.554  73.518  1.00  0.00    -0.225 F  
HETATM   20  F   UNL     1     -10.068   7.951  73.555  1.00  0.00    -0.373 F  
ENDBRANCH  10  11
ENDBRANCH   3   7
TORSDOF 2
ENDMDL
MODEL       77
REMARK 921   NORMALIZED FREE ENERGY PREDICTED BY IDOCK:   -4.61 KCAL/MOL
REMARK 922        TOTAL FREE ENERGY PREDICTED BY IDOCK:   -5.42 KCAL/MOL
REMARK 923 INTER-LIGAND FREE ENERGY PREDICTED BY IDOCK:   -5.18 KCAL/MOL
REMARK 924 INTRA-LIGAND FREE ENERGY PREDICTED BY IDOCK:   -0.24 KCAL/MOL
REMARK 927      BINDING AFFINITY PREDICTED BY RF-SCORE:    0.00 PKD
ROOT
HETATM    1  C   UNL     1     -11.728  11.709  66.269  1.00  0.00     0.012 C  
HETATM    2  C   UNL     1     -10.305  11.307  66.184  1.00  0.00    -0.251 A  
HETATM    3  C   UNL     1      -9.097  11.905  66.507  1.00  0.00    -0.211 A  
HETATM    4  O   UNL     1     -10.082  10.064  65.683  1.00  0.00    -0.282 OA 
HETATM    5  C   UNL     1      -8.153  10.917  66.146  1.00  0.00    -0.160 A  
HETATM    6  N   UNL     1      -8.721   9.815  65.657  1.00  0.00    -0.142 NA 
ENDROOT
BRANCH   3   7
HETATM    7  C   UNL     1      -8.969  13.237  67.072  1.00  0.00    -0.228 C  
HETATM    8  O   UNL     1      -8.296  13.389  68.086  1.00  0.00    -0.149 OA 
HETATM    9  H   UNL     1     -10.145  14.030  65.566  1.00  0.00     0.000 HD 
HETATM   10  N   UNL     1      -9.629  14.268  66.413  1.00  0.00    -0.293 N  
BRANCH  10  11
HETATM   11  C   UNL     1      -9.640  15.627  66.826  1.00  0.00    -0.240 A  
HETATM   12  C   UNL     1     -10.658  16.182  67.607  1.00  0.00    -0.315 A  
HETATM   13  C   UNL     1     -10.650  17.530  67.971  1.00  0.00    -0.384 A  
HETATM   14  C   UNL     1      -9.614  18.370  67.563  1.00  0.00    -0.293 A  
HETATM   15  C   UNL     1      -9.629  19.829  67.942  1.00  0.00    -0.373 C  
HETATM   16  C   UNL     1      -8.576  17.821  66.791  1.00  0.00    -0.272 A  
HETATM   17  C   UNL     1      -8.590  16.463  66.427  1.00  0.00    -0.358 A  
HETATM   18  F   UNL     1      -8.557  20.184  68.702  1.00  0.00    -0.234 F  
HETATM   19  F   UNL     1      -9.610  20.651  66.856  1.00  0.00    -0.520 F  
HETATM   20  F   UNL     1     -10.730  20.192  68.661  1.00  0.00    -0.491 F  
ENDBRANCH  10  11
ENDBRANCH   3   7
TORSDOF 2
ENDMDL
MODEL       78
REMARK 921   NORMALIZED FREE ENERGY PREDICTED BY IDOCK:   -4.60 KCAL/MOL
REMARK 922        TOTAL FREE ENERGY PREDICTED BY IDOCK:   -5.41 KCAL/MOL
REMARK 923 INTER-LIGAND FREE ENERGY PREDICTED BY IDOCK:   -5.09 KCAL/MOL
REMARK 924 INTRA-LIGAND FREE ENERGY PREDICTED BY IDOCK:   -0.31 KCAL/MOL
REMARK 927      BINDING AFFINITY PREDICTED BY RF-SCORE:    0.00 PKD
ROOT
HETATM    1  C   UNL     1     -13.148  10.314  71.414  1.00  0.00    -0.512 C  
HETATM    2  C   UNL     1     -12.900  11.771  71.320  1.00  0.00    -0.308 A  
HETATM    3  C   UNL     1     -12.322  12.608  70.378  1.00  0.00    -0.315 A  
HETATM    4  O   UNL     1     -13.329  12.504  72.382  1.00  0.00    -0.498 OA 
HETATM    5  C   UNL     1     -12.440  13.882  70.978  1.00  0.00    -0.377 A  
HETATM    6  N   UNL     1     -13.038  13.839  72.168  1.00  0.00    -0.395 NA 
ENDROOT
BRANCH   3   7
HETATM    7  C   UNL     1     -11.763  12.156  69.116  1.00  0.00    -0.328 C  
HETATM    8  O   UNL     1     -12.285  12.524  68.070  1.00  0.00    -0.310 OA 
HETATM    9  H   UNL     1     -10.291  11.093  70.107  1.00  0.00     0.000 HD 
HETATM   10  N   UNL     1     -10.654  11.321  69.181  1.00  0.00    -0.211 N  
BRANCH  10  11
HETATM   11  C   UNL     1      -9.985  10.760  68.060  1.00  0.00    -0.164 A  
HETATM   12  C   UNL     1      -8.794  11.275  67.541  1.00  0.00    -0.140 A  
HETATM   13  C   UNL     1      -8.180  10.714  66.421  1.00  0.00    -0.146 A  
HETATM   14  C   UNL     1      -8.741   9.610  65.780  1.00  0.00    -0.168 A  
HETATM   15  C   UNL     1      -8.081   9.027  64.557  1.00  0.00    -0.143 C  
HETATM   16  C   UNL     1      -9.930   9.071  66.302  1.00  0.00    -0.352 A  
HETATM   17  C   UNL     1     -10.545   9.642  67.431  1.00  0.00    -0.333 A  
HETATM   18  F   UNL     1      -7.696   7.734  64.734  1.00  0.00    -0.089 F  
HETATM   19  F   UNL     1      -8.902   9.030  63.470  1.00  0.00    -0.207 F  
HETATM   20  F   UNL     1      -6.958   9.700  64.174  1.00  0.00    -0.097 F  
ENDBRANCH  10  11
ENDBRANCH   3   7
TORSDOF 2
ENDMDL
MODEL       79
REMARK 921   NORMALIZED FREE ENERGY PREDICTED BY IDOCK:   -4.59 KCAL/MOL
REMARK 922        TOTAL FREE ENERGY PREDICTED BY IDOCK:   -5.39 KCAL/MOL
REMARK 923 INTER-LIGAND FREE ENERGY PREDICTED BY IDOCK:   -5.10 KCAL/MOL
REMARK 924 INTRA-LIGAND FREE ENERGY PREDICTED BY IDOCK:   -0.29 KCAL/MOL
REMARK 927      BINDING AFFINITY PREDICTED BY RF-SCORE:    0.00 PKD
ROOT
HETATM    1  C   UNL     1      -9.152  10.887  66.010  1.00  0.00    -0.208 C  
HETATM    2  C   UNL     1     -10.187  11.674  66.720  1.00  0.00    -0.217 A  
HETATM    3  C   UNL     1     -10.758  11.629  67.982  1.00  0.00    -0.246 A  
HETATM    4  O   UNL     1     -10.730  12.697  66.008  1.00  0.00    -0.262 OA 
HETATM    5  C   UNL     1     -11.681  12.699  67.946  1.00  0.00    -0.358 A  
HETATM    6  N   UNL     1     -11.676  13.346  66.781  1.00  0.00    -0.364 NA 
ENDROOT
BRANCH   3   7
HETATM    7  C   UNL     1     -10.405  10.661  69.006  1.00  0.00    -0.218 C  
HETATM    8  O   UNL     1      -9.260  10.651  69.444  1.00  0.00    -0.158 OA 
HETATM    9  H   UNL     1     -12.331   9.905  69.006  1.00  0.00     0.000 HD 
HETATM   10  N   UNL     1     -11.408   9.795  69.427  1.00  0.00    -0.112 N  
BRANCH  10  11
HETATM   11  C   UNL     1     -11.250   8.770  70.396  1.00  0.00    -0.223 A  
HETATM   12  C   UNL     1     -11.132   9.021  71.766  1.00  0.00    -0.444 A  
HETATM   13  C   UNL     1     -10.949   7.989  72.688  1.00  0.00    -0.448 A  
HETATM   14  C   UNL     1     -10.880   6.662  72.265  1.00  0.00    -0.260 A  
HETATM   15  C   UNL     1     -10.660   5.558  73.267  1.00  0.00    -0.250 C  
HETATM   16  C   UNL     1     -11.015   6.393  70.892  1.00  0.00    -0.335 A  
HETATM   17  C   UNL     1     -11.197   7.438  69.968  1.00  0.00    -0.200 A  
HETATM   18  F   UNL     1     -11.687   4.667  73.301  1.00  0.00    -0.378 F  
HETATM   19  F   UNL     1      -9.538   4.831  73.004  1.00  0.00    -0.137 F  
HETATM   20  F   UNL     1     -10.516   6.008  74.547  1.00  0.00    -0.279 F  
ENDBRANCH  10  11
ENDBRANCH   3   7
TORSDOF 2
ENDMDL
MODEL       80
REMARK 921   NORMALIZED FREE ENERGY PREDICTED BY IDOCK:   -4.58 KCAL/MOL
REMARK 922        TOTAL FREE ENERGY PREDICTED BY IDOCK:   -5.39 KCAL/MOL
REMARK 923 INTER-LIGAND FREE ENERGY PREDICTED BY IDOCK:   -5.08 KCAL/MOL
REMARK 924 INTRA-LIGAND FREE ENERGY PREDICTED BY IDOCK:   -0.31 KCAL/MOL
REMARK 927      BINDING AFFINITY PREDICTED BY RF-SCORE:    0.00 PKD
ROOT
HETATM    1  C   UNL     1     -12.610   8.590  71.796  1.00  0.00    -0.387 C  
HETATM    2  C   UNL     1     -12.638  10.052  71.557  1.00  0.00    -0.425 A  
HETATM    3  C   UNL     1     -11.969  10.919  70.708  1.00  0.00    -0.449 A  
HETATM    4  O   UNL     1     -13.518  10.749  72.323  1.00  0.00    -0.330 OA 
HETATM    5  C   UNL     1     -12.521  12.175  71.046  1.00  0.00    -0.269 A  
HETATM    6  N   UNL     1     -13.445  12.093  72.002  1.00  0.00    -0.406 NA 
ENDROOT
BRANCH   3   7
HETATM    7  C   UNL     1     -10.960  10.507  69.747  1.00  0.00    -0.294 C  
HETATM    8  O   UNL     1      -9.871  10.124  70.159  1.00  0.00    -0.207 OA 
HETATM    9  H   UNL     1     -12.246  10.894  68.174  1.00  0.00     0.000 HD 
HETATM   10  N   UNL     1     -11.304  10.578  68.402  1.00  0.00    -0.282 N  
BRANCH  10  11
HETATM   11  C   UNL     1     -10.447  10.243  67.321  1.00  0.00    -0.253 A  
HETATM   12  C   UNL     1      -9.831  11.197  66.507  1.00  0.00    -0.242 A  
HETATM   13  C   UNL     1      -9.016  10.830  65.434  1.00  0.00    -0.211 A  
HETATM   14  C   UNL     1      -8.789   9.485  65.142  1.00  0.00    -0.223 A  
HETATM   15  C   UNL     1      -7.926   9.102  63.967  1.00  0.00    -0.141 C  
HETATM   16  C   UNL     1      -9.389   8.515  65.962  1.00  0.00    -0.266 A  
HETATM   17  C   UNL     1     -10.210   8.891  67.041  1.00  0.00    -0.345 A  
HETATM   18  F   UNL     1      -6.826   8.390  64.334  1.00  0.00    -0.067 F  
HETATM   19  F   UNL     1      -8.590   8.328  63.063  1.00  0.00    -0.151 F  
HETATM   20  F   UNL     1      -7.459  10.172  63.263  1.00  0.00    -0.131 F  
ENDBRANCH  10  11
ENDBRANCH   3   7
TORSDOF 2
ENDMDL
MODEL       81
REMARK 921   NORMALIZED FREE ENERGY PREDICTED BY IDOCK:   -4.58 KCAL/MOL
REMARK 922        TOTAL FREE ENERGY PREDICTED BY IDOCK:   -5.38 KCAL/MOL
REMARK 923 INTER-LIGAND FREE ENERGY PREDICTED BY IDOCK:   -5.29 KCAL/MOL
REMARK 924 INTRA-LIGAND FREE ENERGY PREDICTED BY IDOCK:   -0.09 KCAL/MOL
REMARK 927      BINDING AFFINITY PREDICTED BY RF-SCORE:    0.00 PKD
ROOT
HETATM    1  C   UNL     1     -11.504  14.013  67.407  1.00  0.00    -0.373 C  
HETATM    2  C   UNL     1     -11.897  13.921  68.832  1.00  0.00    -0.358 A  
HETATM    3  C   UNL     1     -12.015  12.891  69.751  1.00  0.00    -0.365 A  
HETATM    4  O   UNL     1     -12.223  15.102  69.422  1.00  0.00    -0.275 OA 
HETATM    5  C   UNL     1     -12.443  13.561  70.919  1.00  0.00    -0.369 A  
HETATM    6  N   UNL     1     -12.569  14.876  70.742  1.00  0.00    -0.331 NA 
ENDROOT
BRANCH   3   7
HETATM    7  C   UNL     1     -11.737  11.496  69.456  1.00  0.00    -0.346 C  
HETATM    8  O   UNL     1     -12.102  11.032  68.381  1.00  0.00    -0.594 OA 
HETATM    9  H   UNL     1     -10.791  11.261  71.281  1.00  0.00     0.000 HD 
HETATM   10  N   UNL     1     -11.064  10.768  70.431  1.00  0.00    -0.204 N  
BRANCH  10  11
HETATM   11  C   UNL     1     -10.726   9.392  70.335  1.00  0.00    -0.263 A  
HETATM   12  C   UNL     1     -11.302   8.403  71.139  1.00  0.00    -0.310 A  
HETATM   13  C   UNL     1     -10.924   7.064  71.036  1.00  0.00    -0.279 A  
HETATM   14  C   UNL     1      -9.953   6.667  70.117  1.00  0.00    -0.190 A  
HETATM   15  C   UNL     1      -9.537   5.220  70.032  1.00  0.00    -0.174 C  
HETATM   16  C   UNL     1      -9.378   7.648  69.291  1.00  0.00    -0.148 A  
HETATM   17  C   UNL     1      -9.762   8.997  69.400  1.00  0.00    -0.169 A  
HETATM   18  F   UNL     1      -9.785   4.675  68.810  1.00  0.00    -0.190 F  
HETATM   19  F   UNL     1      -8.205   5.046  70.259  1.00  0.00    -0.081 F  
HETATM   20  F   UNL     1     -10.173   4.418  70.933  1.00  0.00    -0.269 F  
ENDBRANCH  10  11
ENDBRANCH   3   7
TORSDOF 2
ENDMDL
MODEL       82
REMARK 921   NORMALIZED FREE ENERGY PREDICTED BY IDOCK:   -4.57 KCAL/MOL
REMARK 922        TOTAL FREE ENERGY PREDICTED BY IDOCK:   -5.37 KCAL/MOL
REMARK 923 INTER-LIGAND FREE ENERGY PREDICTED BY IDOCK:   -5.04 KCAL/MOL
REMARK 924 INTRA-LIGAND FREE ENERGY PREDICTED BY IDOCK:   -0.33 KCAL/MOL
REMARK 927      BINDING AFFINITY PREDICTED BY RF-SCORE:    0.00 PKD
ROOT
HETATM    1  C   UNL     1      -9.497   6.282  68.673  1.00  0.00    -0.121 C  
HETATM    2  C   UNL     1      -9.070   7.156  67.556  1.00  0.00    -0.123 A  
HETATM    3  C   UNL     1      -9.020   8.525  67.348  1.00  0.00    -0.144 A  
HETATM    4  O   UNL     1      -8.603   6.508  66.456  1.00  0.00    -0.115 OA 
HETATM    5  C   UNL     1      -8.496   8.623  66.039  1.00  0.00    -0.141 A  
HETATM    6  N   UNL     1      -8.240   7.434  65.495  1.00  0.00    -0.131 NA 
ENDROOT
BRANCH   3   7
HETATM    7  C   UNL     1      -9.439   9.517  68.323  1.00  0.00    -0.133 C  
HETATM    8  O   UNL     1      -8.675   9.813  69.235  1.00  0.00    -0.140 OA 
HETATM    9  H   UNL     1     -11.245   9.768  67.346  1.00  0.00     0.000 HD 
HETATM   10  N   UNL     1     -10.701  10.075  68.152  1.00  0.00    -0.225 N  
BRANCH  10  11
HETATM   11  C   UNL     1     -11.292  11.038  69.012  1.00  0.00    -0.277 A  
HETATM   12  C   UNL     1     -11.771  10.734  70.290  1.00  0.00    -0.442 A  
HETATM   13  C   UNL     1     -12.372  11.702  71.096  1.00  0.00    -0.351 A  
HETATM   14  C   UNL     1     -12.511  13.015  70.647  1.00  0.00    -0.347 A  
HETATM   15  C   UNL     1     -13.183  14.046  71.519  1.00  0.00    -0.359 C  
HETATM   16  C   UNL     1     -12.019  13.338  69.372  1.00  0.00    -0.356 A  
HETATM   17  C   UNL     1     -11.415  12.359  68.563  1.00  0.00    -0.350 A  
HETATM   18  F   UNL     1     -12.358  15.079  71.840  1.00  0.00    -0.323 F  
HETATM   19  F   UNL     1     -14.272  14.604  70.921  1.00  0.00    -0.364 F  
HETATM   20  F   UNL     1     -13.630  13.545  72.706  1.00  0.00    -0.598 F  
ENDBRANCH  10  11
ENDBRANCH   3   7
TORSDOF 2
ENDMDL
MODEL       83
REMARK 921   NORMALIZED FREE ENERGY PREDICTED BY IDOCK:   -4.57 KCAL/MOL
REMARK 922        TOTAL FREE ENERGY PREDICTED BY IDOCK:   -5.37 KCAL/MOL
REMARK 923 INTER-LIGAND FREE ENERGY PREDICTED BY IDOCK:   -5.15 KCAL/MOL
REMARK 924 INTRA-LIGAND FREE ENERGY PREDICTED BY IDOCK:   -0.21 KCAL/MOL
REMARK 927      BINDING AFFINITY PREDICTED BY RF-SCORE:    0.00 PKD
ROOT
HETATM    1  C   UNL     1     -11.497   7.874  72.697  1.00  0.00    -0.454 C  
HETATM    2  C   UNL     1     -11.229   7.277  71.368  1.00  0.00    -0.248 A  
HETATM    3  C   UNL     1     -10.799   7.764  70.144  1.00  0.00    -0.248 A  
HETATM    4  O   UNL     1     -11.433   5.936  71.282  1.00  0.00    -0.235 OA 
HETATM    5  C   UNL     1     -10.777   6.605  69.337  1.00  0.00    -0.259 A  
HETATM    6  N   UNL     1     -11.149   5.508  69.997  1.00  0.00    -0.151 NA 
ENDROOT
BRANCH   3   7
HETATM    7  C   UNL     1     -10.482   9.158  69.883  1.00  0.00    -0.223 C  
HETATM    8  O   UNL     1      -9.306   9.499  69.831  1.00  0.00    -0.190 OA 
HETATM    9  H   UNL     1     -12.492   9.629  69.754  1.00  0.00     0.000 HD 
HETATM   10  N   UNL     1     -11.553  10.025  69.708  1.00  0.00    -0.182 N  
BRANCH  10  11
HETATM   11  C   UNL     1     -11.444  11.421  69.469  1.00  0.00    -0.312 A  
HETATM   12  C   UNL     1     -10.738  11.962  68.391  1.00  0.00    -0.248 A  
HETATM   13  C   UNL     1     -10.629  13.341  68.203  1.00  0.00    -0.259 A  
HETATM   14  C   UNL     1     -11.231  14.229  69.094  1.00  0.00    -0.302 A  
HETATM   15  C   UNL     1     -11.086  15.716  68.894  1.00  0.00    -0.290 C  
HETATM   16  C   UNL     1     -11.959  13.699  70.173  1.00  0.00    -0.407 A  
HETATM   17  C   UNL     1     -12.064  12.309  70.358  1.00  0.00    -0.385 A  
HETATM   18  F   UNL     1     -12.281  16.338  68.700  1.00  0.00    -0.236 F  
HETATM   19  F   UNL     1     -10.510  16.333  69.963  1.00  0.00    -0.270 F  
HETATM   20  F   UNL     1     -10.317  16.047  67.818  1.00  0.00    -0.252 F  
ENDBRANCH  10  11
ENDBRANCH   3   7
TORSDOF 2
ENDMDL
MODEL       84
REMARK 921   NORMALIZED FREE ENERGY PREDICTED BY IDOCK:   -4.56 KCAL/MOL
REMARK 922        TOTAL FREE ENERGY PREDICTED BY IDOCK:   -5.36 KCAL/MOL
REMARK 923 INTER-LIGAND FREE ENERGY PREDICTED BY IDOCK:   -5.04 KCAL/MOL
REMARK 924 INTRA-LIGAND FREE ENERGY PREDICTED BY IDOCK:   -0.33 KCAL/MOL
REMARK 927      BINDING AFFINITY PREDICTED BY RF-SCORE:    0.00 PKD
ROOT
HETATM    1  C   UNL     1     -11.225  16.110  70.635  1.00  0.00    -0.371 C  
HETATM    2  C   UNL     1     -12.037  14.959  71.093  1.00  0.00    -0.327 A  
HETATM    3  C   UNL     1     -12.287  13.683  70.612  1.00  0.00    -0.440 A  
HETATM    4  O   UNL     1     -12.710  15.149  72.259  1.00  0.00    -0.305 OA 
HETATM    5  C   UNL     1     -13.164  13.149  71.584  1.00  0.00    -0.346 A  
HETATM    6  N   UNL     1     -13.424  14.006  72.571  1.00  0.00    -0.522 NA 
ENDROOT
BRANCH   3   7
HETATM    7  C   UNL     1     -11.723  13.146  69.387  1.00  0.00    -0.327 C  
HETATM    8  O   UNL     1     -11.980  13.698  68.323  1.00  0.00    -0.354 OA 
HETATM    9  H   UNL     1     -10.754  11.655  70.443  1.00  0.00     0.000 HD 
HETATM   10  N   UNL     1     -10.915  12.020  69.505  1.00  0.00    -0.072 N  
BRANCH  10  11
HETATM   11  C   UNL     1     -10.297  11.340  68.423  1.00  0.00    -0.192 A  
HETATM   12  C   UNL     1      -9.071  11.728  67.874  1.00  0.00    -0.181 A  
HETATM   13  C   UNL     1      -8.506  11.051  66.792  1.00  0.00    -0.148 A  
HETATM   14  C   UNL     1      -9.154   9.956  66.221  1.00  0.00    -0.187 A  
HETATM   15  C   UNL     1      -8.545   9.248  65.038  1.00  0.00    -0.177 C  
HETATM   16  C   UNL     1     -10.378   9.545  66.774  1.00  0.00    -0.298 A  
HETATM   17  C   UNL     1     -10.943  10.231  67.864  1.00  0.00    -0.350 A  
HETATM   18  F   UNL     1      -8.260   7.943  65.297  1.00  0.00    -0.118 F  
HETATM   19  F   UNL     1      -9.367   9.246  63.952  1.00  0.00    -0.210 F  
HETATM   20  F   UNL     1      -7.375   9.806  64.614  1.00  0.00    -0.110 F  
ENDBRANCH  10  11
ENDBRANCH   3   7
TORSDOF 2
ENDMDL
MODEL       85
REMARK 921   NORMALIZED FREE ENERGY PREDICTED BY IDOCK:   -4.56 KCAL/MOL
REMARK 922        TOTAL FREE ENERGY PREDICTED BY IDOCK:   -5.36 KCAL/MOL
REMARK 923 INTER-LIGAND FREE ENERGY PREDICTED BY IDOCK:   -5.22 KCAL/MOL
REMARK 924 INTRA-LIGAND FREE ENERGY PREDICTED BY IDOCK:   -0.13 KCAL/MOL
REMARK 927      BINDING AFFINITY PREDICTED BY RF-SCORE:    0.00 PKD
ROOT
HETATM    1  C   UNL     1      -6.716   7.354  72.068  1.00  0.00    -0.054 C  
HETATM    2  C   UNL     1      -8.096   7.458  72.594  1.00  0.00    -0.104 A  
HETATM    3  C   UNL     1      -9.232   8.164  72.232  1.00  0.00    -0.266 A  
HETATM    4  O   UNL     1      -8.361   6.692  73.686  1.00  0.00    -0.113 OA 
HETATM    5  C   UNL     1     -10.175   7.758  73.203  1.00  0.00    -0.335 A  
HETATM    6  N   UNL     1      -9.675   6.881  74.074  1.00  0.00    -0.263 NA 
ENDROOT
BRANCH   3   7
HETATM    7  C   UNL     1      -9.304   9.076  71.104  1.00  0.00    -0.266 C  
HETATM    8  O   UNL     1      -8.302   9.706  70.786  1.00  0.00    -0.264 OA 
HETATM    9  H   UNL     1     -11.289   8.586  70.787  1.00  0.00     0.000 HD 
HETATM   10  N   UNL     1     -10.526   9.173  70.449  1.00  0.00    -0.207 N  
BRANCH  10  11
HETATM   11  C   UNL     1     -10.797  10.024  69.344  1.00  0.00    -0.239 A  
HETATM   12  C   UNL     1     -10.568   9.653  68.016  1.00  0.00    -0.292 A  
HETATM   13  C   UNL     1     -10.820  10.527  66.958  1.00  0.00    -0.288 A  
HETATM   14  C   UNL     1     -11.315  11.809  67.196  1.00  0.00    -0.387 A  
HETATM   15  C   UNL     1     -11.561  12.751  66.046  1.00  0.00    -0.383 C  
HETATM   16  C   UNL     1     -11.566  12.189  68.525  1.00  0.00    -0.366 A  
HETATM   17  C   UNL     1     -11.308  11.304  69.588  1.00  0.00    -0.359 A  
HETATM   18  F   UNL     1     -12.866  13.123  65.943  1.00  0.00    -0.428 F  
HETATM   19  F   UNL     1     -10.848  13.906  66.156  1.00  0.00    -0.285 F  
HETATM   20  F   UNL     1     -11.228  12.226  64.832  1.00  0.00    -0.325 F  
ENDBRANCH  10  11
ENDBRANCH   3   7
TORSDOF 2
ENDMDL
MODEL       86
REMARK 921   NORMALIZED FREE ENERGY PREDICTED BY IDOCK:   -4.54 KCAL/MOL
REMARK 922        TOTAL FREE ENERGY PREDICTED BY IDOCK:   -5.33 KCAL/MOL
REMARK 923 INTER-LIGAND FREE ENERGY PREDICTED BY IDOCK:   -5.07 KCAL/MOL
REMARK 924 INTRA-LIGAND FREE ENERGY PREDICTED BY IDOCK:   -0.27 KCAL/MOL
REMARK 927      BINDING AFFINITY PREDICTED BY RF-SCORE:    0.00 PKD
ROOT
HETATM    1  C   UNL     1      -8.580   5.700  69.041  1.00  0.00    -0.105 C  
HETATM    2  C   UNL     1      -8.518   5.535  67.570  1.00  0.00    -0.106 A  
HETATM    3  C   UNL     1      -9.039   6.221  66.485  1.00  0.00    -0.162 A  
HETATM    4  O   UNL     1      -7.783   4.478  67.134  1.00  0.00    -0.088 OA 
HETATM    5  C   UNL     1      -8.557   5.476  65.384  1.00  0.00    -0.151 A  
HETATM    6  N   UNL     1      -7.807   4.438  65.752  1.00  0.00    -0.094 NA 
ENDROOT
BRANCH   3   7
HETATM    7  C   UNL     1      -9.870   7.407  66.589  1.00  0.00    -0.193 C  
HETATM    8  O   UNL     1     -11.020   7.292  66.999  1.00  0.00    -0.358 OA 
HETATM    9  H   UNL     1      -8.324   8.596  65.900  1.00  0.00     0.000 HD 
HETATM   10  N   UNL     1      -9.295   8.615  66.209  1.00  0.00    -0.203 N  
BRANCH  10  11
HETATM   11  C   UNL     1      -9.955   9.873  66.218  1.00  0.00    -0.256 A  
HETATM   12  C   UNL     1     -10.393  10.501  67.387  1.00  0.00    -0.269 A  
HETATM   13  C   UNL     1     -11.062  11.725  67.355  1.00  0.00    -0.338 A  
HETATM   14  C   UNL     1     -11.315  12.366  66.142  1.00  0.00    -0.398 A  
HETATM   15  C   UNL     1     -12.059  13.676  66.119  1.00  0.00    -0.436 C  
HETATM   16  C   UNL     1     -10.864  11.754  64.960  1.00  0.00    -0.350 A  
HETATM   17  C   UNL     1     -10.191  10.519  64.999  1.00  0.00    -0.365 A  
HETATM   18  F   UNL     1     -11.319  14.691  65.595  1.00  0.00    -0.318 F  
HETATM   19  F   UNL     1     -13.197  13.616  65.373  1.00  0.00    -0.484 F  
HETATM   20  F   UNL     1     -12.450  14.101  67.355  1.00  0.00    -0.393 F  
ENDBRANCH  10  11
ENDBRANCH   3   7
TORSDOF 2
ENDMDL
MODEL       87
REMARK 921   NORMALIZED FREE ENERGY PREDICTED BY IDOCK:   -4.53 KCAL/MOL
REMARK 922        TOTAL FREE ENERGY PREDICTED BY IDOCK:   -5.32 KCAL/MOL
REMARK 923 INTER-LIGAND FREE ENERGY PREDICTED BY IDOCK:   -4.95 KCAL/MOL
REMARK 924 INTRA-LIGAND FREE ENERGY PREDICTED BY IDOCK:   -0.37 KCAL/MOL
REMARK 927      BINDING AFFINITY PREDICTED BY RF-SCORE:    0.00 PKD
ROOT
HETATM    1  C   UNL     1      -9.491  10.673  63.547  1.00  0.00    -0.344 C  
HETATM    2  C   UNL     1      -8.285  10.162  64.237  1.00  0.00    -0.165 A  
HETATM    3  C   UNL     1      -8.028   9.615  65.484  1.00  0.00    -0.115 A  
HETATM    4  O   UNL     1      -7.135  10.218  63.515  1.00  0.00    -0.132 OA 
HETATM    5  C   UNL     1      -6.637   9.364  65.434  1.00  0.00    -0.071 A  
HETATM    6  N   UNL     1      -6.091   9.714  64.271  1.00  0.00    -0.091 NA 
ENDROOT
BRANCH   3   7
HETATM    7  C   UNL     1      -9.035   9.404  66.509  1.00  0.00    -0.148 C  
HETATM    8  O   UNL     1      -9.736   8.400  66.454  1.00  0.00    -0.233 OA 
HETATM    9  H   UNL     1      -8.489  11.159  67.458  1.00  0.00     0.000 HD 
HETATM   10  N   UNL     1      -9.137  10.373  67.500  1.00  0.00    -0.135 N  
BRANCH  10  11
HETATM   11  C   UNL     1     -10.073  10.354  68.568  1.00  0.00    -0.171 A  
HETATM   12  C   UNL     1      -9.860   9.661  69.763  1.00  0.00    -0.253 A  
HETATM   13  C   UNL     1     -10.815   9.643  70.781  1.00  0.00    -0.400 A  
HETATM   14  C   UNL     1     -12.023  10.324  70.634  1.00  0.00    -0.436 A  
HETATM   15  C   UNL     1     -13.057  10.277  71.730  1.00  0.00    -0.465 C  
HETATM   16  C   UNL     1     -12.244  11.039  69.445  1.00  0.00    -0.329 A  
HETATM   17  C   UNL     1     -11.278  11.053  68.422  1.00  0.00    -0.337 A  
HETATM   18  F   UNL     1     -13.334  11.507  72.243  1.00  0.00    -0.602 F  
HETATM   19  F   UNL     1     -14.247   9.770  71.304  1.00  0.00    -0.181 F  
HETATM   20  F   UNL     1     -12.687   9.507  72.794  1.00  0.00    -0.342 F  
ENDBRANCH  10  11
ENDBRANCH   3   7
TORSDOF 2
ENDMDL
MODEL       88
REMARK 921   NORMALIZED FREE ENERGY PREDICTED BY IDOCK:   -4.50 KCAL/MOL
REMARK 922        TOTAL FREE ENERGY PREDICTED BY IDOCK:   -5.29 KCAL/MOL
REMARK 923 INTER-LIGAND FREE ENERGY PREDICTED BY IDOCK:   -4.92 KCAL/MOL
REMARK 924 INTRA-LIGAND FREE ENERGY PREDICTED BY IDOCK:   -0.37 KCAL/MOL
REMARK 927      BINDING AFFINITY PREDICTED BY RF-SCORE:    0.00 PKD
ROOT
HETATM    1  C   UNL     1      -7.630   6.289  64.940  1.00  0.00    -0.092 C  
HETATM    2  C   UNL     1      -7.855   6.263  66.404  1.00  0.00    -0.104 A  
HETATM    3  C   UNL     1      -8.677   6.952  67.281  1.00  0.00    -0.119 A  
HETATM    4  O   UNL     1      -7.104   5.361  67.091  1.00  0.00    -0.067 OA 
HETATM    5  C   UNL     1      -8.340   6.389  68.533  1.00  0.00    -0.113 A  
HETATM    6  N   UNL     1      -7.409   5.440  68.438  1.00  0.00    -0.071 NA 
ENDROOT
BRANCH   3   7
HETATM    7  C   UNL     1      -9.614   7.987  66.882  1.00  0.00    -0.204 C  
HETATM    8  O   UNL     1     -10.814   7.734  66.885  1.00  0.00    -0.311 OA 
HETATM    9  H   UNL     1      -8.065   9.322  66.571  1.00  0.00     0.000 HD 
HETATM   10  N   UNL     1      -9.078   9.217  66.518  1.00  0.00    -0.148 N  
BRANCH  10  11
HETATM   11  C   UNL     1      -9.830  10.338  66.078  1.00  0.00    -0.233 A  
HETATM   12  C   UNL     1     -10.173  10.555  64.740  1.00  0.00    -0.373 A  
HETATM   13  C   UNL     1     -10.889  11.684  64.341  1.00  0.00    -0.399 A  
HETATM   14  C   UNL     1     -11.291  12.639  65.275  1.00  0.00    -0.350 A  
HETATM   15  C   UNL     1     -12.045  13.865  64.827  1.00  0.00    -0.419 C  
HETATM   16  C   UNL     1     -10.969  12.425  66.625  1.00  0.00    -0.309 A  
HETATM   17  C   UNL     1     -10.245  11.286  67.022  1.00  0.00    -0.250 A  
HETATM   18  F   UNL     1     -13.284  13.951  65.382  1.00  0.00    -0.510 F  
HETATM   19  F   UNL     1     -11.403  15.021  65.158  1.00  0.00    -0.335 F  
HETATM   20  F   UNL     1     -12.237  13.923  63.478  1.00  0.00    -0.510 F  
ENDBRANCH  10  11
ENDBRANCH   3   7
TORSDOF 2
ENDMDL
MODEL       89
REMARK 921   NORMALIZED FREE ENERGY PREDICTED BY IDOCK:   -4.49 KCAL/MOL
REMARK 922        TOTAL FREE ENERGY PREDICTED BY IDOCK:   -5.28 KCAL/MOL
REMARK 923 INTER-LIGAND FREE ENERGY PREDICTED BY IDOCK:   -5.10 KCAL/MOL
REMARK 924 INTRA-LIGAND FREE ENERGY PREDICTED BY IDOCK:   -0.18 KCAL/MOL
REMARK 927      BINDING AFFINITY PREDICTED BY RF-SCORE:    0.00 PKD
ROOT
HETATM    1  C   UNL     1     -11.217  12.026  69.008  1.00  0.00    -0.313 C  
HETATM    2  C   UNL     1     -11.898  11.472  70.201  1.00  0.00    -0.356 A  
HETATM    3  C   UNL     1     -11.874  10.257  70.867  1.00  0.00    -0.473 A  
HETATM    4  O   UNL     1     -12.755  12.321  70.827  1.00  0.00    -0.239 OA 
HETATM    5  C   UNL     1     -12.789  10.463  71.924  1.00  0.00    -0.415 A  
HETATM    6  N   UNL     1     -13.321  11.685  71.917  1.00  0.00    -0.402 NA 
ENDROOT
BRANCH   3   7
HETATM    7  C   UNL     1     -11.060   9.122  70.470  1.00  0.00    -0.260 C  
HETATM    8  O   UNL     1      -9.902   9.317  70.116  1.00  0.00    -0.186 OA 
HETATM    9  H   UNL     1     -12.623   7.821  70.848  1.00  0.00     0.000 HD 
HETATM   10  N   UNL     1     -11.659   7.869  70.519  1.00  0.00    -0.204 N  
BRANCH  10  11
HETATM   11  C   UNL     1     -11.034   6.648  70.149  1.00  0.00    -0.305 A  
HETATM   12  C   UNL     1     -10.503   5.746  71.075  1.00  0.00    -0.307 A  
HETATM   13  C   UNL     1      -9.871   4.569  70.672  1.00  0.00    -0.292 A  
HETATM   14  C   UNL     1      -9.751   4.254  69.319  1.00  0.00    -0.240 A  
HETATM   15  C   UNL     1      -9.045   2.990  68.895  1.00  0.00    -0.149 C  
HETATM   16  C   UNL     1     -10.296   5.143  68.377  1.00  0.00    -0.140 A  
HETATM   17  C   UNL     1     -10.930   6.329  68.789  1.00  0.00    -0.424 A  
HETATM   18  F   UNL     1      -9.858   2.140  68.210  1.00  0.00    -0.261 F  
HETATM   19  F   UNL     1      -7.982   3.235  68.079  1.00  0.00    -0.068 F  
HETATM   20  F   UNL     1      -8.550   2.268  69.941  1.00  0.00    -0.064 F  
ENDBRANCH  10  11
ENDBRANCH   3   7
TORSDOF 2
ENDMDL
MODEL       90
REMARK 921   NORMALIZED FREE ENERGY PREDICTED BY IDOCK:   -4.49 KCAL/MOL
REMARK 922        TOTAL FREE ENERGY PREDICTED BY IDOCK:   -5.28 KCAL/MOL
REMARK 923 INTER-LIGAND FREE ENERGY PREDICTED BY IDOCK:   -4.93 KCAL/MOL
REMARK 924 INTRA-LIGAND FREE ENERGY PREDICTED BY IDOCK:   -0.34 KCAL/MOL
REMARK 927      BINDING AFFINITY PREDICTED BY RF-SCORE:    0.00 PKD
ROOT
HETATM    1  C   UNL     1     -11.325   6.357  70.004  1.00  0.00    -0.496 C  
HETATM    2  C   UNL     1     -10.721   6.342  68.652  1.00  0.00    -0.298 A  
HETATM    3  C   UNL     1     -10.185   7.301  67.808  1.00  0.00    -0.247 A  
HETATM    4  O   UNL     1     -10.647   5.119  68.062  1.00  0.00    -0.080 OA 
HETATM    5  C   UNL     1      -9.802   6.544  66.678  1.00  0.00    -0.148 A  
HETATM    6  N   UNL     1     -10.067   5.245  66.812  1.00  0.00    -0.198 NA 
ENDROOT
BRANCH   3   7
HETATM    7  C   UNL     1     -10.099   8.716  68.127  1.00  0.00    -0.197 C  
HETATM    8  O   UNL     1      -9.118   9.128  68.735  1.00  0.00    -0.135 OA 
HETATM    9  H   UNL     1     -11.911   9.073  67.195  1.00  0.00     0.000 HD 
HETATM   10  N   UNL     1     -11.154   9.520  67.712  1.00  0.00    -0.095 N  
BRANCH  10  11
HETATM   11  C   UNL     1     -11.261  10.916  67.951  1.00  0.00    -0.321 A  
HETATM   12  C   UNL     1     -10.986  11.884  66.979  1.00  0.00    -0.326 A  
HETATM   13  C   UNL     1     -11.075  13.248  67.259  1.00  0.00    -0.301 A  
HETATM   14  C   UNL     1     -11.446  13.692  68.528  1.00  0.00    -0.347 A  
HETATM   15  C   UNL     1     -11.516  15.168  68.824  1.00  0.00    -0.319 C  
HETATM   16  C   UNL     1     -11.741  12.730  69.509  1.00  0.00    -0.383 A  
HETATM   17  C   UNL     1     -11.649  11.356  69.222  1.00  0.00    -0.384 A  
HETATM   18  F   UNL     1     -12.765  15.573  69.183  1.00  0.00    -0.103 F  
HETATM   19  F   UNL     1     -10.693  15.535  69.845  1.00  0.00    -0.228 F  
HETATM   20  F   UNL     1     -11.162  15.952  67.765  1.00  0.00    -0.327 F  
ENDBRANCH  10  11
ENDBRANCH   3   7
TORSDOF 2
ENDMDL
MODEL       91
REMARK 921   NORMALIZED FREE ENERGY PREDICTED BY IDOCK:   -4.48 KCAL/MOL
REMARK 922        TOTAL FREE ENERGY PREDICTED BY IDOCK:   -5.27 KCAL/MOL
REMARK 923 INTER-LIGAND FREE ENERGY PREDICTED BY IDOCK:   -4.96 KCAL/MOL
REMARK 924 INTRA-LIGAND FREE ENERGY PREDICTED BY IDOCK:   -0.32 KCAL/MOL
REMARK 927      BINDING AFFINITY PREDICTED BY RF-SCORE:    0.00 PKD
ROOT
HETATM    1  C   UNL     1     -13.149  10.307  71.547  1.00  0.00    -0.534 C  
HETATM    2  C   UNL     1     -12.852  11.732  71.272  1.00  0.00    -0.308 A  
HETATM    3  C   UNL     1     -12.253  12.425  70.232  1.00  0.00    -0.345 A  
HETATM    4  O   UNL     1     -13.246  12.604  72.237  1.00  0.00    -0.476 OA 
HETATM    5  C   UNL     1     -12.322  13.767  70.670  1.00  0.00    -0.375 A  
HETATM    6  N   UNL     1     -12.911  13.892  71.859  1.00  0.00    -0.347 NA 
ENDROOT
BRANCH   3   7
HETATM    7  C   UNL     1     -11.720  11.802  69.033  1.00  0.00    -0.328 C  
HETATM    8  O   UNL     1     -12.233  12.062  67.951  1.00  0.00    -0.470 OA 
HETATM    9  H   UNL     1     -10.284  10.809  70.144  1.00  0.00     0.000 HD 
HETATM   10  N   UNL     1     -10.644  10.937  69.198  1.00  0.00    -0.212 N  
BRANCH  10  11
HETATM   11  C   UNL     1     -10.005  10.219  68.153  1.00  0.00    -0.146 A  
HETATM   12  C   UNL     1     -10.280   8.880  67.863  1.00  0.00    -0.274 A  
HETATM   13  C   UNL     1      -9.612   8.198  66.845  1.00  0.00    -0.269 A  
HETATM   14  C   UNL     1      -8.640   8.840  66.077  1.00  0.00    -0.166 A  
HETATM   15  C   UNL     1      -7.909   8.086  64.996  1.00  0.00    -0.123 C  
HETATM   16  C   UNL     1      -8.366  10.192  66.346  1.00  0.00    -0.125 A  
HETATM   17  C   UNL     1      -9.041  10.873  67.374  1.00  0.00    -0.144 A  
HETATM   18  F   UNL     1      -8.108   8.618  63.759  1.00  0.00    -0.136 F  
HETATM   19  F   UNL     1      -6.561   8.075  65.189  1.00  0.00    -0.049 F  
HETATM   20  F   UNL     1      -8.280   6.777  64.901  1.00  0.00    -0.128 F  
ENDBRANCH  10  11
ENDBRANCH   3   7
TORSDOF 2
ENDMDL
MODEL       92
REMARK 921   NORMALIZED FREE ENERGY PREDICTED BY IDOCK:   -4.48 KCAL/MOL
REMARK 922        TOTAL FREE ENERGY PREDICTED BY IDOCK:   -5.27 KCAL/MOL
REMARK 923 INTER-LIGAND FREE ENERGY PREDICTED BY IDOCK:   -5.33 KCAL/MOL
REMARK 924 INTRA-LIGAND FREE ENERGY PREDICTED BY IDOCK:    0.07 KCAL/MOL
REMARK 927      BINDING AFFINITY PREDICTED BY RF-SCORE:    0.00 PKD
ROOT
HETATM    1  C   UNL     1     -12.268  12.601  70.497  1.00  0.00    -0.383 C  
HETATM    2  C   UNL     1     -11.939  12.331  69.079  1.00  0.00    -0.248 A  
HETATM    3  C   UNL     1     -11.353  11.280  68.392  1.00  0.00    -0.348 A  
HETATM    4  O   UNL     1     -12.279  13.316  68.205  1.00  0.00    -0.266 OA 
HETATM    5  C   UNL     1     -11.370  11.732  67.053  1.00  0.00    -0.321 A  
HETATM    6  N   UNL     1     -11.920  12.939  66.924  1.00  0.00    -0.402 NA 
ENDROOT
BRANCH   3   7
HETATM    7  C   UNL     1     -10.874  10.059  69.018  1.00  0.00    -0.222 C  
HETATM    8  O   UNL     1      -9.908   9.483  68.531  1.00  0.00    -0.152 OA 
HETATM    9  H   UNL     1     -12.336  10.190  70.476  1.00  0.00     0.000 HD 
HETATM   10  N   UNL     1     -11.556   9.621  70.147  1.00  0.00    -0.191 N  
BRANCH  10  11
HETATM   11  C   UNL     1     -11.253   8.442  70.879  1.00  0.00    -0.262 A  
HETATM   12  C   UNL     1     -11.318   7.159  70.327  1.00  0.00    -0.305 A  
HETATM   13  C   UNL     1     -11.040   6.021  71.086  1.00  0.00    -0.336 A  
HETATM   14  C   UNL     1     -10.682   6.131  72.429  1.00  0.00    -0.267 A  
HETATM   15  C   UNL     1     -10.406   4.893  73.243  1.00  0.00    -0.186 C  
HETATM   16  C   UNL     1     -10.595   7.416  72.991  1.00  0.00    -0.392 A  
HETATM   17  C   UNL     1     -10.879   8.559  72.223  1.00  0.00    -0.418 A  
HETATM   18  F   UNL     1      -9.134   4.854  73.725  1.00  0.00    -0.113 F  
HETATM   19  F   UNL     1     -11.223   4.789  74.328  1.00  0.00    -0.279 F  
HETATM   20  F   UNL     1     -10.573   3.734  72.543  1.00  0.00    -0.238 F  
ENDBRANCH  10  11
ENDBRANCH   3   7
TORSDOF 2
ENDMDL
MODEL       93
REMARK 921   NORMALIZED FREE ENERGY PREDICTED BY IDOCK:   -4.47 KCAL/MOL
REMARK 922        TOTAL FREE ENERGY PREDICTED BY IDOCK:   -5.26 KCAL/MOL
REMARK 923 INTER-LIGAND FREE ENERGY PREDICTED BY IDOCK:   -5.56 KCAL/MOL
REMARK 924 INTRA-LIGAND FREE ENERGY PREDICTED BY IDOCK:    0.29 KCAL/MOL
REMARK 927      BINDING AFFINITY PREDICTED BY RF-SCORE:    0.00 PKD
ROOT
HETATM    1  C   UNL     1     -13.103  14.667  72.915  1.00  0.00    -0.609 C  
HETATM    2  C   UNL     1     -12.771  14.491  71.483  1.00  0.00    -0.339 A  
HETATM    3  C   UNL     1     -12.523  13.402  70.662  1.00  0.00    -0.385 A  
HETATM    4  O   UNL     1     -12.685  15.639  70.760  1.00  0.00    -0.458 OA 
HETATM    5  C   UNL     1     -12.276  14.006  69.408  1.00  0.00    -0.292 A  
HETATM    6  N   UNL     1     -12.371  15.335  69.448  1.00  0.00    -0.191 NA 
ENDROOT
BRANCH   3   7
HETATM    7  C   UNL     1     -12.539  12.020  71.108  1.00  0.00    -0.271 C  
HETATM    8  O   UNL     1     -13.368  11.675  71.942  1.00  0.00    -0.445 OA 
HETATM    9  H   UNL     1     -10.965  11.556  69.848  1.00  0.00     0.000 HD 
HETATM   10  N   UNL     1     -11.595  11.166  70.548  1.00  0.00    -0.272 N  
BRANCH  10  11
HETATM   11  C   UNL     1     -11.440   9.793  70.874  1.00  0.00    -0.369 A  
HETATM   12  C   UNL     1     -11.109   8.814  69.933  1.00  0.00    -0.129 A  
HETATM   13  C   UNL     1     -10.992   7.468  70.286  1.00  0.00    -0.264 A  
HETATM   14  C   UNL     1     -11.203   7.057  71.601  1.00  0.00    -0.276 A  
HETATM   15  C   UNL     1     -11.096   5.598  71.965  1.00  0.00    -0.230 C  
HETATM   16  C   UNL     1     -11.520   8.033  72.561  1.00  0.00    -0.471 A  
HETATM   17  C   UNL     1     -11.637   9.387  72.200  1.00  0.00    -0.049 A  
HETATM   18  F   UNL     1     -10.119   5.355  72.880  1.00  0.00    -0.179 F  
HETATM   19  F   UNL     1     -12.248   5.109  72.505  1.00  0.00    -0.168 F  
HETATM   20  F   UNL     1     -10.817   4.792  70.900  1.00  0.00    -0.161 F  
ENDBRANCH  10  11
ENDBRANCH   3   7
TORSDOF 2
ENDMDL
MODEL       94
REMARK 921   NORMALIZED FREE ENERGY PREDICTED BY IDOCK:   -4.47 KCAL/MOL
REMARK 922        TOTAL FREE ENERGY PREDICTED BY IDOCK:   -5.25 KCAL/MOL
REMARK 923 INTER-LIGAND FREE ENERGY PREDICTED BY IDOCK:   -5.54 KCAL/MOL
REMARK 924 INTRA-LIGAND FREE ENERGY PREDICTED BY IDOCK:    0.29 KCAL/MOL
REMARK 927      BINDING AFFINITY PREDICTED BY RF-SCORE:    0.00 PKD
ROOT
HETATM    1  C   UNL     1     -11.046  15.370  70.514  1.00  0.00    -0.361 C  
HETATM    2  C   UNL     1     -12.028  14.470  71.163  1.00  0.00    -0.339 A  
HETATM    3  C   UNL     1     -12.458  13.171  70.947  1.00  0.00    -0.407 A  
HETATM    4  O   UNL     1     -12.682  14.998  72.232  1.00  0.00    -0.309 OA 
HETATM    5  C   UNL     1     -13.419  12.987  71.967  1.00  0.00    -0.492 A  
HETATM    6  N   UNL     1     -13.563  14.061  72.741  1.00  0.00    -0.689 NA 
ENDROOT
BRANCH   3   7
HETATM    7  C   UNL     1     -11.962  12.310  69.888  1.00  0.00    -0.306 C  
HETATM    8  O   UNL     1     -11.977  12.721  68.733  1.00  0.00    -0.305 OA 
HETATM    9  H   UNL     1     -11.511  10.825  71.256  1.00  0.00     0.000 HD 
HETATM   10  N   UNL     1     -11.494  11.055  70.263  1.00  0.00    -0.298 N  
BRANCH  10  11
HETATM   11  C   UNL     1     -10.995  10.069  69.371  1.00  0.00    -0.244 A  
HETATM   12  C   UNL     1     -10.671  10.335  68.038  1.00  0.00    -0.299 A  
HETATM   13  C   UNL     1     -10.208   9.333  67.183  1.00  0.00    -0.324 A  
HETATM   14  C   UNL     1     -10.052   8.024  67.639  1.00  0.00    -0.269 A  
HETATM   15  C   UNL     1      -9.573   6.947  66.700  1.00  0.00    -0.168 C  
HETATM   16  C   UNL     1     -10.358   7.747  68.982  1.00  0.00    -0.219 A  
HETATM   17  C   UNL     1     -10.825   8.760  69.839  1.00  0.00    -0.211 A  
HETATM   18  F   UNL     1      -8.399   6.387  67.098  1.00  0.00    -0.110 F  
HETATM   19  F   UNL     1     -10.462   5.920  66.589  1.00  0.00    -0.231 F  
HETATM   20  F   UNL     1      -9.361   7.390  65.428  1.00  0.00     0.039 F  
ENDBRANCH  10  11
ENDBRANCH   3   7
TORSDOF 2
ENDMDL
MODEL       95
REMARK 921   NORMALIZED FREE ENERGY PREDICTED BY IDOCK:   -4.47 KCAL/MOL
REMARK 922        TOTAL FREE ENERGY PREDICTED BY IDOCK:   -5.25 KCAL/MOL
REMARK 923 INTER-LIGAND FREE ENERGY PREDICTED BY IDOCK:   -4.96 KCAL/MOL
REMARK 924 INTRA-LIGAND FREE ENERGY PREDICTED BY IDOCK:   -0.30 KCAL/MOL
REMARK 927      BINDING AFFINITY PREDICTED BY RF-SCORE:    0.00 PKD
ROOT
HETATM    1  C   UNL     1     -11.459  11.068  69.989  1.00  0.00    -0.398 C  
HETATM    2  C   UNL     1     -12.001  10.075  70.944  1.00  0.00    -0.361 A  
HETATM    3  C   UNL     1     -11.814   8.718  71.157  1.00  0.00    -0.345 A  
HETATM    4  O   UNL     1     -12.889  10.563  71.849  1.00  0.00    -0.444 OA 
HETATM    5  C   UNL     1     -12.670   8.453  72.250  1.00  0.00    -0.329 A  
HETATM    6  N   UNL     1     -13.315   9.539  72.676  1.00  0.00    -0.280 NA 
ENDROOT
BRANCH   3   7
HETATM    7  C   UNL     1     -10.925   7.880  70.372  1.00  0.00    -0.249 C  
HETATM    8  O   UNL     1      -9.727   8.143  70.350  1.00  0.00    -0.177 OA 
HETATM    9  H   UNL     1     -12.507   6.681  69.791  1.00  0.00     0.000 HD 
HETATM   10  N   UNL     1     -11.502   6.818  69.686  1.00  0.00    -0.267 N  
BRANCH  10  11
HETATM   11  C   UNL     1     -10.801   5.908  68.850  1.00  0.00    -0.303 A  
HETATM   12  C   UNL     1      -9.999   4.875  69.344  1.00  0.00    -0.282 A  
HETATM   13  C   UNL     1      -9.304   4.016  68.492  1.00  0.00    -0.221 A  
HETATM   14  C   UNL     1      -9.391   4.163  67.108  1.00  0.00    -0.198 A  
HETATM   15  C   UNL     1      -8.616   3.243  66.199  1.00  0.00    -0.121 C  
HETATM   16  C   UNL     1     -10.207   5.186  66.597  1.00  0.00    -0.297 A  
HETATM   17  C   UNL     1     -10.905   6.050  67.461  1.00  0.00    -0.393 A  
HETATM   18  F   UNL     1      -9.422   2.515  65.378  1.00  0.00    -0.147 F  
HETATM   19  F   UNL     1      -7.759   3.918  65.382  1.00  0.00    -0.078 F  
HETATM   20  F   UNL     1      -7.851   2.335  66.869  1.00  0.00    -0.067 F  
ENDBRANCH  10  11
ENDBRANCH   3   7
TORSDOF 2
ENDMDL
MODEL       96
REMARK 921   NORMALIZED FREE ENERGY PREDICTED BY IDOCK:   -4.40 KCAL/MOL
REMARK 922        TOTAL FREE ENERGY PREDICTED BY IDOCK:   -5.18 KCAL/MOL
REMARK 923 INTER-LIGAND FREE ENERGY PREDICTED BY IDOCK:   -5.26 KCAL/MOL
REMARK 924 INTRA-LIGAND FREE ENERGY PREDICTED BY IDOCK:    0.09 KCAL/MOL
REMARK 927      BINDING AFFINITY PREDICTED BY RF-SCORE:    0.00 PKD
ROOT
HETATM    1  C   UNL     1     -10.945  15.427  64.945  1.00  0.00    -0.453 C  
HETATM    2  C   UNL     1     -10.689  16.410  66.023  1.00  0.00    -0.191 A  
HETATM    3  C   UNL     1     -10.497  16.334  67.394  1.00  0.00    -0.304 A  
HETATM    4  O   UNL     1     -10.608  17.706  65.621  1.00  0.00    -0.565 OA 
HETATM    5  C   UNL     1     -10.308  17.686  67.758  1.00  0.00    -0.365 A  
HETATM    6  N   UNL     1     -10.368  18.515  66.717  1.00  0.00    -0.382 NA 
ENDROOT
BRANCH   3   7
HETATM    7  C   UNL     1     -10.514  15.097  68.154  1.00  0.00    -0.245 C  
HETATM    8  O   UNL     1     -10.706  15.147  69.364  1.00  0.00    -0.243 OA 
HETATM    9  H   UNL     1     -10.175  13.993  66.438  1.00  0.00     0.000 HD 
HETATM   10  N   UNL     1     -10.307  13.919  67.446  1.00  0.00    -0.251 N  
BRANCH  10  11
HETATM   11  C   UNL     1     -10.264  12.619  68.017  1.00  0.00    -0.230 A  
HETATM   12  C   UNL     1      -9.074  11.934  68.277  1.00  0.00    -0.183 A  
HETATM   13  C   UNL     1      -9.072  10.645  68.813  1.00  0.00    -0.170 A  
HETATM   14  C   UNL     1     -10.271   9.997  69.110  1.00  0.00    -0.224 A  
HETATM   15  C   UNL     1     -10.256   8.596  69.667  1.00  0.00    -0.208 C  
HETATM   16  C   UNL     1     -11.474  10.680  68.869  1.00  0.00    -0.334 A  
HETATM   17  C   UNL     1     -11.470  11.978  68.327  1.00  0.00    -0.361 A  
HETATM   18  F   UNL     1     -10.824   8.516  70.901  1.00  0.00    -0.227 F  
HETATM   19  F   UNL     1     -10.936   7.715  68.881  1.00  0.00    -0.188 F  
HETATM   20  F   UNL     1      -9.001   8.078  69.801  1.00  0.00    -0.140 F  
ENDBRANCH  10  11
ENDBRANCH   3   7
TORSDOF 2
ENDMDL
MODEL       97
REMARK 921   NORMALIZED FREE ENERGY PREDICTED BY IDOCK:   -4.32 KCAL/MOL
REMARK 922        TOTAL FREE ENERGY PREDICTED BY IDOCK:   -5.09 KCAL/MOL
REMARK 923 INTER-LIGAND FREE ENERGY PREDICTED BY IDOCK:   -5.09 KCAL/MOL
REMARK 924 INTRA-LIGAND FREE ENERGY PREDICTED BY IDOCK:   -0.00 KCAL/MOL
REMARK 927      BINDING AFFINITY PREDICTED BY RF-SCORE:    0.00 PKD
ROOT
HETATM    1  C   UNL     1     -10.463  17.151  68.560  1.00  0.00    -0.377 C  
HETATM    2  C   UNL     1     -11.176  16.025  69.206  1.00  0.00    -0.346 A  
HETATM    3  C   UNL     1     -11.429  14.705  68.871  1.00  0.00    -0.323 A  
HETATM    4  O   UNL     1     -11.723  16.303  70.419  1.00  0.00    -0.277 OA 
HETATM    5  C   UNL     1     -12.173  14.238  69.978  1.00  0.00    -0.359 A  
HETATM    6  N   UNL     1     -12.355  15.174  70.909  1.00  0.00    -0.323 NA 
ENDROOT
BRANCH   3   7
HETATM    7  C   UNL     1     -10.983  14.073  67.642  1.00  0.00    -0.269 C  
HETATM    8  O   UNL     1     -11.057  14.700  66.591  1.00  0.00    -0.320 OA 
HETATM    9  H   UNL     1     -10.460  12.356  68.671  1.00  0.00     0.000 HD 
HETATM   10  N   UNL     1     -10.493  12.775  67.742  1.00  0.00    -0.219 N  
BRANCH  10  11
HETATM   11  C   UNL     1     -10.035  11.988  66.652  1.00  0.00    -0.201 A  
HETATM   12  C   UNL     1     -10.795  11.752  65.503  1.00  0.00    -0.348 A  
HETATM   13  C   UNL     1     -10.322  10.949  64.464  1.00  0.00    -0.417 A  
HETATM   14  C   UNL     1      -9.063  10.355  64.540  1.00  0.00    -0.263 A  
HETATM   15  C   UNL     1      -8.574   9.472  63.421  1.00  0.00    -0.210 C  
HETATM   16  C   UNL     1      -8.281  10.598  65.682  1.00  0.00    -0.154 A  
HETATM   17  C   UNL     1      -8.763  11.407  66.727  1.00  0.00    -0.174 A  
HETATM   18  F   UNL     1      -7.441   9.947  62.835  1.00  0.00    -0.116 F  
HETATM   19  F   UNL     1      -8.278   8.211  63.844  1.00  0.00    -0.153 F  
HETATM   20  F   UNL     1      -9.479   9.320  62.413  1.00  0.00    -0.240 F  
ENDBRANCH  10  11
ENDBRANCH   3   7
TORSDOF 2
ENDMDL
MODEL       98
REMARK 921   NORMALIZED FREE ENERGY PREDICTED BY IDOCK:   -4.30 KCAL/MOL
REMARK 922        TOTAL FREE ENERGY PREDICTED BY IDOCK:   -5.07 KCAL/MOL
REMARK 923 INTER-LIGAND FREE ENERGY PREDICTED BY IDOCK:   -4.76 KCAL/MOL
REMARK 924 INTRA-LIGAND FREE ENERGY PREDICTED BY IDOCK:   -0.31 KCAL/MOL
REMARK 927      BINDING AFFINITY PREDICTED BY RF-SCORE:    0.00 PKD
ROOT
HETATM    1  C   UNL     1     -11.664  14.775  67.580  1.00  0.00    -0.364 C  
HETATM    2  C   UNL     1     -11.939  14.483  69.006  1.00  0.00    -0.299 A  
HETATM    3  C   UNL     1     -11.984  13.334  69.779  1.00  0.00    -0.391 A  
HETATM    4  O   UNL     1     -12.211  15.567  69.779  1.00  0.00    -0.355 OA 
HETATM    5  C   UNL     1     -12.311  13.833  71.061  1.00  0.00    -0.372 A  
HETATM    6  N   UNL     1     -12.447  15.158  71.080  1.00  0.00    -0.326 NA 
ENDROOT
BRANCH   3   7
HETATM    7  C   UNL     1     -11.737  11.996  69.272  1.00  0.00    -0.330 C  
HETATM    8  O   UNL     1     -12.636  11.164  69.329  1.00  0.00    -0.336 OA 
HETATM    9  H   UNL     1      -9.810  12.517  68.731  1.00  0.00     0.000 HD 
HETATM   10  N   UNL     1     -10.475  11.744  68.746  1.00  0.00    -0.214 N  
BRANCH  10  11
HETATM   11  C   UNL     1     -10.040  10.496  68.226  1.00  0.00    -0.160 A  
HETATM   12  C   UNL     1      -9.294   9.575  68.968  1.00  0.00    -0.155 A  
HETATM   13  C   UNL     1      -8.860   8.369  68.414  1.00  0.00    -0.140 A  
HETATM   14  C   UNL     1      -9.162   8.044  67.092  1.00  0.00    -0.172 A  
HETATM   15  C   UNL     1      -8.667   6.749  66.500  1.00  0.00    -0.136 C  
HETATM   16  C   UNL     1      -9.926   8.953  66.341  1.00  0.00    -0.354 A  
HETATM   17  C   UNL     1     -10.359  10.167  66.903  1.00  0.00    -0.298 A  
HETATM   18  F   UNL     1      -9.681   5.933  66.101  1.00  0.00    -0.177 F  
HETATM   19  F   UNL     1      -7.887   6.943  65.400  1.00  0.00    -0.088 F  
HETATM   20  F   UNL     1      -7.913   6.010  67.362  1.00  0.00    -0.098 F  
ENDBRANCH  10  11
ENDBRANCH   3   7
TORSDOF 2
ENDMDL
MODEL       99
REMARK 921   NORMALIZED FREE ENERGY PREDICTED BY IDOCK:   -4.30 KCAL/MOL
REMARK 922        TOTAL FREE ENERGY PREDICTED BY IDOCK:   -5.06 KCAL/MOL
REMARK 923 INTER-LIGAND FREE ENERGY PREDICTED BY IDOCK:   -4.86 KCAL/MOL
REMARK 924 INTRA-LIGAND FREE ENERGY PREDICTED BY IDOCK:   -0.21 KCAL/MOL
REMARK 927      BINDING AFFINITY PREDICTED BY RF-SCORE:    0.00 PKD
ROOT
HETATM    1  C   UNL     1      -5.904  12.727  70.733  1.00  0.00    -0.050 C  
HETATM    2  C   UNL     1      -5.871  14.188  70.493  1.00  0.00    -0.176 A  
HETATM    3  C   UNL     1      -6.395  15.035  69.529  1.00  0.00    -0.131 A  
HETATM    4  O   UNL     1      -5.180  14.913  71.413  1.00  0.00    -0.139 OA 
HETATM    5  C   UNL     1      -5.948  16.307  69.954  1.00  0.00    -0.188 A  
HETATM    6  N   UNL     1      -5.227  16.253  71.073  1.00  0.00    -0.147 NA 
ENDROOT
BRANCH   3   7
HETATM    7  C   UNL     1      -7.194  14.593  68.399  1.00  0.00    -0.117 C  
HETATM    8  O   UNL     1      -6.632  14.073  67.442  1.00  0.00    -0.278 OA 
HETATM    9  H   UNL     1      -8.929  15.219  69.335  1.00  0.00     0.000 HD 
HETATM   10  N   UNL     1      -8.567  14.793  68.482  1.00  0.00    -0.163 N  
BRANCH  10  11
HETATM   11  C   UNL     1      -9.505  14.452  67.472  1.00  0.00    -0.207 A  
HETATM   12  C   UNL     1     -10.527  13.517  67.660  1.00  0.00    -0.239 A  
HETATM   13  C   UNL     1     -11.415  13.186  66.634  1.00  0.00    -0.389 A  
HETATM   14  C   UNL     1     -11.308  13.786  65.380  1.00  0.00    -0.314 A  
HETATM   15  C   UNL     1     -12.258  13.403  64.274  1.00  0.00    -0.392 C  
HETATM   16  C   UNL     1     -10.296  14.740  65.183  1.00  0.00    -0.439 A  
HETATM   17  C   UNL     1      -9.404  15.069  66.219  1.00  0.00    -0.341 A  
HETATM   18  F   UNL     1     -13.006  14.452  63.838  1.00  0.00    -0.059 F  
HETATM   19  F   UNL     1     -11.613  12.918  63.177  1.00  0.00    -0.545 F  
HETATM   20  F   UNL     1     -13.150  12.436  64.635  1.00  0.00    -0.543 F  
ENDBRANCH  10  11
ENDBRANCH   3   7
TORSDOF 2
ENDMDL
MODEL      100
REMARK 921   NORMALIZED FREE ENERGY PREDICTED BY IDOCK:   -4.25 KCAL/MOL
REMARK 922        TOTAL FREE ENERGY PREDICTED BY IDOCK:   -5.02 KCAL/MOL
REMARK 923 INTER-LIGAND FREE ENERGY PREDICTED BY IDOCK:   -4.70 KCAL/MOL
REMARK 924 INTRA-LIGAND FREE ENERGY PREDICTED BY IDOCK:   -0.31 KCAL/MOL
REMARK 927      BINDING AFFINITY PREDICTED BY RF-SCORE:    0.00 PKD
ROOT
HETATM    1  C   UNL     1      -9.839  19.641  67.630  1.00  0.00    -0.494 C  
HETATM    2  C   UNL     1      -8.485  19.366  68.161  1.00  0.00    -0.332 A  
HETATM    3  C   UNL     1      -7.578  18.324  68.041  1.00  0.00    -0.257 A  
HETATM    4  O   UNL     1      -7.963  20.338  68.955  1.00  0.00     0.092 OA 
HETATM    5  C   UNL     1      -6.493  18.763  68.833  1.00  0.00    -0.263 A  
HETATM    6  N   UNL     1      -6.703  19.958  69.382  1.00  0.00    -0.337 NA 
ENDROOT
BRANCH   3   7
HETATM    7  C   UNL     1      -7.811  17.123  67.259  1.00  0.00    -0.178 C  
HETATM    8  O   UNL     1      -7.377  17.067  66.114  1.00  0.00    -0.281 OA 
HETATM    9  H   UNL     1      -8.818  16.246  68.839  1.00  0.00     0.000 HD 
HETATM   10  N   UNL     1      -8.521  16.099  67.874  1.00  0.00    -0.162 N  
BRANCH  10  11
HETATM   11  C   UNL     1      -8.867  14.863  67.265  1.00  0.00    -0.201 A  
HETATM   12  C   UNL     1      -9.797  14.753  66.227  1.00  0.00    -0.316 A  
HETATM   13  C   UNL     1     -10.131  13.517  65.672  1.00  0.00    -0.292 A  
HETATM   14  C   UNL     1      -9.540  12.343  66.139  1.00  0.00    -0.238 A  
HETATM   15  C   UNL     1      -9.927  11.013  65.546  1.00  0.00    -0.256 C  
HETATM   16  C   UNL     1      -8.591  12.441  67.170  1.00  0.00    -0.189 A  
HETATM   17  C   UNL     1      -8.258  13.689  67.727  1.00  0.00    -0.179 A  
HETATM   18  F   UNL     1      -8.878  10.373  64.962  1.00  0.00    -0.162 F  
HETATM   19  F   UNL     1     -10.422  10.151  66.478  1.00  0.00    -0.285 F  
HETATM   20  F   UNL     1     -10.888  11.106  64.583  1.00  0.00    -0.374 F  
ENDBRANCH  10  11
ENDBRANCH   3   7
TORSDOF 2
ENDMDL
MODEL      101
REMARK 921   NORMALIZED FREE ENERGY PREDICTED BY IDOCK:   -4.23 KCAL/MOL
REMARK 922        TOTAL FREE ENERGY PREDICTED BY IDOCK:   -4.99 KCAL/MOL
REMARK 923 INTER-LIGAND FREE ENERGY PREDICTED BY IDOCK:   -4.98 KCAL/MOL
REMARK 924 INTRA-LIGAND FREE ENERGY PREDICTED BY IDOCK:   -0.01 KCAL/MOL
REMARK 927      BINDING AFFINITY PREDICTED BY RF-SCORE:    0.00 PKD
ROOT
HETATM    1  C   UNL     1      -8.666  17.113  68.626  1.00  0.00    -0.266 C  
HETATM    2  C   UNL     1      -9.509  17.674  67.545  1.00  0.00    -0.256 A  
HETATM    3  C   UNL     1     -10.197  17.145  66.464  1.00  0.00    -0.322 A  
HETATM    4  O   UNL     1      -9.683  19.022  67.584  1.00  0.00    -0.301 OA 
HETATM    5  C   UNL     1     -10.777  18.290  65.873  1.00  0.00    -0.144 A  
HETATM    6  N   UNL     1     -10.485  19.413  66.526  1.00  0.00    -0.445 NA 
ENDROOT
BRANCH   3   7
HETATM    7  C   UNL     1     -10.230  15.732  66.127  1.00  0.00    -0.315 C  
HETATM    8  O   UNL     1     -10.398  15.405  64.958  1.00  0.00    -0.387 OA 
HETATM    9  H   UNL     1      -9.914  15.216  68.105  1.00  0.00     0.000 HD 
HETATM   10  N   UNL     1     -10.066  14.831  67.173  1.00  0.00    -0.239 N  
BRANCH  10  11
HETATM   11  C   UNL     1     -10.092  13.417  67.045  1.00  0.00    -0.247 A  
HETATM   12  C   UNL     1     -11.260  12.658  67.167  1.00  0.00    -0.348 A  
HETATM   13  C   UNL     1     -11.243  11.266  67.062  1.00  0.00    -0.324 A  
HETATM   14  C   UNL     1     -10.049  10.585  66.830  1.00  0.00    -0.270 A  
HETATM   15  C   UNL     1     -10.041   9.080  66.742  1.00  0.00    -0.274 C  
HETATM   16  C   UNL     1      -8.870  11.337  66.689  1.00  0.00    -0.175 A  
HETATM   17  C   UNL     1      -8.893  12.739  66.796  1.00  0.00    -0.161 A  
HETATM   18  F   UNL     1      -9.615   8.627  65.532  1.00  0.00    -0.252 F  
HETATM   19  F   UNL     1      -9.220   8.508  67.668  1.00  0.00    -0.132 F  
HETATM   20  F   UNL     1     -11.267   8.518  66.939  1.00  0.00    -0.123 F  
ENDBRANCH  10  11
ENDBRANCH   3   7
TORSDOF 2
ENDMDL
MODEL      102
REMARK 921   NORMALIZED FREE ENERGY PREDICTED BY IDOCK:   -4.13 KCAL/MOL
REMARK 922        TOTAL FREE ENERGY PREDICTED BY IDOCK:   -4.88 KCAL/MOL
REMARK 923 INTER-LIGAND FREE ENERGY PREDICTED BY IDOCK:   -4.56 KCAL/MOL
REMARK 924 INTRA-LIGAND FREE ENERGY PREDICTED BY IDOCK:   -0.32 KCAL/MOL
REMARK 927      BINDING AFFINITY PREDICTED BY RF-SCORE:    0.00 PKD
ROOT
HETATM    1  C   UNL     1      -6.639  12.719  67.492  1.00  0.00    -0.158 C  
HETATM    2  C   UNL     1      -6.613  11.525  66.616  1.00  0.00    -0.081 A  
HETATM    3  C   UNL     1      -7.469  10.460  66.385  1.00  0.00    -0.120 A  
HETATM    4  O   UNL     1      -5.510  11.405  65.830  1.00  0.00    -0.239 OA 
HETATM    5  C   UNL     1      -6.776   9.707  65.411  1.00  0.00    -0.090 A  
HETATM    6  N   UNL     1      -5.611  10.255  65.067  1.00  0.00    -0.111 NA 
ENDROOT
BRANCH   3   7
HETATM    7  C   UNL     1      -8.745  10.276  67.054  1.00  0.00    -0.129 C  
HETATM    8  O   UNL     1      -9.774  10.303  66.388  1.00  0.00    -0.183 OA 
HETATM    9  H   UNL     1      -7.799  10.057  68.880  1.00  0.00     0.000 HD 
HETATM   10  N   UNL     1      -8.713  10.080  68.430  1.00  0.00    -0.115 N  
BRANCH  10  11
HETATM   11  C   UNL     1      -9.854   9.906  69.258  1.00  0.00    -0.207 A  
HETATM   12  C   UNL     1     -10.665  10.965  69.678  1.00  0.00    -0.232 A  
HETATM   13  C   UNL     1     -11.763  10.759  70.515  1.00  0.00    -0.449 A  
HETATM   14  C   UNL     1     -12.088   9.478  70.960  1.00  0.00    -0.398 A  
HETATM   15  C   UNL     1     -13.262   9.273  71.883  1.00  0.00    -0.423 C  
HETATM   16  C   UNL     1     -11.291   8.403  70.532  1.00  0.00    -0.228 A  
HETATM   17  C   UNL     1     -10.185   8.616  69.690  1.00  0.00    -0.208 A  
HETATM   18  F   UNL     1     -14.220   8.470  71.342  1.00  0.00    -0.427 F  
HETATM   19  F   UNL     1     -12.904   8.691  73.061  1.00  0.00    -0.386 F  
HETATM   20  F   UNL     1     -13.897  10.432  72.221  1.00  0.00    -0.376 F  
ENDBRANCH  10  11
ENDBRANCH   3   7
TORSDOF 2
ENDMDL
MODEL      103
REMARK 921   NORMALIZED FREE ENERGY PREDICTED BY IDOCK:   -4.13 KCAL/MOL
REMARK 922        TOTAL FREE ENERGY PREDICTED BY IDOCK:   -4.87 KCAL/MOL
REMARK 923 INTER-LIGAND FREE ENERGY PREDICTED BY IDOCK:   -4.52 KCAL/MOL
REMARK 924 INTRA-LIGAND FREE ENERGY PREDICTED BY IDOCK:   -0.35 KCAL/MOL
REMARK 927      BINDING AFFINITY PREDICTED BY RF-SCORE:    0.00 PKD
ROOT
HETATM    1  C   UNL     1      -9.687  15.092  65.925  1.00  0.00    -0.385 C  
HETATM    2  C   UNL     1     -10.520  14.752  67.101  1.00  0.00    -0.265 A  
HETATM    3  C   UNL     1     -11.059  13.583  67.614  1.00  0.00    -0.290 A  
HETATM    4  O   UNL     1     -10.854  15.800  67.900  1.00  0.00    -0.296 OA 
HETATM    5  C   UNL     1     -11.740  14.033  68.768  1.00  0.00    -0.353 A  
HETATM    6  N   UNL     1     -11.627  15.347  68.954  1.00  0.00    -0.336 NA 
ENDROOT
BRANCH   3   7
HETATM    7  C   UNL     1     -10.892  12.271  67.012  1.00  0.00    -0.250 C  
HETATM    8  O   UNL     1     -11.398  12.053  65.917  1.00  0.00    -0.330 OA 
HETATM    9  H   UNL     1      -9.765  11.633  68.625  1.00  0.00     0.000 HD 
HETATM   10  N   UNL     1     -10.157  11.337  67.731  1.00  0.00    -0.177 N  
BRANCH  10  11
HETATM   11  C   UNL     1      -9.907  10.000  67.320  1.00  0.00    -0.181 A  
HETATM   12  C   UNL     1     -10.786   8.943  67.573  1.00  0.00    -0.223 A  
HETATM   13  C   UNL     1     -10.494   7.637  67.177  1.00  0.00    -0.412 A  
HETATM   14  C   UNL     1      -9.305   7.345  66.508  1.00  0.00    -0.222 A  
HETATM   15  C   UNL     1      -8.991   5.927  66.106  1.00  0.00    -0.151 C  
HETATM   16  C   UNL     1      -8.421   8.402  66.232  1.00  0.00    -0.132 A  
HETATM   17  C   UNL     1      -8.720   9.716  66.635  1.00  0.00    -0.146 A  
HETATM   18  F   UNL     1      -8.861   5.780  64.760  1.00  0.00    -0.133 F  
HETATM   19  F   UNL     1      -7.825   5.477  66.649  1.00  0.00    -0.096 F  
HETATM   20  F   UNL     1      -9.945   5.030  66.487  1.00  0.00    -0.146 F  
ENDBRANCH  10  11
ENDBRANCH   3   7
TORSDOF 2
ENDMDL
MODEL      104
REMARK 921   NORMALIZED FREE ENERGY PREDICTED BY IDOCK:   -4.12 KCAL/MOL
REMARK 922        TOTAL FREE ENERGY PREDICTED BY IDOCK:   -4.87 KCAL/MOL
REMARK 923 INTER-LIGAND FREE ENERGY PREDICTED BY IDOCK:   -4.67 KCAL/MOL
REMARK 924 INTRA-LIGAND FREE ENERGY PREDICTED BY IDOCK:   -0.20 KCAL/MOL
REMARK 927      BINDING AFFINITY PREDICTED BY RF-SCORE:    0.00 PKD
ROOT
HETATM    1  C   UNL     1      -8.643  15.487  66.414  1.00  0.00    -0.292 C  
HETATM    2  C   UNL     1      -9.464  15.597  67.642  1.00  0.00    -0.211 A  
HETATM    3  C   UNL     1      -9.937  14.702  68.588  1.00  0.00    -0.234 A  
HETATM    4  O   UNL     1      -9.866  16.856  67.961  1.00  0.00    -0.251 OA 
HETATM    5  C   UNL     1     -10.653  15.535  69.476  1.00  0.00    -0.258 A  
HETATM    6  N   UNL     1     -10.619  16.819  69.121  1.00  0.00    -0.335 NA 
ENDROOT
BRANCH   3   7
HETATM    7  C   UNL     1      -9.689  13.271  68.557  1.00  0.00    -0.145 C  
HETATM    8  O   UNL     1      -8.563  12.870  68.283  1.00  0.00    -0.180 OA 
HETATM    9  H   UNL     1     -11.652  12.881  69.078  1.00  0.00     0.000 HD 
HETATM   10  N   UNL     1     -10.764  12.438  68.845  1.00  0.00    -0.202 N  
BRANCH  10  11
HETATM   11  C   UNL     1     -10.722  11.019  68.841  1.00  0.00    -0.211 A  
HETATM   12  C   UNL     1     -10.761  10.253  67.672  1.00  0.00    -0.339 A  
HETATM   13  C   UNL     1     -10.747   8.858  67.708  1.00  0.00    -0.204 A  
HETATM   14  C   UNL     1     -10.689   8.179  68.925  1.00  0.00    -0.090 A  
HETATM   15  C   UNL     1     -10.697   6.672  68.952  1.00  0.00    -0.264 C  
HETATM   16  C   UNL     1     -10.632   8.936  70.108  1.00  0.00    -0.243 A  
HETATM   17  C   UNL     1     -10.649  10.342  70.065  1.00  0.00    -0.321 A  
HETATM   18  F   UNL     1      -9.571   6.151  69.511  1.00  0.00    -0.140 F  
HETATM   19  F   UNL     1     -11.741   6.169  69.669  1.00  0.00    -0.497 F  
HETATM   20  F   UNL     1     -10.793   6.107  67.715  1.00  0.00    -0.251 F  
ENDBRANCH  10  11
ENDBRANCH   3   7
TORSDOF 2
ENDMDL
MODEL      105
REMARK 921   NORMALIZED FREE ENERGY PREDICTED BY IDOCK:   -4.11 KCAL/MOL
REMARK 922        TOTAL FREE ENERGY PREDICTED BY IDOCK:   -4.86 KCAL/MOL
REMARK 923 INTER-LIGAND FREE ENERGY PREDICTED BY IDOCK:   -4.52 KCAL/MOL
REMARK 924 INTRA-LIGAND FREE ENERGY PREDICTED BY IDOCK:   -0.34 KCAL/MOL
REMARK 927      BINDING AFFINITY PREDICTED BY RF-SCORE:    0.00 PKD
ROOT
HETATM    1  C   UNL     1      -7.989   6.391  64.570  1.00  0.00    -0.117 C  
HETATM    2  C   UNL     1      -8.790   5.892  65.712  1.00  0.00    -0.139 A  
HETATM    3  C   UNL     1      -9.413   6.478  66.802  1.00  0.00    -0.188 A  
HETATM    4  O   UNL     1      -8.992   4.548  65.736  1.00  0.00    -0.123 OA 
HETATM    5  C   UNL     1      -9.987   5.371  67.467  1.00  0.00    -0.166 A  
HETATM    6  N   UNL     1      -9.749   4.216  66.847  1.00  0.00    -0.212 NA 
ENDROOT
BRANCH   3   7
HETATM    7  C   UNL     1      -9.402   7.904  67.081  1.00  0.00    -0.153 C  
HETATM    8  O   UNL     1      -8.340   8.444  67.367  1.00  0.00    -0.122 OA 
HETATM    9  H   UNL     1     -11.439   8.024  66.738  1.00  0.00     0.000 HD 
HETATM   10  N   UNL     1     -10.620   8.570  67.004  1.00  0.00    -0.290 N  
BRANCH  10  11
HETATM   11  C   UNL     1     -10.813   9.953  67.265  1.00  0.00    -0.199 A  
HETATM   12  C   UNL     1     -11.233  10.448  68.503  1.00  0.00    -0.308 A  
HETATM   13  C   UNL     1     -11.438  11.812  68.715  1.00  0.00    -0.350 A  
HETATM   14  C   UNL     1     -11.227  12.731  67.687  1.00  0.00    -0.323 A  
HETATM   15  C   UNL     1     -11.475  14.200  67.922  1.00  0.00    -0.312 C  
HETATM   16  C   UNL     1     -10.788  12.249  66.443  1.00  0.00    -0.299 A  
HETATM   17  C   UNL     1     -10.584  10.873  66.235  1.00  0.00    -0.276 A  
HETATM   18  F   UNL     1     -10.354  14.954  67.759  1.00  0.00    -0.237 F  
HETATM   19  F   UNL     1     -12.404  14.715  67.068  1.00  0.00    -0.397 F  
HETATM   20  F   UNL     1     -11.932  14.480  69.177  1.00  0.00    -0.313 F  
ENDBRANCH  10  11
ENDBRANCH   3   7
TORSDOF 2
ENDMDL
MODEL      106
REMARK 921   NORMALIZED FREE ENERGY PREDICTED BY IDOCK:   -4.11 KCAL/MOL
REMARK 922        TOTAL FREE ENERGY PREDICTED BY IDOCK:   -4.85 KCAL/MOL
REMARK 923 INTER-LIGAND FREE ENERGY PREDICTED BY IDOCK:   -4.49 KCAL/MOL
REMARK 924 INTRA-LIGAND FREE ENERGY PREDICTED BY IDOCK:   -0.36 KCAL/MOL
REMARK 927      BINDING AFFINITY PREDICTED BY RF-SCORE:    0.00 PKD
ROOT
HETATM    1  C   UNL     1      -9.735  14.945  66.110  1.00  0.00    -0.333 C  
HETATM    2  C   UNL     1     -10.797  14.101  65.516  1.00  0.00    -0.310 A  
HETATM    3  C   UNL     1     -11.351  12.867  65.817  1.00  0.00    -0.349 A  
HETATM    4  O   UNL     1     -11.406  14.621  64.417  1.00  0.00    -0.323 OA 
HETATM    5  C   UNL     1     -12.323  12.705  64.804  1.00  0.00    -0.489 A  
HETATM    6  N   UNL     1     -12.371  13.739  63.965  1.00  0.00    -0.679 NA 
ENDROOT
BRANCH   3   7
HETATM    7  C   UNL     1     -10.938  12.036  66.935  1.00  0.00    -0.281 C  
HETATM    8  O   UNL     1     -11.412  12.255  68.044  1.00  0.00    -0.275 OA 
HETATM    9  H   UNL     1      -9.703  10.926  65.701  1.00  0.00     0.000 HD 
HETATM   10  N   UNL     1     -10.017  11.030  66.666  1.00  0.00    -0.203 N  
BRANCH  10  11
HETATM   11  C   UNL     1      -9.479  10.135  67.629  1.00  0.00    -0.148 A  
HETATM   12  C   UNL     1      -9.950   8.833  67.813  1.00  0.00    -0.243 A  
HETATM   13  C   UNL     1      -9.415   7.991  68.789  1.00  0.00    -0.147 A  
HETATM   14  C   UNL     1      -8.381   8.428  69.616  1.00  0.00    -0.122 A  
HETATM   15  C   UNL     1      -7.827   7.518  70.682  1.00  0.00    -0.095 C  
HETATM   16  C   UNL     1      -7.885   9.730  69.430  1.00  0.00    -0.114 A  
HETATM   17  C   UNL     1      -8.430  10.574  68.446  1.00  0.00    -0.128 A  
HETATM   18  F   UNL     1      -6.505   7.244  70.503  1.00  0.00    -0.039 F  
HETATM   19  F   UNL     1      -7.935   8.050  71.931  1.00  0.00    -0.090 F  
HETATM   20  F   UNL     1      -8.452   6.307  70.741  1.00  0.00    -0.125 F  
ENDBRANCH  10  11
ENDBRANCH   3   7
TORSDOF 2
ENDMDL
MODEL      107
REMARK 921   NORMALIZED FREE ENERGY PREDICTED BY IDOCK:   -4.07 KCAL/MOL
REMARK 922        TOTAL FREE ENERGY PREDICTED BY IDOCK:   -4.81 KCAL/MOL
REMARK 923 INTER-LIGAND FREE ENERGY PREDICTED BY IDOCK:   -4.44 KCAL/MOL
REMARK 924 INTRA-LIGAND FREE ENERGY PREDICTED BY IDOCK:   -0.37 KCAL/MOL
REMARK 927      BINDING AFFINITY PREDICTED BY RF-SCORE:    0.00 PKD
ROOT
HETATM    1  C   UNL     1     -12.146  13.510  70.738  1.00  0.00    -0.351 C  
HETATM    2  C   UNL     1     -11.742  14.236  69.511  1.00  0.00    -0.316 A  
HETATM    3  C   UNL     1     -10.969  13.930  68.402  1.00  0.00    -0.272 A  
HETATM    4  O   UNL     1     -12.223  15.502  69.400  1.00  0.00    -0.312 OA 
HETATM    5  C   UNL     1     -11.030  15.119  67.641  1.00  0.00    -0.308 A  
HETATM    6  N   UNL     1     -11.774  16.063  68.218  1.00  0.00    -0.243 NA 
ENDROOT
BRANCH   3   7
HETATM    7  C   UNL     1     -10.305  12.655  68.194  1.00  0.00    -0.234 C  
HETATM    8  O   UNL     1      -9.156  12.511  68.597  1.00  0.00    -0.097 OA 
HETATM    9  H   UNL     1     -11.987  11.890  67.264  1.00  0.00     0.000 HD 
HETATM   10  N   UNL     1     -11.031  11.666  67.539  1.00  0.00    -0.242 N  
BRANCH  10  11
HETATM   11  C   UNL     1     -10.546  10.369  67.224  1.00  0.00    -0.267 A  
HETATM   12  C   UNL     1      -9.713  10.106  66.132  1.00  0.00    -0.275 A  
HETATM   13  C   UNL     1      -9.279   8.813  65.838  1.00  0.00    -0.282 A  
HETATM   14  C   UNL     1      -9.664   7.734  66.633  1.00  0.00    -0.292 A  
HETATM   15  C   UNL     1      -9.206   6.339  66.291  1.00  0.00    -0.145 C  
HETATM   16  C   UNL     1     -10.486   7.987  67.744  1.00  0.00    -0.280 A  
HETATM   17  C   UNL     1     -10.922   9.292  68.036  1.00  0.00    -0.076 A  
HETATM   18  F   UNL     1      -8.452   5.778  67.275  1.00  0.00    -0.108 F  
HETATM   19  F   UNL     1     -10.247   5.486  66.081  1.00  0.00    -0.198 F  
HETATM   20  F   UNL     1      -8.445   6.279  65.161  1.00  0.00    -0.144 F  
ENDBRANCH  10  11
ENDBRANCH   3   7
TORSDOF 2
ENDMDL
MODEL      108
REMARK 921   NORMALIZED FREE ENERGY PREDICTED BY IDOCK:   -4.07 KCAL/MOL
REMARK 922        TOTAL FREE ENERGY PREDICTED BY IDOCK:   -4.81 KCAL/MOL
REMARK 923 INTER-LIGAND FREE ENERGY PREDICTED BY IDOCK:   -4.48 KCAL/MOL
REMARK 924 INTRA-LIGAND FREE ENERGY PREDICTED BY IDOCK:   -0.33 KCAL/MOL
REMARK 927      BINDING AFFINITY PREDICTED BY RF-SCORE:    0.00 PKD
ROOT
HETATM    1  C   UNL     1     -10.454  14.686  68.754  1.00  0.00    -0.246 C  
HETATM    2  C   UNL     1     -10.386  14.790  67.278  1.00  0.00    -0.247 A  
HETATM    3  C   UNL     1      -9.986  13.947  66.254  1.00  0.00    -0.315 A  
HETATM    4  O   UNL     1     -10.811  15.972  66.759  1.00  0.00    -0.294 OA 
HETATM    5  C   UNL     1     -10.203  14.733  65.099  1.00  0.00    -0.377 A  
HETATM    6  N   UNL     1     -10.695  15.939  65.380  1.00  0.00    -0.396 NA 
ENDROOT
BRANCH   3   7
HETATM    7  C   UNL     1      -9.480  12.600  66.453  1.00  0.00    -0.231 C  
HETATM    8  O   UNL     1      -8.436  12.445  67.078  1.00  0.00    -0.179 OA 
HETATM    9  H   UNL     1     -11.090  11.804  65.427  1.00  0.00     0.000 HD 
HETATM   10  N   UNL     1     -10.226  11.560  65.912  1.00  0.00    -0.235 N  
BRANCH  10  11
HETATM   11  C   UNL     1      -9.882  10.184  65.982  1.00  0.00    -0.246 A  
HETATM   12  C   UNL     1      -8.926   9.589  65.154  1.00  0.00    -0.253 A  
HETATM   13  C   UNL     1      -8.633   8.227  65.233  1.00  0.00    -0.159 A  
HETATM   14  C   UNL     1      -9.292   7.410  66.152  1.00  0.00    -0.111 A  
HETATM   15  C   UNL     1      -8.984   5.936  66.211  1.00  0.00    -0.148 C  
HETATM   16  C   UNL     1     -10.244   7.998  67.002  1.00  0.00    -0.374 A  
HETATM   17  C   UNL     1     -10.535   9.371  66.917  1.00  0.00    -0.281 A  
HETATM   18  F   UNL     1      -8.490   5.551  67.419  1.00  0.00    -0.110 F  
HETATM   19  F   UNL     1     -10.085   5.164  65.991  1.00  0.00    -0.178 F  
HETATM   20  F   UNL     1      -8.062   5.536  65.289  1.00  0.00    -0.099 F  
ENDBRANCH  10  11
ENDBRANCH   3   7
TORSDOF 2
ENDMDL
MODEL      109
REMARK 921   NORMALIZED FREE ENERGY PREDICTED BY IDOCK:   -4.03 KCAL/MOL
REMARK 922        TOTAL FREE ENERGY PREDICTED BY IDOCK:   -4.76 KCAL/MOL
REMARK 923 INTER-LIGAND FREE ENERGY PREDICTED BY IDOCK:   -5.20 KCAL/MOL
REMARK 924 INTRA-LIGAND FREE ENERGY PREDICTED BY IDOCK:    0.44 KCAL/MOL
REMARK 927      BINDING AFFINITY PREDICTED BY RF-SCORE:    0.00 PKD
ROOT
HETATM    1  C   UNL     1     -13.179  11.374  71.827  1.00  0.00    -0.472 C  
HETATM    2  C   UNL     1     -12.563  12.405  70.960  1.00  0.00    -0.254 A  
HETATM    3  C   UNL     1     -11.921  12.395  69.732  1.00  0.00    -0.359 A  
HETATM    4  O   UNL     1     -12.623  13.676  71.436  1.00  0.00    -0.349 OA 
HETATM    5  C   UNL     1     -11.603  13.758  69.534  1.00  0.00    -0.297 A  
HETATM    6  N   UNL     1     -12.016  14.534  70.536  1.00  0.00    -0.298 NA 
ENDROOT
BRANCH   3   7
HETATM    7  C   UNL     1     -11.689  11.200  68.939  1.00  0.00    -0.337 C  
HETATM    8  O   UNL     1     -12.025  11.196  67.760  1.00  0.00    -0.630 OA 
HETATM    9  H   UNL     1     -10.834  10.244  70.562  1.00  0.00     0.000 HD 
HETATM   10  N   UNL     1     -11.090  10.123  69.582  1.00  0.00    -0.249 N  
BRANCH  10  11
HETATM   11  C   UNL     1     -10.806   8.867  68.982  1.00  0.00    -0.046 A  
HETATM   12  C   UNL     1     -10.520   7.713  69.718  1.00  0.00    -0.232 A  
HETATM   13  C   UNL     1     -10.218   6.503  69.092  1.00  0.00    -0.208 A  
HETATM   14  C   UNL     1     -10.195   6.407  67.701  1.00  0.00    -0.206 A  
HETATM   15  C   UNL     1      -9.845   5.099  67.038  1.00  0.00    -0.177 C  
HETATM   16  C   UNL     1     -10.497   7.555  66.950  1.00  0.00    -0.385 A  
HETATM   17  C   UNL     1     -10.799   8.773  67.585  1.00  0.00    -0.092 A  
HETATM   18  F   UNL     1     -10.855   4.615  66.265  1.00  0.00    -0.314 F  
HETATM   19  F   UNL     1      -8.761   5.203  66.220  1.00  0.00    -0.114 F  
HETATM   20  F   UNL     1      -9.545   4.105  67.923  1.00  0.00    -0.180 F  
ENDBRANCH  10  11
ENDBRANCH   3   7
TORSDOF 2
ENDMDL
MODEL      110
REMARK 921   NORMALIZED FREE ENERGY PREDICTED BY IDOCK:   -4.01 KCAL/MOL
REMARK 922        TOTAL FREE ENERGY PREDICTED BY IDOCK:   -4.74 KCAL/MOL
REMARK 923 INTER-LIGAND FREE ENERGY PREDICTED BY IDOCK:   -4.50 KCAL/MOL
REMARK 924 INTRA-LIGAND FREE ENERGY PREDICTED BY IDOCK:   -0.24 KCAL/MOL
REMARK 927      BINDING AFFINITY PREDICTED BY RF-SCORE:    0.00 PKD
ROOT
HETATM    1  C   UNL     1     -11.817  14.880  67.399  1.00  0.00    -0.245 C  
HETATM    2  C   UNL     1     -11.982  14.095  68.644  1.00  0.00    -0.338 A  
HETATM    3  C   UNL     1     -11.784  12.770  69.000  1.00  0.00    -0.371 A  
HETATM    4  O   UNL     1     -12.423  14.798  69.720  1.00  0.00    -0.277 OA 
HETATM    5  C   UNL     1     -12.153  12.755  70.364  1.00  0.00    -0.302 A  
HETATM    6  N   UNL     1     -12.533  13.952  70.810  1.00  0.00    -0.357 NA 
ENDROOT
BRANCH   3   7
HETATM    7  C   UNL     1     -11.309  11.741  68.092  1.00  0.00    -0.284 C  
HETATM    8  O   UNL     1     -11.992  10.736  67.926  1.00  0.00    -0.518 OA 
HETATM    9  H   UNL     1      -9.618  12.850  67.660  1.00  0.00     0.000 HD 
HETATM   10  N   UNL     1     -10.092  11.969  67.461  1.00  0.00    -0.194 N  
BRANCH  10  11
HETATM   11  C   UNL     1      -9.456  11.072  66.562  1.00  0.00    -0.187 A  
HETATM   12  C   UNL     1      -8.369  10.269  66.920  1.00  0.00    -0.123 A  
HETATM   13  C   UNL     1      -7.752   9.419  66.000  1.00  0.00    -0.099 A  
HETATM   14  C   UNL     1      -8.208   9.344  64.684  1.00  0.00    -0.148 A  
HETATM   15  C   UNL     1      -7.518   8.440  63.695  1.00  0.00    -0.117 C  
HETATM   16  C   UNL     1      -9.310  10.133  64.316  1.00  0.00    -0.349 A  
HETATM   17  C   UNL     1      -9.927  10.989  65.246  1.00  0.00    -0.320 A  
HETATM   18  F   UNL     1      -8.343   7.477  63.201  1.00  0.00    -0.119 F  
HETATM   19  F   UNL     1      -7.040   9.118  62.614  1.00  0.00    -0.098 F  
HETATM   20  F   UNL     1      -6.446   7.778  64.219  1.00  0.00    -0.053 F  
ENDBRANCH  10  11
ENDBRANCH   3   7
TORSDOF 2
ENDMDL
MODEL      111
REMARK 921   NORMALIZED FREE ENERGY PREDICTED BY IDOCK:   -3.99 KCAL/MOL
REMARK 922        TOTAL FREE ENERGY PREDICTED BY IDOCK:   -4.73 KCAL/MOL
REMARK 923 INTER-LIGAND FREE ENERGY PREDICTED BY IDOCK:   -4.92 KCAL/MOL
REMARK 924 INTRA-LIGAND FREE ENERGY PREDICTED BY IDOCK:    0.19 KCAL/MOL
REMARK 927      BINDING AFFINITY PREDICTED BY RF-SCORE:    0.00 PKD
ROOT
HETATM    1  C   UNL     1      -5.561   8.523  64.097  1.00  0.00    -0.064 C  
HETATM    2  C   UNL     1      -6.583   7.533  64.507  1.00  0.00    -0.044 A  
HETATM    3  C   UNL     1      -7.849   7.607  65.065  1.00  0.00    -0.126 A  
HETATM    4  O   UNL     1      -6.249   6.232  64.299  1.00  0.00    -0.029 OA 
HETATM    5  C   UNL     1      -8.222   6.248  65.175  1.00  0.00    -0.138 A  
HETATM    6  N   UNL     1      -7.284   5.417  64.722  1.00  0.00    -0.060 NA 
ENDROOT
BRANCH   3   7
HETATM    7  C   UNL     1      -8.520   8.848  65.412  1.00  0.00    -0.160 C  
HETATM    8  O   UNL     1      -8.368   9.310  66.537  1.00  0.00    -0.122 OA 
HETATM    9  H   UNL     1      -9.342   8.975  63.518  1.00  0.00     0.000 HD 
HETATM   10  N   UNL     1      -9.303   9.438  64.426  1.00  0.00    -0.073 N  
BRANCH  10  11
HETATM   11  C   UNL     1     -10.051  10.634  64.583  1.00  0.00    -0.349 A  
HETATM   12  C   UNL     1     -10.345  11.499  63.526  1.00  0.00    -0.484 A  
HETATM   13  C   UNL     1     -11.060  12.682  63.723  1.00  0.00    -0.504 A  
HETATM   14  C   UNL     1     -11.509  13.038  64.995  1.00  0.00    -0.345 A  
HETATM   15  C   UNL     1     -12.260  14.329  65.199  1.00  0.00    -0.421 C  
HETATM   16  C   UNL     1     -11.235  12.169  66.064  1.00  0.00    -0.382 A  
HETATM   17  C   UNL     1     -10.513  10.979  65.860  1.00  0.00    -0.300 A  
HETATM   18  F   UNL     1     -13.520  14.133  65.673  1.00  0.00    -0.483 F  
HETATM   19  F   UNL     1     -11.645  15.154  66.092  1.00  0.00    -0.326 F  
HETATM   20  F   UNL     1     -12.402  15.061  64.057  1.00  0.00    -0.508 F  
ENDBRANCH  10  11
ENDBRANCH   3   7
TORSDOF 2
ENDMDL
MODEL      112
REMARK 921   NORMALIZED FREE ENERGY PREDICTED BY IDOCK:   -3.99 KCAL/MOL
REMARK 922        TOTAL FREE ENERGY PREDICTED BY IDOCK:   -4.72 KCAL/MOL
REMARK 923 INTER-LIGAND FREE ENERGY PREDICTED BY IDOCK:   -4.35 KCAL/MOL
REMARK 924 INTRA-LIGAND FREE ENERGY PREDICTED BY IDOCK:   -0.37 KCAL/MOL
REMARK 927      BINDING AFFINITY PREDICTED BY RF-SCORE:    0.00 PKD
ROOT
HETATM    1  C   UNL     1     -12.344  11.982  70.990  1.00  0.00    -0.340 C  
HETATM    2  C   UNL     1     -12.496  10.530  71.241  1.00  0.00    -0.419 A  
HETATM    3  C   UNL     1     -11.860   9.385  70.787  1.00  0.00    -0.323 A  
HETATM    4  O   UNL     1     -13.473  10.192  72.123  1.00  0.00    -0.411 OA 
HETATM    5  C   UNL     1     -12.549   8.355  71.466  1.00  0.00    -0.308 A  
HETATM    6  N   UNL     1     -13.509   8.816  72.266  1.00  0.00    -0.411 NA 
ENDROOT
BRANCH   3   7
HETATM    7  C   UNL     1     -10.762   9.382  69.836  1.00  0.00    -0.234 C  
HETATM    8  O   UNL     1      -9.612   9.404  70.258  1.00  0.00    -0.214 OA 
HETATM    9  H   UNL     1     -12.088   9.317  68.249  1.00  0.00     0.000 HD 
HETATM   10  N   UNL     1     -11.097   9.353  68.487  1.00  0.00    -0.015 N  
BRANCH  10  11
HETATM   11  C   UNL     1     -10.167   9.369  67.413  1.00  0.00    -0.239 A  
HETATM   12  C   UNL     1      -9.730   8.213  66.760  1.00  0.00    -0.303 A  
HETATM   13  C   UNL     1      -8.793   8.265  65.727  1.00  0.00    -0.194 A  
HETATM   14  C   UNL     1      -8.262   9.485  65.309  1.00  0.00    -0.131 A  
HETATM   15  C   UNL     1      -7.234   9.526  64.207  1.00  0.00    -0.115 C  
HETATM   16  C   UNL     1      -8.706  10.657  65.945  1.00  0.00    -0.186 A  
HETATM   17  C   UNL     1      -9.649  10.598  66.987  1.00  0.00    -0.196 A  
HETATM   18  F   UNL     1      -7.652  10.238  63.126  1.00  0.00    -0.140 F  
HETATM   19  F   UNL     1      -6.065  10.100  64.606  1.00  0.00    -0.094 F  
HETATM   20  F   UNL     1      -6.897   8.293  63.733  1.00  0.00    -0.073 F  
ENDBRANCH  10  11
ENDBRANCH   3   7
TORSDOF 2
ENDMDL
MODEL      113
REMARK 921   NORMALIZED FREE ENERGY PREDICTED BY IDOCK:   -3.94 KCAL/MOL
REMARK 922        TOTAL FREE ENERGY PREDICTED BY IDOCK:   -4.66 KCAL/MOL
REMARK 923 INTER-LIGAND FREE ENERGY PREDICTED BY IDOCK:   -4.29 KCAL/MOL
REMARK 924 INTRA-LIGAND FREE ENERGY PREDICTED BY IDOCK:   -0.37 KCAL/MOL
REMARK 927      BINDING AFFINITY PREDICTED BY RF-SCORE:    0.00 PKD
ROOT
HETATM    1  C   UNL     1      -7.303   8.498  65.106  1.00  0.00    -0.081 C  
HETATM    2  C   UNL     1      -8.477   9.400  65.055  1.00  0.00    -0.159 A  
HETATM    3  C   UNL     1      -9.645   9.530  65.789  1.00  0.00    -0.337 A  
HETATM    4  O   UNL     1      -8.442  10.344  64.077  1.00  0.00    -0.170 OA 
HETATM    5  C   UNL     1     -10.291  10.617  65.157  1.00  0.00    -0.261 A  
HETATM    6  N   UNL     1      -9.589  11.114  64.139  1.00  0.00    -0.247 NA 
ENDROOT
BRANCH   3   7
HETATM    7  C   UNL     1     -10.003   8.685  66.914  1.00  0.00    -0.260 C  
HETATM    8  O   UNL     1     -10.738   7.722  66.723  1.00  0.00    -0.311 OA 
HETATM    9  H   UNL     1      -8.862   9.843  68.194  1.00  0.00     0.000 HD 
HETATM   10  N   UNL     1      -9.479   9.031  68.154  1.00  0.00    -0.142 N  
BRANCH  10  11
HETATM   11  C   UNL     1      -9.733   8.344  69.371  1.00  0.00    -0.177 A  
HETATM   12  C   UNL     1      -8.887   7.357  69.886  1.00  0.00    -0.141 A  
HETATM   13  C   UNL     1      -9.184   6.683  71.071  1.00  0.00    -0.160 A  
HETATM   14  C   UNL     1     -10.346   6.978  71.785  1.00  0.00    -0.216 A  
HETATM   15  C   UNL     1     -10.667   6.226  73.051  1.00  0.00    -0.253 C  
HETATM   16  C   UNL     1     -11.197   7.979  71.288  1.00  0.00    -0.287 A  
HETATM   17  C   UNL     1     -10.893   8.654  70.092  1.00  0.00    -0.242 A  
HETATM   18  F   UNL     1     -10.736   7.039  74.141  1.00  0.00    -0.390 F  
HETATM   19  F   UNL     1     -11.865   5.581  72.985  1.00  0.00    -0.313 F  
HETATM   20  F   UNL     1      -9.748   5.267  73.362  1.00  0.00    -0.142 F  
ENDBRANCH  10  11
ENDBRANCH   3   7
TORSDOF 2
ENDMDL
MODEL      114
REMARK 921   NORMALIZED FREE ENERGY PREDICTED BY IDOCK:   -3.91 KCAL/MOL
REMARK 922        TOTAL FREE ENERGY PREDICTED BY IDOCK:   -4.63 KCAL/MOL
REMARK 923 INTER-LIGAND FREE ENERGY PREDICTED BY IDOCK:   -4.62 KCAL/MOL
REMARK 924 INTRA-LIGAND FREE ENERGY PREDICTED BY IDOCK:   -0.01 KCAL/MOL
REMARK 927      BINDING AFFINITY PREDICTED BY RF-SCORE:    0.00 PKD
ROOT
HETATM    1  C   UNL     1      -8.065   7.440  64.788  1.00  0.00    -0.104 C  
HETATM    2  C   UNL     1      -9.103   7.495  65.842  1.00  0.00    -0.039 A  
HETATM    3  C   UNL     1      -9.816   8.508  66.464  1.00  0.00    -0.342 A  
HETATM    4  O   UNL     1      -9.485   6.291  66.345  1.00  0.00    -0.156 OA 
HETATM    5  C   UNL     1     -10.635   7.801  67.374  1.00  0.00    -0.275 A  
HETATM    6  N   UNL     1     -10.453   6.482  67.315  1.00  0.00    -0.231 NA 
ENDROOT
BRANCH   3   7
HETATM    7  C   UNL     1      -9.661   9.920  66.163  1.00  0.00    -0.236 C  
HETATM    8  O   UNL     1      -8.726  10.278  65.457  1.00  0.00    -0.149 OA 
HETATM    9  H   UNL     1     -11.351  10.377  67.266  1.00  0.00     0.000 HD 
HETATM   10  N   UNL     1     -10.603  10.787  66.707  1.00  0.00    -0.255 N  
BRANCH  10  11
HETATM   11  C   UNL     1     -10.605  12.198  66.546  1.00  0.00    -0.237 A  
HETATM   12  C   UNL     1     -11.190  12.844  65.453  1.00  0.00    -0.314 A  
HETATM   13  C   UNL     1     -11.148  14.232  65.314  1.00  0.00    -0.335 A  
HETATM   14  C   UNL     1     -10.516  15.024  66.273  1.00  0.00    -0.309 A  
HETATM   15  C   UNL     1     -10.457  16.521  66.099  1.00  0.00    -0.294 C  
HETATM   16  C   UNL     1      -9.939  14.389  67.385  1.00  0.00    -0.242 A  
HETATM   17  C   UNL     1      -9.983  12.990  67.519  1.00  0.00    -0.212 A  
HETATM   18  F   UNL     1     -11.084  17.190  67.105  1.00  0.00    -0.193 F  
HETATM   19  F   UNL     1      -9.180  16.993  66.072  1.00  0.00    -0.284 F  
HETATM   20  F   UNL     1     -11.037  16.957  64.945  1.00  0.00    -0.414 F  
ENDBRANCH  10  11
ENDBRANCH   3   7
TORSDOF 2
ENDMDL
MODEL      115
REMARK 921   NORMALIZED FREE ENERGY PREDICTED BY IDOCK:   -3.89 KCAL/MOL
REMARK 922        TOTAL FREE ENERGY PREDICTED BY IDOCK:   -4.61 KCAL/MOL
REMARK 923 INTER-LIGAND FREE ENERGY PREDICTED BY IDOCK:   -4.23 KCAL/MOL
REMARK 924 INTRA-LIGAND FREE ENERGY PREDICTED BY IDOCK:   -0.38 KCAL/MOL
REMARK 927      BINDING AFFINITY PREDICTED BY RF-SCORE:    0.00 PKD
ROOT
HETATM    1  C   UNL     1      -5.699  12.389  67.663  1.00  0.00    -0.124 C  
HETATM    2  C   UNL     1      -6.010  11.440  66.568  1.00  0.00    -0.130 A  
HETATM    3  C   UNL     1      -7.019  10.521  66.326  1.00  0.00    -0.128 A  
HETATM    4  O   UNL     1      -5.131  11.440  65.532  1.00  0.00    -0.297 OA 
HETATM    5  C   UNL     1      -6.653   9.980  65.073  1.00  0.00    -0.124 A  
HETATM    6  N   UNL     1      -5.535  10.516  64.585  1.00  0.00    -0.142 NA 
ENDROOT
BRANCH   3   7
HETATM    7  C   UNL     1      -8.129  10.268  67.228  1.00  0.00    -0.120 C  
HETATM    8  O   UNL     1      -9.157  10.923  67.102  1.00  0.00    -0.144 OA 
HETATM    9  H   UNL     1      -7.056   8.784  68.191  1.00  0.00     0.000 HD 
HETATM   10  N   UNL     1      -7.947   9.281  68.190  1.00  0.00    -0.099 N  
BRANCH  10  11
HETATM   11  C   UNL     1      -8.904   8.908  69.171  1.00  0.00    -0.136 A  
HETATM   12  C   UNL     1      -9.941   8.005  68.925  1.00  0.00    -0.199 A  
HETATM   13  C   UNL     1     -10.880   7.683  69.907  1.00  0.00    -0.241 A  
HETATM   14  C   UNL     1     -10.810   8.259  71.175  1.00  0.00    -0.276 A  
HETATM   15  C   UNL     1     -11.844   7.922  72.219  1.00  0.00    -0.352 C  
HETATM   16  C   UNL     1      -9.761   9.157  71.440  1.00  0.00    -0.338 A  
HETATM   17  C   UNL     1      -8.818   9.478  70.447  1.00  0.00    -0.279 A  
HETATM   18  F   UNL     1     -11.304   7.335  73.321  1.00  0.00    -0.320 F  
HETATM   19  F   UNL     1     -12.511   9.022  72.666  1.00  0.00    -0.425 F  
HETATM   20  F   UNL     1     -12.805   7.063  71.773  1.00  0.00    -0.356 F  
ENDBRANCH  10  11
ENDBRANCH   3   7
TORSDOF 2
ENDMDL
MODEL      116
REMARK 921   NORMALIZED FREE ENERGY PREDICTED BY IDOCK:   -3.88 KCAL/MOL
REMARK 922        TOTAL FREE ENERGY PREDICTED BY IDOCK:   -4.59 KCAL/MOL
REMARK 923 INTER-LIGAND FREE ENERGY PREDICTED BY IDOCK:   -4.57 KCAL/MOL
REMARK 924 INTRA-LIGAND FREE ENERGY PREDICTED BY IDOCK:   -0.02 KCAL/MOL
REMARK 927      BINDING AFFINITY PREDICTED BY RF-SCORE:    0.00 PKD
ROOT
HETATM    1  C   UNL     1      -8.857  10.141  68.956  1.00  0.00    -0.166 C  
HETATM    2  C   UNL     1      -7.593  10.852  69.260  1.00  0.00    -0.113 A  
HETATM    3  C   UNL     1      -7.097  12.120  69.004  1.00  0.00    -0.062 A  
HETATM    4  O   UNL     1      -6.675  10.133  69.958  1.00  0.00    -0.092 OA 
HETATM    5  C   UNL     1      -5.816  12.081  69.600  1.00  0.00    -0.106 A  
HETATM    6  N   UNL     1      -5.550  10.908  70.174  1.00  0.00    -0.068 NA 
ENDROOT
BRANCH   3   7
HETATM    7  C   UNL     1      -7.821  13.152  68.282  1.00  0.00    -0.143 C  
HETATM    8  O   UNL     1      -8.382  12.859  67.232  1.00  0.00    -0.178 OA 
HETATM    9  H   UNL     1      -7.345  14.551  69.729  1.00  0.00     0.000 HD 
HETATM   10  N   UNL     1      -7.830  14.425  68.841  1.00  0.00    -0.136 N  
BRANCH  10  11
HETATM   11  C   UNL     1      -8.460  15.563  68.272  1.00  0.00    -0.156 A  
HETATM   12  C   UNL     1      -9.435  16.312  68.937  1.00  0.00    -0.252 A  
HETATM   13  C   UNL     1     -10.054  17.409  68.336  1.00  0.00    -0.347 A  
HETATM   14  C   UNL     1      -9.712  17.796  67.040  1.00  0.00    -0.290 A  
HETATM   15  C   UNL     1     -10.403  18.969  66.393  1.00  0.00    -0.448 C  
HETATM   16  C   UNL     1      -8.721  17.063  66.366  1.00  0.00    -0.308 A  
HETATM   17  C   UNL     1      -8.102  15.957  66.977  1.00  0.00    -0.265 A  
HETATM   18  F   UNL     1      -9.543  19.974  66.073  1.00  0.00    -0.436 F  
HETATM   19  F   UNL     1     -11.033  18.628  65.234  1.00  0.00    -0.463 F  
HETATM   20  F   UNL     1     -11.361  19.537  67.181  1.00  0.00    -0.540 F  
ENDBRANCH  10  11
ENDBRANCH   3   7
TORSDOF 2
ENDMDL
MODEL      117
REMARK 921   NORMALIZED FREE ENERGY PREDICTED BY IDOCK:   -3.87 KCAL/MOL
REMARK 922        TOTAL FREE ENERGY PREDICTED BY IDOCK:   -4.59 KCAL/MOL
REMARK 923 INTER-LIGAND FREE ENERGY PREDICTED BY IDOCK:   -4.27 KCAL/MOL
REMARK 924 INTRA-LIGAND FREE ENERGY PREDICTED BY IDOCK:   -0.32 KCAL/MOL
REMARK 927      BINDING AFFINITY PREDICTED BY RF-SCORE:    0.00 PKD
ROOT
HETATM    1  C   UNL     1     -13.085  11.447  71.881  1.00  0.00    -0.505 C  
HETATM    2  C   UNL     1     -13.158   9.968  71.838  1.00  0.00    -0.460 A  
HETATM    3  C   UNL     1     -12.341   8.961  71.350  1.00  0.00    -0.368 A  
HETATM    4  O   UNL     1     -14.268   9.425  72.404  1.00  0.00    -0.338 OA 
HETATM    5  C   UNL     1     -13.066   7.790  71.668  1.00  0.00    -0.345 A  
HETATM    6  N   UNL     1     -14.212   8.046  72.297  1.00  0.00    -0.253 NA 
ENDROOT
BRANCH   3   7
HETATM    7  C   UNL     1     -11.069   9.188  70.687  1.00  0.00    -0.265 C  
HETATM    8  O   UNL     1     -10.038   9.145  71.349  1.00  0.00    -0.305 OA 
HETATM    9  H   UNL     1     -12.020   9.436  68.867  1.00  0.00     0.000 HD 
HETATM   10  N   UNL     1     -11.107   9.443  69.321  1.00  0.00    -0.114 N  
BRANCH  10  11
HETATM   11  C   UNL     1      -9.974   9.711  68.507  1.00  0.00    -0.165 A  
HETATM   12  C   UNL     1      -9.224  10.887  68.601  1.00  0.00    -0.187 A  
HETATM   13  C   UNL     1      -8.132  11.128  67.766  1.00  0.00    -0.117 A  
HETATM   14  C   UNL     1      -7.753  10.193  66.803  1.00  0.00    -0.105 A  
HETATM   15  C   UNL     1      -6.586  10.476  65.891  1.00  0.00    -0.129 C  
HETATM   16  C   UNL     1      -8.487   8.999  66.710  1.00  0.00    -0.121 A  
HETATM   17  C   UNL     1      -9.587   8.762  67.554  1.00  0.00    -0.192 A  
HETATM   18  F   UNL     1      -5.581   9.569  66.028  1.00  0.00    -0.044 F  
HETATM   19  F   UNL     1      -6.936  10.454  64.575  1.00  0.00    -0.137 F  
HETATM   20  F   UNL     1      -6.016  11.697  66.101  1.00  0.00    -0.123 F  
ENDBRANCH  10  11
ENDBRANCH   3   7
TORSDOF 2
ENDMDL
MODEL      118
REMARK 921   NORMALIZED FREE ENERGY PREDICTED BY IDOCK:   -3.87 KCAL/MOL
REMARK 922        TOTAL FREE ENERGY PREDICTED BY IDOCK:   -4.59 KCAL/MOL
REMARK 923 INTER-LIGAND FREE ENERGY PREDICTED BY IDOCK:   -4.26 KCAL/MOL
REMARK 924 INTRA-LIGAND FREE ENERGY PREDICTED BY IDOCK:   -0.33 KCAL/MOL
REMARK 927      BINDING AFFINITY PREDICTED BY RF-SCORE:    0.00 PKD
ROOT
HETATM    1  C   UNL     1      -7.176   7.721  64.342  1.00  0.00    -0.078 C  
HETATM    2  C   UNL     1      -8.190   8.789  64.192  1.00  0.00    -0.162 A  
HETATM    3  C   UNL     1      -9.053   9.449  65.053  1.00  0.00    -0.271 A  
HETATM    4  O   UNL     1      -8.343   9.273  62.931  1.00  0.00    -0.168 OA 
HETATM    5  C   UNL     1      -9.725  10.348  64.194  1.00  0.00    -0.324 A  
HETATM    6  N   UNL     1      -9.314  10.259  62.930  1.00  0.00    -0.297 NA 
ENDROOT
BRANCH   3   7
HETATM    7  C   UNL     1      -9.148   9.184  66.478  1.00  0.00    -0.156 C  
HETATM    8  O   UNL     1      -8.274   9.615  67.222  1.00  0.00    -0.113 OA 
HETATM    9  H   UNL     1     -10.921   8.154  66.206  1.00  0.00     0.000 HD 
HETATM   10  N   UNL     1     -10.244   8.446  66.910  1.00  0.00    -0.294 N  
BRANCH  10  11
HETATM   11  C   UNL     1     -10.496   8.067  68.256  1.00  0.00    -0.161 A  
HETATM   12  C   UNL     1     -10.952   8.959  69.231  1.00  0.00    -0.026 A  
HETATM   13  C   UNL     1     -11.163   8.557  70.550  1.00  0.00    -0.262 A  
HETATM   14  C   UNL     1     -10.923   7.239  70.939  1.00  0.00    -0.275 A  
HETATM   15  C   UNL     1     -11.132   6.823  72.373  1.00  0.00    -0.257 C  
HETATM   16  C   UNL     1     -10.480   6.328  69.966  1.00  0.00    -0.274 A  
HETATM   17  C   UNL     1     -10.269   6.739  68.637  1.00  0.00    -0.184 A  
HETATM   18  F   UNL     1     -12.080   5.856  72.506  1.00  0.00    -0.340 F  
HETATM   19  F   UNL     1     -10.000   6.321  72.940  1.00  0.00    -0.165 F  
HETATM   20  F   UNL     1     -11.528   7.846  73.183  1.00  0.00    -0.450 F  
ENDBRANCH  10  11
ENDBRANCH   3   7
TORSDOF 2
ENDMDL
MODEL      119
REMARK 921   NORMALIZED FREE ENERGY PREDICTED BY IDOCK:   -3.86 KCAL/MOL
REMARK 922        TOTAL FREE ENERGY PREDICTED BY IDOCK:   -4.58 KCAL/MOL
REMARK 923 INTER-LIGAND FREE ENERGY PREDICTED BY IDOCK:   -4.54 KCAL/MOL
REMARK 924 INTRA-LIGAND FREE ENERGY PREDICTED BY IDOCK:   -0.04 KCAL/MOL
REMARK 927      BINDING AFFINITY PREDICTED BY RF-SCORE:    0.00 PKD
ROOT
HETATM    1  C   UNL     1     -13.145  13.800  71.862  1.00  0.00    -0.474 C  
HETATM    2  C   UNL     1     -12.497  14.096  70.564  1.00  0.00    -0.361 A  
HETATM    3  C   UNL     1     -11.760  13.363  69.647  1.00  0.00    -0.375 A  
HETATM    4  O   UNL     1     -12.634  15.375  70.123  1.00  0.00    -0.364 OA 
HETATM    5  C   UNL     1     -11.473  14.316  68.643  1.00  0.00    -0.296 A  
HETATM    6  N   UNL     1     -11.987  15.516  68.909  1.00  0.00    -0.328 NA 
ENDROOT
BRANCH   3   7
HETATM    7  C   UNL     1     -11.429  11.957  69.800  1.00  0.00    -0.229 C  
HETATM    8  O   UNL     1     -12.077  11.277  70.588  1.00  0.00    -0.355 OA 
HETATM    9  H   UNL     1      -9.923  12.121  68.391  1.00  0.00     0.000 HD 
HETATM   10  N   UNL     1     -10.381  11.469  69.028  1.00  0.00    -0.165 N  
BRANCH  10  11
HETATM   11  C   UNL     1      -9.897  10.134  69.057  1.00  0.00    -0.205 A  
HETATM   12  C   UNL     1      -8.825   9.724  69.855  1.00  0.00    -0.248 A  
HETATM   13  C   UNL     1      -8.359   8.408  69.837  1.00  0.00    -0.124 A  
HETATM   14  C   UNL     1      -8.957   7.454  69.014  1.00  0.00    -0.131 A  
HETATM   15  C   UNL     1      -8.430   6.042  68.986  1.00  0.00    -0.117 C  
HETATM   16  C   UNL     1     -10.047   7.848  68.220  1.00  0.00    -0.225 A  
HETATM   17  C   UNL     1     -10.511   9.176  68.242  1.00  0.00    -0.254 A  
HETATM   18  F   UNL     1      -9.356   5.128  69.385  1.00  0.00    -0.129 F  
HETATM   19  F   UNL     1      -8.034   5.658  67.741  1.00  0.00    -0.094 F  
HETATM   20  F   UNL     1      -7.347   5.850  69.793  1.00  0.00    -0.066 F  
ENDBRANCH  10  11
ENDBRANCH   3   7
TORSDOF 2
ENDMDL
MODEL      120
REMARK 921   NORMALIZED FREE ENERGY PREDICTED BY IDOCK:   -3.84 KCAL/MOL
REMARK 922        TOTAL FREE ENERGY PREDICTED BY IDOCK:   -4.56 KCAL/MOL
REMARK 923 INTER-LIGAND FREE ENERGY PREDICTED BY IDOCK:   -4.26 KCAL/MOL
REMARK 924 INTRA-LIGAND FREE ENERGY PREDICTED BY IDOCK:   -0.30 KCAL/MOL
REMARK 927      BINDING AFFINITY PREDICTED BY RF-SCORE:    0.00 PKD
ROOT
HETATM    1  C   UNL     1     -11.242  13.136  68.287  1.00  0.00    -0.307 C  
HETATM    2  C   UNL     1     -12.076  13.359  69.490  1.00  0.00    -0.278 A  
HETATM    3  C   UNL     1     -12.624  12.543  70.467  1.00  0.00    -0.177 A  
HETATM    4  O   UNL     1     -12.400  14.655  69.740  1.00  0.00    -0.311 OA 
HETATM    5  C   UNL     1     -13.300  13.464  71.300  1.00  0.00    -0.109 A  
HETATM    6  N   UNL     1     -13.175  14.724  70.884  1.00  0.00    -0.372 NA 
ENDROOT
BRANCH   3   7
HETATM    7  C   UNL     1     -12.470  11.100  70.509  1.00  0.00    -0.327 C  
HETATM    8  O   UNL     1     -12.843  10.435  69.549  1.00  0.00    -0.044 OA 
HETATM    9  H   UNL     1     -11.608  11.210  72.386  1.00  0.00     0.000 HD 
HETATM   10  N   UNL     1     -11.899  10.560  71.656  1.00  0.00    -0.046 N  
BRANCH  10  11
HETATM   11  C   UNL     1     -11.689   9.175  71.890  1.00  0.00    -0.366 A  
HETATM   12  C   UNL     1     -12.702   8.306  72.307  1.00  0.00    -0.338 A  
HETATM   13  C   UNL     1     -12.451   6.955  72.555  1.00  0.00     0.190 A  
HETATM   14  C   UNL     1     -11.171   6.427  72.390  1.00  0.00    -0.313 A  
HETATM   15  C   UNL     1     -10.909   4.972  72.683  1.00  0.00    -0.226 C  
HETATM   16  C   UNL     1     -10.148   7.286  71.955  1.00  0.00    -0.207 A  
HETATM   17  C   UNL     1     -10.405   8.647  71.708  1.00  0.00    -0.386 A  
HETATM   18  F   UNL     1     -10.474   4.287  71.591  1.00  0.00    -0.232 F  
HETATM   19  F   UNL     1      -9.957   4.796  73.642  1.00  0.00    -0.144 F  
HETATM   20  F   UNL     1     -12.010   4.301  73.129  1.00  0.00    -0.265 F  
ENDBRANCH  10  11
ENDBRANCH   3   7
TORSDOF 2
ENDMDL
MODEL      121
REMARK 921   NORMALIZED FREE ENERGY PREDICTED BY IDOCK:   -3.83 KCAL/MOL
REMARK 922        TOTAL FREE ENERGY PREDICTED BY IDOCK:   -4.54 KCAL/MOL
REMARK 923 INTER-LIGAND FREE ENERGY PREDICTED BY IDOCK:   -4.28 KCAL/MOL
REMARK 924 INTRA-LIGAND FREE ENERGY PREDICTED BY IDOCK:   -0.26 KCAL/MOL
REMARK 927      BINDING AFFINITY PREDICTED BY RF-SCORE:    0.00 PKD
ROOT
HETATM    1  C   UNL     1      -9.718  11.868  63.606  1.00  0.00    -0.266 C  
HETATM    2  C   UNL     1     -10.027  11.262  64.921  1.00  0.00    -0.274 A  
HETATM    3  C   UNL     1     -10.145  11.740  66.217  1.00  0.00    -0.248 A  
HETATM    4  O   UNL     1     -10.265   9.924  64.903  1.00  0.00    -0.176 OA 
HETATM    5  C   UNL     1     -10.460  10.575  66.952  1.00  0.00    -0.246 A  
HETATM    6  N   UNL     1     -10.539   9.487  66.187  1.00  0.00     0.010 NA 
ENDROOT
BRANCH   3   7
HETATM    7  C   UNL     1      -9.959  13.130  66.596  1.00  0.00    -0.270 C  
HETATM    8  O   UNL     1     -10.942  13.858  66.682  1.00  0.00    -0.297 OA 
HETATM    9  H   UNL     1      -7.916  12.851  66.759  1.00  0.00     0.000 HD 
HETATM   10  N   UNL     1      -8.656  13.548  66.841  1.00  0.00    -0.153 N  
BRANCH  10  11
HETATM   11  C   UNL     1      -8.275  14.868  67.199  1.00  0.00    -0.215 A  
HETATM   12  C   UNL     1      -8.482  15.977  66.372  1.00  0.00    -0.363 A  
HETATM   13  C   UNL     1      -8.068  17.256  66.746  1.00  0.00    -0.280 A  
HETATM   14  C   UNL     1      -7.432  17.470  67.968  1.00  0.00    -0.214 A  
HETATM   15  C   UNL     1      -6.969  18.853  68.349  1.00  0.00    -0.254 C  
HETATM   16  C   UNL     1      -7.233  16.367  68.816  1.00  0.00    -0.191 A  
HETATM   17  C   UNL     1      -7.650  15.080  68.434  1.00  0.00    -0.115 A  
HETATM   18  F   UNL     1      -7.570  19.314  69.480  1.00  0.00    -0.309 F  
HETATM   19  F   UNL     1      -5.629  18.908  68.586  1.00  0.00    -0.188 F  
HETATM   20  F   UNL     1      -7.214  19.791  67.390  1.00  0.00    -0.232 F  
ENDBRANCH  10  11
ENDBRANCH   3   7
TORSDOF 2
ENDMDL
MODEL      122
REMARK 921   NORMALIZED FREE ENERGY PREDICTED BY IDOCK:   -3.81 KCAL/MOL
REMARK 922        TOTAL FREE ENERGY PREDICTED BY IDOCK:   -4.52 KCAL/MOL
REMARK 923 INTER-LIGAND FREE ENERGY PREDICTED BY IDOCK:   -4.14 KCAL/MOL
REMARK 924 INTRA-LIGAND FREE ENERGY PREDICTED BY IDOCK:   -0.38 KCAL/MOL
REMARK 927      BINDING AFFINITY PREDICTED BY RF-SCORE:    0.00 PKD
ROOT
HETATM    1  C   UNL     1     -11.952  12.750  70.879  1.00  0.00     0.049 C  
HETATM    2  C   UNL     1     -11.982  13.982  70.057  1.00  0.00    -0.339 A  
HETATM    3  C   UNL     1     -11.433  14.362  68.842  1.00  0.00    -0.319 A  
HETATM    4  O   UNL     1     -12.711  15.007  70.571  1.00  0.00    -0.353 OA 
HETATM    5  C   UNL     1     -11.893  15.690  68.694  1.00  0.00    -0.291 A  
HETATM    6  N   UNL     1     -12.656  16.089  69.711  1.00  0.00    -0.014 NA 
ENDROOT
BRANCH   3   7
HETATM    7  C   UNL     1     -10.599  13.506  68.017  1.00  0.00    -0.239 C  
HETATM    8  O   UNL     1      -9.384  13.661  68.039  1.00  0.00    -0.194 OA 
HETATM    9  H   UNL     1     -12.264  12.497  67.316  1.00  0.00     0.000 HD 
HETATM   10  N   UNL     1     -11.249  12.550  67.243  1.00  0.00    -0.278 N  
BRANCH  10  11
HETATM   11  C   UNL     1     -10.609  11.642  66.358  1.00  0.00    -0.258 A  
HETATM   12  C   UNL     1     -10.151  10.381  66.753  1.00  0.00    -0.267 A  
HETATM   13  C   UNL     1      -9.502   9.526  65.861  1.00  0.00    -0.307 A  
HETATM   14  C   UNL     1      -9.289   9.907  64.537  1.00  0.00    -0.336 A  
HETATM   15  C   UNL     1      -8.566   8.983  63.590  1.00  0.00    -0.130 C  
HETATM   16  C   UNL     1      -9.759  11.165  64.122  1.00  0.00    -0.318 A  
HETATM   17  C   UNL     1     -10.412  12.023  65.025  1.00  0.00    -0.327 A  
HETATM   18  F   UNL     1      -9.335   8.611  62.531  1.00  0.00     0.020 F  
HETATM   19  F   UNL     1      -7.446   9.551  63.062  1.00  0.00    -0.105 F  
HETATM   20  F   UNL     1      -8.151   7.823  64.174  1.00  0.00    -0.131 F  
ENDBRANCH  10  11
ENDBRANCH   3   7
TORSDOF 2
ENDMDL
MODEL      123
REMARK 921   NORMALIZED FREE ENERGY PREDICTED BY IDOCK:   -3.77 KCAL/MOL
REMARK 922        TOTAL FREE ENERGY PREDICTED BY IDOCK:   -4.48 KCAL/MOL
REMARK 923 INTER-LIGAND FREE ENERGY PREDICTED BY IDOCK:   -4.30 KCAL/MOL
REMARK 924 INTRA-LIGAND FREE ENERGY PREDICTED BY IDOCK:   -0.18 KCAL/MOL
REMARK 927      BINDING AFFINITY PREDICTED BY RF-SCORE:    0.00 PKD
ROOT
HETATM    1  C   UNL     1      -9.945   3.994  64.948  1.00  0.00    -0.211 C  
HETATM    2  C   UNL     1      -8.648   4.647  65.237  1.00  0.00    -0.133 A  
HETATM    3  C   UNL     1      -8.247   5.737  65.993  1.00  0.00    -0.114 A  
HETATM    4  O   UNL     1      -7.565   4.075  64.647  1.00  0.00    -0.075 OA 
HETATM    5  C   UNL     1      -6.848   5.760  65.792  1.00  0.00    -0.060 A  
HETATM    6  N   UNL     1      -6.425   4.778  64.997  1.00  0.00    -0.035 NA 
ENDROOT
BRANCH   3   7
HETATM    7  C   UNL     1      -9.149   6.576  66.762  1.00  0.00    -0.144 C  
HETATM    8  O   UNL     1      -9.664   7.547  66.219  1.00  0.00    -0.142 OA 
HETATM    9  H   UNL     1      -8.905   5.375  68.429  1.00  0.00     0.000 HD 
HETATM   10  N   UNL     1      -9.372   6.214  68.086  1.00  0.00    -0.116 N  
BRANCH  10  11
HETATM   11  C   UNL     1     -10.200   6.921  68.998  1.00  0.00    -0.181 A  
HETATM   12  C   UNL     1     -10.060   8.287  69.260  1.00  0.00    -0.199 A  
HETATM   13  C   UNL     1     -10.874   8.943  70.185  1.00  0.00    -0.251 A  
HETATM   14  C   UNL     1     -11.863   8.247  70.881  1.00  0.00    -0.232 A  
HETATM   15  C   UNL     1     -12.720   8.962  71.894  1.00  0.00    -0.376 C  
HETATM   16  C   UNL     1     -12.026   6.877  70.615  1.00  0.00    -0.400 A  
HETATM   17  C   UNL     1     -11.201   6.222  69.683  1.00  0.00    -0.506 A  
HETATM   18  F   UNL     1     -14.042   8.940  71.572  1.00  0.00    -0.416 F  
HETATM   19  F   UNL     1     -12.626   8.413  73.137  1.00  0.00    -0.265 F  
HETATM   20  F   UNL     1     -12.398  10.278  72.047  1.00  0.00    -0.445 F  
ENDBRANCH  10  11
ENDBRANCH   3   7
TORSDOF 2
ENDMDL
MODEL      124
REMARK 921   NORMALIZED FREE ENERGY PREDICTED BY IDOCK:   -3.76 KCAL/MOL
REMARK 922        TOTAL FREE ENERGY PREDICTED BY IDOCK:   -4.47 KCAL/MOL
REMARK 923 INTER-LIGAND FREE ENERGY PREDICTED BY IDOCK:   -4.09 KCAL/MOL
REMARK 924 INTRA-LIGAND FREE ENERGY PREDICTED BY IDOCK:   -0.37 KCAL/MOL
REMARK 927      BINDING AFFINITY PREDICTED BY RF-SCORE:    0.00 PKD
ROOT
HETATM    1  C   UNL     1      -7.602   7.426  71.143  1.00  0.00    -0.082 C  
HETATM    2  C   UNL     1      -8.243   6.720  70.010  1.00  0.00    -0.134 A  
HETATM    3  C   UNL     1      -9.206   7.050  69.069  1.00  0.00    -0.137 A  
HETATM    4  O   UNL     1      -7.815   5.447  69.801  1.00  0.00    -0.078 OA 
HETATM    5  C   UNL     1      -9.310   5.868  68.302  1.00  0.00    -0.116 A  
HETATM    6  N   UNL     1      -8.489   4.906  68.721  1.00  0.00    -0.086 NA 
ENDROOT
BRANCH   3   7
HETATM    7  C   UNL     1      -9.874   8.338  68.998  1.00  0.00    -0.176 C  
HETATM    8  O   UNL     1     -10.787   8.577  69.781  1.00  0.00    -0.229 OA 
HETATM    9  H   UNL     1      -8.644   8.932  67.445  1.00  0.00     0.000 HD 
HETATM   10  N   UNL     1      -9.424   9.229  68.031  1.00  0.00    -0.137 N  
BRANCH  10  11
HETATM   11  C   UNL     1      -9.966  10.520  67.793  1.00  0.00    -0.171 A  
HETATM   12  C   UNL     1     -11.032  10.756  66.921  1.00  0.00    -0.255 A  
HETATM   13  C   UNL     1     -11.520  12.044  66.692  1.00  0.00    -0.411 A  
HETATM   14  C   UNL     1     -10.953  13.144  67.335  1.00  0.00    -0.283 A  
HETATM   15  C   UNL     1     -11.474  14.532  67.061  1.00  0.00    -0.370 C  
HETATM   16  C   UNL     1      -9.892  12.919  68.228  1.00  0.00    -0.228 A  
HETATM   17  C   UNL     1      -9.404  11.619  68.454  1.00  0.00    -0.191 A  
HETATM   18  F   UNL     1     -11.971  15.135  68.176  1.00  0.00    -0.348 F  
HETATM   19  F   UNL     1     -10.510  15.365  66.581  1.00  0.00    -0.268 F  
HETATM   20  F   UNL     1     -12.481  14.563  66.142  1.00  0.00    -0.395 F  
ENDBRANCH  10  11
ENDBRANCH   3   7
TORSDOF 2
ENDMDL
MODEL      125
REMARK 921   NORMALIZED FREE ENERGY PREDICTED BY IDOCK:   -3.75 KCAL/MOL
REMARK 922        TOTAL FREE ENERGY PREDICTED BY IDOCK:   -4.46 KCAL/MOL
REMARK 923 INTER-LIGAND FREE ENERGY PREDICTED BY IDOCK:   -4.35 KCAL/MOL
REMARK 924 INTRA-LIGAND FREE ENERGY PREDICTED BY IDOCK:   -0.11 KCAL/MOL
REMARK 927      BINDING AFFINITY PREDICTED BY RF-SCORE:    0.00 PKD
ROOT
HETATM    1  C   UNL     1     -11.523  11.618  66.504  1.00  0.00    -0.260 C  
HETATM    2  C   UNL     1     -10.086  11.545  66.858  1.00  0.00    -0.212 A  
HETATM    3  C   UNL     1      -9.053  12.464  66.953  1.00  0.00    -0.211 A  
HETATM    4  O   UNL     1      -9.628  10.306  67.177  1.00  0.00    -0.162 OA 
HETATM    5  C   UNL     1      -7.957  11.662  67.344  1.00  0.00    -0.147 A  
HETATM    6  N   UNL     1      -8.281  10.377  67.484  1.00  0.00    -0.114 NA 
ENDROOT
BRANCH   3   7
HETATM    7  C   UNL     1      -9.194  13.885  66.686  1.00  0.00    -0.236 C  
HETATM    8  O   UNL     1      -9.980  14.250  65.819  1.00  0.00    -0.313 OA 
HETATM    9  H   UNL     1      -7.807  14.336  68.153  1.00  0.00     0.000 HD 
HETATM   10  N   UNL     1      -8.414  14.749  67.445  1.00  0.00    -0.188 N  
BRANCH  10  11
HETATM   11  C   UNL     1      -8.396  16.163  67.313  1.00  0.00    -0.180 A  
HETATM   12  C   UNL     1      -7.781  16.826  66.247  1.00  0.00    -0.310 A  
HETATM   13  C   UNL     1      -7.759  18.219  66.165  1.00  0.00    -0.255 A  
HETATM   14  C   UNL     1      -8.358  18.999  67.154  1.00  0.00    -0.296 A  
HETATM   15  C   UNL     1      -8.307  20.503  67.065  1.00  0.00    -0.238 C  
HETATM   16  C   UNL     1      -8.994  18.346  68.222  1.00  0.00    -0.330 A  
HETATM   17  C   UNL     1      -9.012  16.942  68.300  1.00  0.00    -0.235 A  
HETATM   18  F   UNL     1      -9.544  21.066  66.983  1.00  0.00    -0.530 F  
HETATM   19  F   UNL     1      -7.707  21.069  68.149  1.00  0.00    -0.065 F  
HETATM   20  F   UNL     1      -7.618  20.961  65.981  1.00  0.00    -0.068 F  
ENDBRANCH  10  11
ENDBRANCH   3   7
TORSDOF 2
ENDMDL
MODEL      126
REMARK 921   NORMALIZED FREE ENERGY PREDICTED BY IDOCK:   -3.75 KCAL/MOL
REMARK 922        TOTAL FREE ENERGY PREDICTED BY IDOCK:   -4.45 KCAL/MOL
REMARK 923 INTER-LIGAND FREE ENERGY PREDICTED BY IDOCK:   -4.17 KCAL/MOL
REMARK 924 INTRA-LIGAND FREE ENERGY PREDICTED BY IDOCK:   -0.28 KCAL/MOL
REMARK 927      BINDING AFFINITY PREDICTED BY RF-SCORE:    0.00 PKD
ROOT
HETATM    1  C   UNL     1     -10.103   4.454  65.170  1.00  0.00    -0.193 C  
HETATM    2  C   UNL     1      -8.805   4.911  65.717  1.00  0.00    -0.135 A  
HETATM    3  C   UNL     1      -8.304   6.122  66.168  1.00  0.00    -0.128 A  
HETATM    4  O   UNL     1      -7.850   3.950  65.827  1.00  0.00    -0.088 OA 
HETATM    5  C   UNL     1      -6.981   5.793  66.541  1.00  0.00    -0.064 A  
HETATM    6  N   UNL     1      -6.695   4.506  66.347  1.00  0.00    -0.049 NA 
ENDROOT
BRANCH   3   7
HETATM    7  C   UNL     1      -9.061   7.361  66.196  1.00  0.00    -0.126 C  
HETATM    8  O   UNL     1     -10.161   7.373  66.737  1.00  0.00    -0.255 OA 
HETATM    9  H   UNL     1      -7.547   8.352  65.193  1.00  0.00     0.000 HD 
HETATM   10  N   UNL     1      -8.476   8.471  65.597  1.00  0.00    -0.146 N  
BRANCH  10  11
HETATM   11  C   UNL     1      -9.069   9.758  65.504  1.00  0.00    -0.196 A  
HETATM   12  C   UNL     1      -9.887  10.150  64.440  1.00  0.00    -0.307 A  
HETATM   13  C   UNL     1     -10.430  11.433  64.369  1.00  0.00    -0.388 A  
HETATM   14  C   UNL     1     -10.173  12.372  65.368  1.00  0.00    -0.302 A  
HETATM   15  C   UNL     1     -10.747  13.762  65.267  1.00  0.00    -0.339 C  
HETATM   16  C   UNL     1      -9.367  11.985  66.452  1.00  0.00    -0.232 A  
HETATM   17  C   UNL     1      -8.821  10.691  66.518  1.00  0.00    -0.160 A  
HETATM   18  F   UNL     1     -11.581  14.061  66.300  1.00  0.00    -0.323 F  
HETATM   19  F   UNL     1      -9.784  14.725  65.269  1.00  0.00    -0.364 F  
HETATM   20  F   UNL     1     -11.474  13.969  64.131  1.00  0.00    -0.376 F  
ENDBRANCH  10  11
ENDBRANCH   3   7
TORSDOF 2
ENDMDL
MODEL      127
REMARK 921   NORMALIZED FREE ENERGY PREDICTED BY IDOCK:   -3.74 KCAL/MOL
REMARK 922        TOTAL FREE ENERGY PREDICTED BY IDOCK:   -4.44 KCAL/MOL
REMARK 923 INTER-LIGAND FREE ENERGY PREDICTED BY IDOCK:   -4.06 KCAL/MOL
REMARK 924 INTRA-LIGAND FREE ENERGY PREDICTED BY IDOCK:   -0.38 KCAL/MOL
REMARK 927      BINDING AFFINITY PREDICTED BY RF-SCORE:    0.00 PKD
ROOT
HETATM    1  C   UNL     1      -7.580   9.967  64.756  1.00  0.00    -0.139 C  
HETATM    2  C   UNL     1      -7.705   8.545  64.360  1.00  0.00    -0.128 A  
HETATM    3  C   UNL     1      -8.077   7.377  65.007  1.00  0.00    -0.122 A  
HETATM    4  O   UNL     1      -7.399   8.274  63.064  1.00  0.00    -0.094 OA 
HETATM    5  C   UNL     1      -7.955   6.404  63.989  1.00  0.00    -0.090 A  
HETATM    6  N   UNL     1      -7.556   6.919  62.827  1.00  0.00    -0.090 NA 
ENDROOT
BRANCH   3   7
HETATM    7  C   UNL     1      -8.473   7.305  66.403  1.00  0.00    -0.129 C  
HETATM    8  O   UNL     1      -7.686   6.842  67.220  1.00  0.00    -0.104 OA 
HETATM    9  H   UNL     1     -10.306   8.158  65.965  1.00  0.00     0.000 HD 
HETATM   10  N   UNL     1      -9.741   7.776  66.723  1.00  0.00    -0.210 N  
BRANCH  10  11
HETATM   11  C   UNL     1     -10.313   7.766  68.023  1.00  0.00    -0.209 A  
HETATM   12  C   UNL     1     -10.208   8.838  68.915  1.00  0.00    -0.221 A  
HETATM   13  C   UNL     1     -10.760   8.781  70.195  1.00  0.00    -0.239 A  
HETATM   14  C   UNL     1     -11.440   7.643  70.628  1.00  0.00    -0.276 A  
HETATM   15  C   UNL     1     -12.011   7.586  72.022  1.00  0.00    -0.294 C  
HETATM   16  C   UNL     1     -11.568   6.565  69.735  1.00  0.00    -0.392 A  
HETATM   17  C   UNL     1     -11.009   6.627  68.446  1.00  0.00    -0.313 A  
HETATM   18  F   UNL     1     -13.363   7.433  72.029  1.00  0.00    -0.319 F  
HETATM   19  F   UNL     1     -11.510   6.548  72.748  1.00  0.00    -0.275 F  
HETATM   20  F   UNL     1     -11.761   8.707  72.758  1.00  0.00    -0.417 F  
ENDBRANCH  10  11
ENDBRANCH   3   7
TORSDOF 2
ENDMDL
MODEL      128
REMARK 921   NORMALIZED FREE ENERGY PREDICTED BY IDOCK:   -3.74 KCAL/MOL
REMARK 922        TOTAL FREE ENERGY PREDICTED BY IDOCK:   -4.44 KCAL/MOL
REMARK 923 INTER-LIGAND FREE ENERGY PREDICTED BY IDOCK:   -4.15 KCAL/MOL
REMARK 924 INTRA-LIGAND FREE ENERGY PREDICTED BY IDOCK:   -0.29 KCAL/MOL
REMARK 927      BINDING AFFINITY PREDICTED BY RF-SCORE:    0.00 PKD
ROOT
HETATM    1  C   UNL     1     -12.303   7.206  71.749  1.00  0.00    -0.385 C  
HETATM    2  C   UNL     1     -12.346   8.678  71.587  1.00  0.00    -0.333 A  
HETATM    3  C   UNL     1     -11.618   9.605  70.857  1.00  0.00    -0.420 A  
HETATM    4  O   UNL     1     -13.315   9.313  72.297  1.00  0.00    -0.425 OA 
HETATM    5  C   UNL     1     -12.234  10.829  71.205  1.00  0.00    -0.352 A  
HETATM    6  N   UNL     1     -13.246  10.674  72.058  1.00  0.00    -0.450 NA 
ENDROOT
BRANCH   3   7
HETATM    7  C   UNL     1     -10.509   9.269  69.982  1.00  0.00    -0.226 C  
HETATM    8  O   UNL     1      -9.417   9.790  70.182  1.00  0.00    -0.240 OA 
HETATM    9  H   UNL     1     -11.706   7.977  68.898  1.00  0.00     0.000 HD 
HETATM   10  N   UNL     1     -10.764   8.363  68.960  1.00  0.00    -0.141 N  
BRANCH  10  11
HETATM   11  C   UNL     1      -9.817   7.931  67.993  1.00  0.00    -0.165 A  
HETATM   12  C   UNL     1      -8.953   6.851  68.195  1.00  0.00    -0.123 A  
HETATM   13  C   UNL     1      -8.015   6.473  67.233  1.00  0.00    -0.113 A  
HETATM   14  C   UNL     1      -7.912   7.168  66.029  1.00  0.00    -0.112 A  
HETATM   15  C   UNL     1      -6.880   6.765  65.007  1.00  0.00    -0.050 C  
HETATM   16  C   UNL     1      -8.786   8.245  65.805  1.00  0.00    -0.194 A  
HETATM   17  C   UNL     1      -9.729   8.623  66.779  1.00  0.00    -0.298 A  
HETATM   18  F   UNL     1      -7.433   6.378  63.826  1.00  0.00    -0.059 F  
HETATM   19  F   UNL     1      -6.020   7.778  64.707  1.00  0.00    -0.039 F  
HETATM   20  F   UNL     1      -6.097   5.723  65.409  1.00  0.00    -0.025 F  
ENDBRANCH  10  11
ENDBRANCH   3   7
TORSDOF 2
ENDMDL
MODEL      129
REMARK 921   NORMALIZED FREE ENERGY PREDICTED BY IDOCK:   -3.73 KCAL/MOL
REMARK 922        TOTAL FREE ENERGY PREDICTED BY IDOCK:   -4.43 KCAL/MOL
REMARK 923 INTER-LIGAND FREE ENERGY PREDICTED BY IDOCK:   -4.13 KCAL/MOL
REMARK 924 INTRA-LIGAND FREE ENERGY PREDICTED BY IDOCK:   -0.30 KCAL/MOL
REMARK 927      BINDING AFFINITY PREDICTED BY RF-SCORE:    0.00 PKD
ROOT
HETATM    1  C   UNL     1     -10.271   5.353  67.300  1.00  0.00    -0.258 C  
HETATM    2  C   UNL     1      -9.366   6.086  66.385  1.00  0.00    -0.154 A  
HETATM    3  C   UNL     1      -8.896   7.387  66.306  1.00  0.00    -0.182 A  
HETATM    4  O   UNL     1      -8.843   5.348  65.371  1.00  0.00    -0.153 OA 
HETATM    5  C   UNL     1      -8.067   7.351  65.163  1.00  0.00    -0.129 A  
HETATM    6  N   UNL     1      -8.022   6.146  64.595  1.00  0.00    -0.120 NA 
ENDROOT
BRANCH   3   7
HETATM    7  C   UNL     1      -9.251   8.443  67.239  1.00  0.00    -0.138 C  
HETATM    8  O   UNL     1      -8.933   8.326  68.417  1.00  0.00    -0.136 OA 
HETATM    9  H   UNL     1     -10.134   9.537  65.721  1.00  0.00     0.000 HD 
HETATM   10  N   UNL     1      -9.938   9.535  66.722  1.00  0.00    -0.215 N  
BRANCH  10  11
HETATM   11  C   UNL     1     -10.389  10.650  67.478  1.00  0.00    -0.214 A  
HETATM   12  C   UNL     1      -9.744  11.890  67.477  1.00  0.00    -0.185 A  
HETATM   13  C   UNL     1     -10.201  12.955  68.254  1.00  0.00    -0.245 A  
HETATM   14  C   UNL     1     -11.328  12.812  69.063  1.00  0.00    -0.346 A  
HETATM   15  C   UNL     1     -11.797  13.963  69.916  1.00  0.00    -0.328 C  
HETATM   16  C   UNL     1     -11.997  11.577  69.061  1.00  0.00    -0.377 A  
HETATM   17  C   UNL     1     -11.531  10.507  68.276  1.00  0.00    -0.272 A  
HETATM   18  F   UNL     1     -13.054  14.376  69.595  1.00  0.00    -0.108 F  
HETATM   19  F   UNL     1     -11.831  13.650  71.242  1.00  0.00    -0.331 F  
HETATM   20  F   UNL     1     -11.007  15.070  69.818  1.00  0.00    -0.238 F  
ENDBRANCH  10  11
ENDBRANCH   3   7
TORSDOF 2
ENDMDL
MODEL      130
REMARK 921   NORMALIZED FREE ENERGY PREDICTED BY IDOCK:   -3.70 KCAL/MOL
REMARK 922        TOTAL FREE ENERGY PREDICTED BY IDOCK:   -4.39 KCAL/MOL
REMARK 923 INTER-LIGAND FREE ENERGY PREDICTED BY IDOCK:   -4.07 KCAL/MOL
REMARK 924 INTRA-LIGAND FREE ENERGY PREDICTED BY IDOCK:   -0.32 KCAL/MOL
REMARK 927      BINDING AFFINITY PREDICTED BY RF-SCORE:    0.00 PKD
ROOT
HETATM    1  C   UNL     1     -11.962   8.826  71.372  1.00  0.00    -0.367 C  
HETATM    2  C   UNL     1     -11.533   9.870  70.413  1.00  0.00    -0.301 A  
HETATM    3  C   UNL     1     -10.736   9.890  69.279  1.00  0.00    -0.247 A  
HETATM    4  O   UNL     1     -12.013  11.118  70.658  1.00  0.00    -0.343 OA 
HETATM    5  C   UNL     1     -10.783  11.248  68.889  1.00  0.00    -0.207 A  
HETATM    6  N   UNL     1     -11.539  11.991  69.696  1.00  0.00    -0.307 NA 
ENDROOT
BRANCH   3   7
HETATM    7  C   UNL     1     -10.067   8.725  68.727  1.00  0.00    -0.198 C  
HETATM    8  O   UNL     1      -9.067   8.293  69.290  1.00  0.00    -0.150 OA 
HETATM    9  H   UNL     1     -11.462   8.599  67.205  1.00  0.00     0.000 HD 
HETATM   10  N   UNL     1     -10.616   8.168  67.578  1.00  0.00    -0.246 N  
BRANCH  10  11
HETATM   11  C   UNL     1     -10.092   7.046  66.882  1.00  0.00    -0.226 A  
HETATM   12  C   UNL     1     -10.656   5.769  66.950  1.00  0.00    -0.377 A  
HETATM   13  C   UNL     1     -10.096   4.684  66.274  1.00  0.00    -0.292 A  
HETATM   14  C   UNL     1      -8.947   4.844  65.501  1.00  0.00    -0.149 A  
HETATM   15  C   UNL     1      -8.339   3.659  64.794  1.00  0.00    -0.096 C  
HETATM   16  C   UNL     1      -8.379   6.126  65.410  1.00  0.00    -0.150 A  
HETATM   17  C   UNL     1      -8.946   7.216  66.094  1.00  0.00    -0.168 A  
HETATM   18  F   UNL     1      -8.315   3.810  63.442  1.00  0.00    -0.085 F  
HETATM   19  F   UNL     1      -7.050   3.432  65.172  1.00  0.00    -0.058 F  
HETATM   20  F   UNL     1      -9.003   2.490  65.025  1.00  0.00    -0.108 F  
ENDBRANCH  10  11
ENDBRANCH   3   7
TORSDOF 2
ENDMDL
MODEL      131
REMARK 921   NORMALIZED FREE ENERGY PREDICTED BY IDOCK:   -3.69 KCAL/MOL
REMARK 922        TOTAL FREE ENERGY PREDICTED BY IDOCK:   -4.38 KCAL/MOL
REMARK 923 INTER-LIGAND FREE ENERGY PREDICTED BY IDOCK:   -4.16 KCAL/MOL
REMARK 924 INTRA-LIGAND FREE ENERGY PREDICTED BY IDOCK:   -0.22 KCAL/MOL
REMARK 927      BINDING AFFINITY PREDICTED BY RF-SCORE:    0.00 PKD
ROOT
HETATM    1  C   UNL     1     -10.295  14.139  66.189  1.00  0.00    -0.304 C  
HETATM    2  C   UNL     1      -8.950  14.098  66.808  1.00  0.00    -0.208 A  
HETATM    3  C   UNL     1      -8.211  13.139  67.483  1.00  0.00    -0.183 A  
HETATM    4  O   UNL     1      -8.230  15.247  66.709  1.00  0.00    -0.230 OA 
HETATM    5  C   UNL     1      -7.009  13.822  67.777  1.00  0.00    -0.171 A  
HETATM    6  N   UNL     1      -7.002  15.075  67.323  1.00  0.00    -0.244 NA 
ENDROOT
BRANCH   3   7
HETATM    7  C   UNL     1      -8.677  11.792  67.760  1.00  0.00    -0.155 C  
HETATM    8  O   UNL     1      -8.672  10.965  66.855  1.00  0.00    -0.139 OA 
HETATM    9  H   UNL     1      -9.047  12.286  69.734  1.00  0.00     0.000 HD 
HETATM   10  N   UNL     1      -9.104  11.527  69.056  1.00  0.00     0.047 N  
BRANCH  10  11
HETATM   11  C   UNL     1      -9.614  10.282  69.510  1.00  0.00    -0.202 A  
HETATM   12  C   UNL     1     -10.925  10.109  69.963  1.00  0.00    -0.364 A  
HETATM   13  C   UNL     1     -11.383   8.875  70.428  1.00  0.00    -0.229 A  
HETATM   14  C   UNL     1     -10.538   7.766  70.453  1.00  0.00    -0.227 A  
HETATM   15  C   UNL     1     -11.038   6.445  70.980  1.00  0.00    -0.294 C  
HETATM   16  C   UNL     1      -9.223   7.921  69.984  1.00  0.00    -0.153 A  
HETATM   17  C   UNL     1      -8.766   9.167  69.518  1.00  0.00    -0.140 A  
HETATM   18  F   UNL     1     -11.004   5.460  70.041  1.00  0.00    -0.381 F  
HETATM   19  F   UNL     1     -10.300   5.990  72.031  1.00  0.00    -0.210 F  
HETATM   20  F   UNL     1     -12.326   6.490  71.425  1.00  0.00    -0.375 F  
ENDBRANCH  10  11
ENDBRANCH   3   7
TORSDOF 2
ENDMDL
MODEL      132
REMARK 921   NORMALIZED FREE ENERGY PREDICTED BY IDOCK:   -3.61 KCAL/MOL
REMARK 922        TOTAL FREE ENERGY PREDICTED BY IDOCK:   -4.30 KCAL/MOL
REMARK 923 INTER-LIGAND FREE ENERGY PREDICTED BY IDOCK:   -4.00 KCAL/MOL
REMARK 924 INTRA-LIGAND FREE ENERGY PREDICTED BY IDOCK:   -0.30 KCAL/MOL
REMARK 927      BINDING AFFINITY PREDICTED BY RF-SCORE:    0.00 PKD
ROOT
HETATM    1  C   UNL     1      -9.544  18.310  67.531  1.00  0.00    -0.282 C  
HETATM    2  C   UNL     1      -8.180  18.199  68.098  1.00  0.00    -0.276 A  
HETATM    3  C   UNL     1      -7.235  17.190  68.186  1.00  0.00    -0.193 A  
HETATM    4  O   UNL     1      -7.697  19.332  68.674  1.00  0.00    -0.334 OA 
HETATM    5  C   UNL     1      -6.167  17.820  68.866  1.00  0.00    -0.209 A  
HETATM    6  N   UNL     1      -6.424  19.094  69.161  1.00  0.00    -0.277 NA 
ENDROOT
BRANCH   3   7
HETATM    7  C   UNL     1      -7.421  15.846  67.666  1.00  0.00    -0.152 C  
HETATM    8  O   UNL     1      -6.796  15.504  66.669  1.00  0.00    -0.051 OA 
HETATM    9  H   UNL     1      -8.762  15.407  69.179  1.00  0.00     0.000 HD 
HETATM   10  N   UNL     1      -8.311  15.024  68.348  1.00  0.00    -0.147 N  
BRANCH  10  11
HETATM   11  C   UNL     1      -8.641  13.693  67.980  1.00  0.00    -0.175 A  
HETATM   12  C   UNL     1      -7.743  12.626  68.072  1.00  0.00    -0.139 A  
HETATM   13  C   UNL     1      -8.095  11.336  67.674  1.00  0.00    -0.119 A  
HETATM   14  C   UNL     1      -9.367  11.069  67.169  1.00  0.00    -0.177 A  
HETATM   15  C   UNL     1      -9.726   9.675  66.721  1.00  0.00    -0.197 C  
HETATM   16  C   UNL     1     -10.286  12.129  67.086  1.00  0.00    -0.226 A  
HETATM   17  C   UNL     1      -9.925  13.428  67.488  1.00  0.00    -0.230 A  
HETATM   18  F   UNL     1     -10.761   9.147  67.430  1.00  0.00    -0.320 F  
HETATM   19  F   UNL     1     -10.104   9.629  65.413  1.00  0.00    -0.376 F  
HETATM   20  F   UNL     1      -8.701   8.785  66.840  1.00  0.00    -0.120 F  
ENDBRANCH  10  11
ENDBRANCH   3   7
TORSDOF 2
ENDMDL
MODEL      133
REMARK 921   NORMALIZED FREE ENERGY PREDICTED BY IDOCK:   -3.59 KCAL/MOL
REMARK 922        TOTAL FREE ENERGY PREDICTED BY IDOCK:   -4.28 KCAL/MOL
REMARK 923 INTER-LIGAND FREE ENERGY PREDICTED BY IDOCK:   -3.98 KCAL/MOL
REMARK 924 INTRA-LIGAND FREE ENERGY PREDICTED BY IDOCK:   -0.29 KCAL/MOL
REMARK 927      BINDING AFFINITY PREDICTED BY RF-SCORE:    0.00 PKD
ROOT
HETATM    1  C   UNL     1      -6.511  12.028  69.550  1.00  0.00    -0.109 C  
HETATM    2  C   UNL     1      -7.490  11.877  68.449  1.00  0.00    -0.102 A  
HETATM    3  C   UNL     1      -8.425  10.917  68.096  1.00  0.00    -0.131 A  
HETATM    4  O   UNL     1      -7.519  12.898  67.552  1.00  0.00    -0.137 OA 
HETATM    5  C   UNL     1      -8.995  11.455  66.919  1.00  0.00    -0.171 A  
HETATM    6  N   UNL     1      -8.469  12.632  66.583  1.00  0.00    -0.049 NA 
ENDROOT
BRANCH   3   7
HETATM    7  C   UNL     1      -8.664   9.693  68.841  1.00  0.00    -0.132 C  
HETATM    8  O   UNL     1      -8.025   8.688  68.551  1.00  0.00    -0.112 OA 
HETATM    9  H   UNL     1     -10.077  10.642  70.018  1.00  0.00     0.000 HD 
HETATM   10  N   UNL     1      -9.618   9.746  69.850  1.00  0.00    -0.225 N  
BRANCH  10  11
HETATM   11  C   UNL     1     -10.005   8.651  70.668  1.00  0.00    -0.192 A  
HETATM   12  C   UNL     1      -9.674   8.550  72.022  1.00  0.00    -0.377 A  
HETATM   13  C   UNL     1     -10.049   7.445  72.788  1.00  0.00    -0.272 A  
HETATM   14  C   UNL     1     -10.774   6.398  72.218  1.00  0.00    -0.253 A  
HETATM   15  C   UNL     1     -11.152   5.199  73.050  1.00  0.00    -0.314 C  
HETATM   16  C   UNL     1     -11.128   6.495  70.862  1.00  0.00    -0.345 A  
HETATM   17  C   UNL     1     -10.747   7.610  70.095  1.00  0.00    -0.245 A  
HETATM   18  F   UNL     1     -12.499   5.031  73.146  1.00  0.00    -0.282 F  
HETATM   19  F   UNL     1     -10.663   4.035  72.540  1.00  0.00    -0.239 F  
HETATM   20  F   UNL     1     -10.694   5.262  74.333  1.00  0.00    -0.298 F  
ENDBRANCH  10  11
ENDBRANCH   3   7
TORSDOF 2
ENDMDL
MODEL      134
REMARK 921   NORMALIZED FREE ENERGY PREDICTED BY IDOCK:   -3.58 KCAL/MOL
REMARK 922        TOTAL FREE ENERGY PREDICTED BY IDOCK:   -4.26 KCAL/MOL
REMARK 923 INTER-LIGAND FREE ENERGY PREDICTED BY IDOCK:   -3.88 KCAL/MOL
REMARK 924 INTRA-LIGAND FREE ENERGY PREDICTED BY IDOCK:   -0.38 KCAL/MOL
REMARK 927      BINDING AFFINITY PREDICTED BY RF-SCORE:    0.00 PKD
ROOT
HETATM    1  C   UNL     1      -9.995   9.622  70.704  1.00  0.00    -0.299 C  
HETATM    2  C   UNL     1     -11.115   8.691  70.971  1.00  0.00    -0.264 A  
HETATM    3  C   UNL     1     -11.447   7.412  70.551  1.00  0.00    -0.281 A  
HETATM    4  O   UNL     1     -12.063   9.152  71.829  1.00  0.00    -0.330 OA 
HETATM    5  C   UNL     1     -12.666   7.170  71.224  1.00  0.00    -0.366 A  
HETATM    6  N   UNL     1     -13.046   8.192  71.990  1.00  0.00    -0.314 NA 
ENDROOT
BRANCH   3   7
HETATM    7  C   UNL     1     -10.649   6.619  69.633  1.00  0.00    -0.234 C  
HETATM    8  O   UNL     1      -9.951   5.716  70.081  1.00  0.00    -0.180 OA 
HETATM    9  H   UNL     1     -11.360   7.702  68.021  1.00  0.00     0.000 HD 
HETATM   10  N   UNL     1     -10.732   6.943  68.284  1.00  0.00    -0.221 N  
BRANCH  10  11
HETATM   11  C   UNL     1     -10.012   6.299  67.243  1.00  0.00    -0.146 A  
HETATM   12  C   UNL     1      -8.731   6.690  66.841  1.00  0.00    -0.116 A  
HETATM   13  C   UNL     1      -8.065   6.051  65.794  1.00  0.00    -0.123 A  
HETATM   14  C   UNL     1      -8.662   4.992  65.112  1.00  0.00    -0.150 A  
HETATM   15  C   UNL     1      -7.941   4.325  63.969  1.00  0.00    -0.090 C  
HETATM   16  C   UNL     1      -9.942   4.577  65.517  1.00  0.00    -0.230 A  
HETATM   17  C   UNL     1     -10.610   5.225  66.572  1.00  0.00    -0.348 A  
HETATM   18  F   UNL     1      -7.700   3.005  64.198  1.00  0.00    -0.070 F  
HETATM   19  F   UNL     1      -8.646   4.382  62.804  1.00  0.00    -0.084 F  
HETATM   20  F   UNL     1      -6.727   4.882  63.693  1.00  0.00    -0.037 F  
ENDBRANCH  10  11
ENDBRANCH   3   7
TORSDOF 2
ENDMDL
MODEL      135
REMARK 921   NORMALIZED FREE ENERGY PREDICTED BY IDOCK:   -3.56 KCAL/MOL
REMARK 922        TOTAL FREE ENERGY PREDICTED BY IDOCK:   -4.24 KCAL/MOL
REMARK 923 INTER-LIGAND FREE ENERGY PREDICTED BY IDOCK:   -3.86 KCAL/MOL
REMARK 924 INTRA-LIGAND FREE ENERGY PREDICTED BY IDOCK:   -0.37 KCAL/MOL
REMARK 927      BINDING AFFINITY PREDICTED BY RF-SCORE:    0.00 PKD
ROOT
HETATM    1  C   UNL     1     -11.379  10.005  71.113  1.00  0.00    -0.397 C  
HETATM    2  C   UNL     1     -12.337   8.898  71.333  1.00  0.00    -0.313 A  
HETATM    3  C   UNL     1     -12.265   7.515  71.281  1.00  0.00    -0.357 A  
HETATM    4  O   UNL     1     -13.597   9.279  71.673  1.00  0.00    -0.376 OA 
HETATM    5  C   UNL     1     -13.582   7.121  71.609  1.00  0.00    -0.310 A  
HETATM    6  N   UNL     1     -14.387   8.156  71.847  1.00  0.00    -0.454 NA 
ENDROOT
BRANCH   3   7
HETATM    7  C   UNL     1     -11.062   6.770  70.953  1.00  0.00    -0.277 C  
HETATM    8  O   UNL     1     -10.216   6.597  71.823  1.00  0.00    -0.188 OA 
HETATM    9  H   UNL     1     -11.726   6.481  69.015  1.00  0.00     0.000 HD 
HETATM   10  N   UNL     1     -10.951   6.295  69.651  1.00  0.00    -0.337 N  
BRANCH  10  11
HETATM   11  C   UNL     1      -9.843   5.569  69.138  1.00  0.00    -0.167 A  
HETATM   12  C   UNL     1      -8.740   6.179  68.534  1.00  0.00    -0.111 A  
HETATM   13  C   UNL     1      -7.682   5.432  68.016  1.00  0.00    -0.091 A  
HETATM   14  C   UNL     1      -7.693   4.039  68.087  1.00  0.00    -0.066 A  
HETATM   15  C   UNL     1      -6.554   3.242  67.503  1.00  0.00    -0.038 C  
HETATM   16  C   UNL     1      -8.787   3.413  68.707  1.00  0.00    -0.164 A  
HETATM   17  C   UNL     1      -9.852   4.172  69.227  1.00  0.00    -0.138 A  
HETATM   18  F   UNL     1      -5.902   2.496  68.437  1.00  0.00    -0.020 F  
HETATM   19  F   UNL     1      -6.969   2.367  66.545  1.00  0.00    -0.041 F  
HETATM   20  F   UNL     1      -5.599   4.014  66.911  1.00  0.00    -0.017 F  
ENDBRANCH  10  11
ENDBRANCH   3   7
TORSDOF 2
ENDMDL
MODEL      136
REMARK 921   NORMALIZED FREE ENERGY PREDICTED BY IDOCK:   -3.47 KCAL/MOL
REMARK 922        TOTAL FREE ENERGY PREDICTED BY IDOCK:   -4.14 KCAL/MOL
REMARK 923 INTER-LIGAND FREE ENERGY PREDICTED BY IDOCK:   -3.96 KCAL/MOL
REMARK 924 INTRA-LIGAND FREE ENERGY PREDICTED BY IDOCK:   -0.18 KCAL/MOL
REMARK 927      BINDING AFFINITY PREDICTED BY RF-SCORE:    0.00 PKD
ROOT
HETATM    1  C   UNL     1     -12.215   7.716  72.305  1.00  0.00    -0.261 C  
HETATM    2  C   UNL     1     -12.317   9.075  71.726  1.00  0.00    -0.367 A  
HETATM    3  C   UNL     1     -11.703   9.742  70.678  1.00  0.00    -0.377 A  
HETATM    4  O   UNL     1     -13.219   9.896  72.326  1.00  0.00    -0.431 OA 
HETATM    5  C   UNL     1     -12.310  11.017  70.721  1.00  0.00    -0.398 A  
HETATM    6  N   UNL     1     -13.216  11.126  71.692  1.00  0.00    -0.400 NA 
ENDROOT
BRANCH   3   7
HETATM    7  C   UNL     1     -10.688   9.158  69.818  1.00  0.00    -0.228 C  
HETATM    8  O   UNL     1      -9.689   9.815  69.548  1.00  0.00    -0.186 OA 
HETATM    9  H   UNL     1     -11.781   7.409  69.656  1.00  0.00     0.000 HD 
HETATM   10  N   UNL     1     -10.924   7.870  69.352  1.00  0.00    -0.096 N  
BRANCH  10  11
HETATM   11  C   UNL     1     -10.064   7.144  68.485  1.00  0.00    -0.168 A  
HETATM   12  C   UNL     1     -10.106   7.256  67.093  1.00  0.00    -0.306 A  
HETATM   13  C   UNL     1      -9.262   6.506  66.272  1.00  0.00    -0.160 A  
HETATM   14  C   UNL     1      -8.342   5.614  66.822  1.00  0.00    -0.108 A  
HETATM   15  C   UNL     1      -7.453   4.792  65.923  1.00  0.00    -0.078 C  
HETATM   16  C   UNL     1      -8.277   5.504  68.221  1.00  0.00    -0.095 A  
HETATM   17  C   UNL     1      -9.130   6.262  69.044  1.00  0.00    -0.129 A  
HETATM   18  F   UNL     1      -6.131   5.046  66.119  1.00  0.00    -0.023 F  
HETATM   19  F   UNL     1      -7.612   3.453  66.116  1.00  0.00    -0.073 F  
HETATM   20  F   UNL     1      -7.680   5.004  64.595  1.00  0.00    -0.072 F  
ENDBRANCH  10  11
ENDBRANCH   3   7
TORSDOF 2
ENDMDL
MODEL      137
REMARK 921   NORMALIZED FREE ENERGY PREDICTED BY IDOCK:   -3.44 KCAL/MOL
REMARK 922        TOTAL FREE ENERGY PREDICTED BY IDOCK:   -4.11 KCAL/MOL
REMARK 923 INTER-LIGAND FREE ENERGY PREDICTED BY IDOCK:   -4.28 KCAL/MOL
REMARK 924 INTRA-LIGAND FREE ENERGY PREDICTED BY IDOCK:    0.17 KCAL/MOL
REMARK 927      BINDING AFFINITY PREDICTED BY RF-SCORE:    0.00 PKD
ROOT
HETATM    1  C   UNL     1      -8.344  10.980  66.963  1.00  0.00    -0.137 C  
HETATM    2  C   UNL     1      -9.772  11.259  67.238  1.00  0.00    -0.174 A  
HETATM    3  C   UNL     1     -10.705  10.787  68.148  1.00  0.00    -0.257 A  
HETATM    4  O   UNL     1     -10.345  12.199  66.440  1.00  0.00    -0.213 OA 
HETATM    5  C   UNL     1     -11.868  11.517  67.811  1.00  0.00    -0.154 A  
HETATM    6  N   UNL     1     -11.671  12.363  66.800  1.00  0.00    -0.484 NA 
ENDROOT
BRANCH   3   7
HETATM    7  C   UNL     1     -10.428   9.778  69.155  1.00  0.00    -0.215 C  
HETATM    8  O   UNL     1      -9.839  10.106  70.178  1.00  0.00    -0.207 OA 
HETATM    9  H   UNL     1     -11.357   8.327  68.009  1.00  0.00     0.000 HD 
HETATM   10  N   UNL     1     -10.858   8.484  68.885  1.00  0.00    -0.057 N  
BRANCH  10  11
HETATM   11  C   UNL     1     -10.659   7.362  69.734  1.00  0.00    -0.236 A  
HETATM   12  C   UNL     1     -10.513   6.056  69.257  1.00  0.00    -0.328 A  
HETATM   13  C   UNL     1     -10.346   4.975  70.124  1.00  0.00    -0.306 A  
HETATM   14  C   UNL     1     -10.319   5.167  71.504  1.00  0.00    -0.278 A  
HETATM   15  C   UNL     1     -10.162   3.988  72.430  1.00  0.00    -0.162 C  
HETATM   16  C   UNL     1     -10.448   6.477  71.997  1.00  0.00    -0.227 A  
HETATM   17  C   UNL     1     -10.617   7.563  71.119  1.00  0.00    -0.234 A  
HETATM   18  F   UNL     1      -9.037   4.065  73.193  1.00  0.00    -0.104 F  
HETATM   19  F   UNL     1     -11.201   3.868  73.303  1.00  0.00    -0.279 F  
HETATM   20  F   UNL     1     -10.087   2.792  71.779  1.00  0.00    -0.228 F  
ENDBRANCH  10  11
ENDBRANCH   3   7
TORSDOF 2
ENDMDL
MODEL      138
REMARK 921   NORMALIZED FREE ENERGY PREDICTED BY IDOCK:   -3.31 KCAL/MOL
REMARK 922        TOTAL FREE ENERGY PREDICTED BY IDOCK:   -3.97 KCAL/MOL
REMARK 923 INTER-LIGAND FREE ENERGY PREDICTED BY IDOCK:   -3.89 KCAL/MOL
REMARK 924 INTRA-LIGAND FREE ENERGY PREDICTED BY IDOCK:   -0.08 KCAL/MOL
REMARK 927      BINDING AFFINITY PREDICTED BY RF-SCORE:    0.00 PKD
ROOT
HETATM    1  C   UNL     1      -7.636   8.187  72.502  1.00  0.00    -0.157 C  
HETATM    2  C   UNL     1      -8.725   7.275  72.920  1.00  0.00    -0.124 A  
HETATM    3  C   UNL     1      -9.397   6.215  72.331  1.00  0.00    -0.146 A  
HETATM    4  O   UNL     1      -9.208   7.483  74.174  1.00  0.00    -0.245 OA 
HETATM    5  C   UNL     1     -10.314   5.829  73.335  1.00  0.00    -0.225 A  
HETATM    6  N   UNL     1     -10.214   6.570  74.438  1.00  0.00    -0.354 NA 
ENDROOT
BRANCH   3   7
HETATM    7  C   UNL     1      -9.129   5.720  70.992  1.00  0.00    -0.146 C  
HETATM    8  O   UNL     1      -7.971   5.485  70.667  1.00  0.00    -0.098 OA 
HETATM    9  H   UNL     1     -11.147   5.751  70.537  1.00  0.00     0.000 HD 
HETATM   10  N   UNL     1     -10.225   5.542  70.155  1.00  0.00    -0.240 N  
BRANCH  10  11
HETATM   11  C   UNL     1     -10.161   5.091  68.810  1.00  0.00    -0.094 A  
HETATM   12  C   UNL     1      -9.554   3.890  68.431  1.00  0.00    -0.179 A  
HETATM   13  C   UNL     1      -9.486   3.493  67.095  1.00  0.00    -0.219 A  
HETATM   14  C   UNL     1     -10.030   4.289  66.088  1.00  0.00    -0.231 A  
HETATM   15  C   UNL     1      -9.930   3.860  64.646  1.00  0.00    -0.204 C  
HETATM   16  C   UNL     1     -10.659   5.490  66.456  1.00  0.00    -0.343 A  
HETATM   17  C   UNL     1     -10.723   5.887  67.804  1.00  0.00    -0.346 A  
HETATM   18  F   UNL     1     -11.148   3.675  64.068  1.00  0.00    -0.279 F  
HETATM   19  F   UNL     1      -9.281   4.775  63.873  1.00  0.00    -0.148 F  
HETATM   20  F   UNL     1      -9.256   2.687  64.474  1.00  0.00    -0.114 F  
ENDBRANCH  10  11
ENDBRANCH   3   7
TORSDOF 2
ENDMDL
MODEL      139
REMARK 921   NORMALIZED FREE ENERGY PREDICTED BY IDOCK:   -3.27 KCAL/MOL
REMARK 922        TOTAL FREE ENERGY PREDICTED BY IDOCK:   -3.92 KCAL/MOL
REMARK 923 INTER-LIGAND FREE ENERGY PREDICTED BY IDOCK:   -3.57 KCAL/MOL
REMARK 924 INTRA-LIGAND FREE ENERGY PREDICTED BY IDOCK:   -0.35 KCAL/MOL
REMARK 927      BINDING AFFINITY PREDICTED BY RF-SCORE:    0.00 PKD
ROOT
HETATM    1  C   UNL     1      -7.668   8.457  64.889  1.00  0.00    -0.106 C  
HETATM    2  C   UNL     1      -7.883   7.008  64.671  1.00  0.00    -0.123 A  
HETATM    3  C   UNL     1      -8.546   6.003  65.356  1.00  0.00    -0.127 A  
HETATM    4  O   UNL     1      -7.320   6.501  63.543  1.00  0.00    -0.055 OA 
HETATM    5  C   UNL     1      -8.319   4.869  64.543  1.00  0.00    -0.132 A  
HETATM    6  N   UNL     1      -7.594   5.147  63.460  1.00  0.00    -0.061 NA 
ENDROOT
BRANCH   3   7
HETATM    7  C   UNL     1      -9.264   6.198  66.603  1.00  0.00    -0.144 C  
HETATM    8  O   UNL     1     -10.490   6.212  66.587  1.00  0.00    -0.220 OA 
HETATM    9  H   UNL     1      -7.485   6.310  67.652  1.00  0.00     0.000 HD 
HETATM   10  N   UNL     1      -8.499   6.358  67.753  1.00  0.00    -0.117 N  
BRANCH  10  11
HETATM   11  C   UNL     1      -9.017   6.583  69.056  1.00  0.00    -0.129 A  
HETATM   12  C   UNL     1      -9.602   5.578  69.832  1.00  0.00    -0.217 A  
HETATM   13  C   UNL     1     -10.126   5.843  71.098  1.00  0.00    -0.249 A  
HETATM   14  C   UNL     1     -10.079   7.130  71.633  1.00  0.00    -0.197 A  
HETATM   15  C   UNL     1     -10.669   7.408  72.992  1.00  0.00    -0.364 C  
HETATM   16  C   UNL     1      -9.478   8.146  70.870  1.00  0.00    -0.186 A  
HETATM   17  C   UNL     1      -8.953   7.874  69.594  1.00  0.00    -0.146 A  
HETATM   18  F   UNL     1      -9.744   7.857  73.884  1.00  0.00    -0.335 F  
HETATM   19  F   UNL     1     -11.646   8.356  72.953  1.00  0.00    -0.440 F  
HETATM   20  F   UNL     1     -11.241   6.312  73.570  1.00  0.00    -0.220 F  
ENDBRANCH  10  11
ENDBRANCH   3   7
TORSDOF 2
ENDMDL
MODEL      140
REMARK 921   NORMALIZED FREE ENERGY PREDICTED BY IDOCK:   -3.26 KCAL/MOL
REMARK 922        TOTAL FREE ENERGY PREDICTED BY IDOCK:   -3.90 KCAL/MOL
REMARK 923 INTER-LIGAND FREE ENERGY PREDICTED BY IDOCK:   -3.77 KCAL/MOL
REMARK 924 INTRA-LIGAND FREE ENERGY PREDICTED BY IDOCK:   -0.14 KCAL/MOL
REMARK 927      BINDING AFFINITY PREDICTED BY RF-SCORE:    0.00 PKD
ROOT
HETATM    1  C   UNL     1      -8.996   3.776  65.116  1.00  0.00    -0.132 C  
HETATM    2  C   UNL     1      -8.805   3.756  66.585  1.00  0.00    -0.126 A  
HETATM    3  C   UNL     1      -9.082   4.633  67.621  1.00  0.00    -0.133 A  
HETATM    4  O   UNL     1      -8.231   2.627  67.081  1.00  0.00    -0.074 OA 
HETATM    5  C   UNL     1      -8.617   3.932  68.757  1.00  0.00    -0.089 A  
HETATM    6  N   UNL     1      -8.111   2.738  68.455  1.00  0.00    -0.060 NA 
ENDROOT
BRANCH   3   7
HETATM    7  C   UNL     1      -9.702   5.935  67.447  1.00  0.00    -0.117 C  
HETATM    8  O   UNL     1     -10.913   6.041  67.605  1.00  0.00    -0.305 OA 
HETATM    9  H   UNL     1      -7.869   6.792  67.018  1.00  0.00     0.000 HD 
HETATM   10  N   UNL     1      -8.865   6.991  67.106  1.00  0.00    -0.119 N  
BRANCH  10  11
HETATM   11  C   UNL     1      -9.288   8.327  66.871  1.00  0.00    -0.176 A  
HETATM   12  C   UNL     1      -9.013   9.022  65.690  1.00  0.00    -0.249 A  
HETATM   13  C   UNL     1      -9.422  10.344  65.506  1.00  0.00    -0.267 A  
HETATM   14  C   UNL     1     -10.125  11.016  66.504  1.00  0.00    -0.270 A  
HETATM   15  C   UNL     1     -10.541  12.451  66.302  1.00  0.00    -0.249 C  
HETATM   16  C   UNL     1     -10.424  10.324  67.690  1.00  0.00    -0.285 A  
HETATM   17  C   UNL     1     -10.008   8.993  67.871  1.00  0.00    -0.220 A  
HETATM   18  F   UNL     1     -11.891  12.617  66.339  1.00  0.00    -0.393 F  
HETATM   19  F   UNL     1     -10.033  13.280  67.257  1.00  0.00    -0.220 F  
HETATM   20  F   UNL     1     -10.135  12.971  65.108  1.00  0.00    -0.281 F  
ENDBRANCH  10  11
ENDBRANCH   3   7
TORSDOF 2
ENDMDL
MODEL      141
REMARK 921   NORMALIZED FREE ENERGY PREDICTED BY IDOCK:   -3.25 KCAL/MOL
REMARK 922        TOTAL FREE ENERGY PREDICTED BY IDOCK:   -3.90 KCAL/MOL
REMARK 923 INTER-LIGAND FREE ENERGY PREDICTED BY IDOCK:   -4.30 KCAL/MOL
REMARK 924 INTRA-LIGAND FREE ENERGY PREDICTED BY IDOCK:    0.40 KCAL/MOL
REMARK 927      BINDING AFFINITY PREDICTED BY RF-SCORE:    0.00 PKD
ROOT
HETATM    1  C   UNL     1     -10.577  10.071  67.595  1.00  0.00    -0.323 C  
HETATM    2  C   UNL     1     -11.189  11.027  68.547  1.00  0.00    -0.268 A  
HETATM    3  C   UNL     1     -11.544  10.983  69.886  1.00  0.00    -0.416 A  
HETATM    4  O   UNL     1     -11.484  12.250  68.034  1.00  0.00    -0.275 OA 
HETATM    5  C   UNL     1     -12.077  12.273  70.110  1.00  0.00    -0.287 A  
HETATM    6  N   UNL     1     -12.047  13.040  69.020  1.00  0.00    -0.244 NA 
ENDROOT
BRANCH   3   7
HETATM    7  C   UNL     1     -11.363   9.826  70.744  1.00  0.00    -0.342 C  
HETATM    8  O   UNL     1     -12.055   9.718  71.750  1.00  0.00    -0.390 OA 
HETATM    9  H   UNL     1      -9.894   9.082  69.492  1.00  0.00     0.000 HD 
HETATM   10  N   UNL     1     -10.399   8.901  70.359  1.00  0.00    -0.195 N  
BRANCH  10  11
HETATM   11  C   UNL     1     -10.062   7.724  71.078  1.00  0.00    -0.185 A  
HETATM   12  C   UNL     1     -10.040   7.658  72.474  1.00  0.00    -0.284 A  
HETATM   13  C   UNL     1      -9.677   6.490  73.147  1.00  0.00    -0.171 A  
HETATM   14  C   UNL     1      -9.323   5.342  72.439  1.00  0.00    -0.157 A  
HETATM   15  C   UNL     1      -8.911   4.094  73.177  1.00  0.00    -0.102 C  
HETATM   16  C   UNL     1      -9.358   5.389  71.035  1.00  0.00    -0.188 A  
HETATM   17  C   UNL     1      -9.723   6.569  70.362  1.00  0.00    -0.186 A  
HETATM   18  F   UNL     1      -9.733   3.039  72.925  1.00  0.00    -0.130 F  
HETATM   19  F   UNL     1      -7.656   3.681  72.842  1.00  0.00    -0.055 F  
HETATM   20  F   UNL     1      -8.901   4.243  74.532  1.00  0.00    -0.099 F  
ENDBRANCH  10  11
ENDBRANCH   3   7
TORSDOF 2
ENDMDL
MODEL      142
REMARK 921   NORMALIZED FREE ENERGY PREDICTED BY IDOCK:   -3.20 KCAL/MOL
REMARK 922        TOTAL FREE ENERGY PREDICTED BY IDOCK:   -3.84 KCAL/MOL
REMARK 923 INTER-LIGAND FREE ENERGY PREDICTED BY IDOCK:   -3.87 KCAL/MOL
REMARK 924 INTRA-LIGAND FREE ENERGY PREDICTED BY IDOCK:    0.03 KCAL/MOL
REMARK 927      BINDING AFFINITY PREDICTED BY RF-SCORE:    0.00 PKD
ROOT
HETATM    1  C   UNL     1     -10.550  19.231  67.799  1.00  0.00    -0.516 C  
HETATM    2  C   UNL     1      -9.331  18.988  66.994  1.00  0.00    -0.309 A  
HETATM    3  C   UNL     1      -8.509  17.896  66.767  1.00  0.00    -0.268 A  
HETATM    4  O   UNL     1      -8.877  20.059  66.290  1.00  0.00    -0.343 OA 
HETATM    5  C   UNL     1      -7.536  18.416  65.883  1.00  0.00    -0.173 A  
HETATM    6  N   UNL     1      -7.740  19.699  65.587  1.00  0.00    -0.419 NA 
ENDROOT
BRANCH   3   7
HETATM    7  C   UNL     1      -8.707  16.585  67.359  1.00  0.00    -0.182 C  
HETATM    8  O   UNL     1      -9.679  16.402  68.083  1.00  0.00    -0.223 OA 
HETATM    9  H   UNL     1      -7.005  15.866  66.429  1.00  0.00     0.000 HD 
HETATM   10  N   UNL     1      -7.764  15.609  67.059  1.00  0.00    -0.222 N  
BRANCH  10  11
HETATM   11  C   UNL     1      -7.775  14.280  67.561  1.00  0.00    -0.191 A  
HETATM   12  C   UNL     1      -8.631  13.285  67.079  1.00  0.00    -0.169 A  
HETATM   13  C   UNL     1      -8.632  11.997  67.615  1.00  0.00    -0.163 A  
HETATM   14  C   UNL     1      -7.770  11.659  68.658  1.00  0.00    -0.134 A  
HETATM   15  C   UNL     1      -7.797  10.271  69.244  1.00  0.00    -0.142 C  
HETATM   16  C   UNL     1      -6.892  12.645  69.140  1.00  0.00    -0.057 A  
HETATM   17  C   UNL     1      -6.895  13.942  68.597  1.00  0.00    -0.101 A  
HETATM   18  F   UNL     1      -6.611   9.619  69.105  1.00  0.00    -0.047 F  
HETATM   19  F   UNL     1      -8.071  10.274  70.579  1.00  0.00    -0.086 F  
HETATM   20  F   UNL     1      -8.736   9.460  68.677  1.00  0.00    -0.125 F  
ENDBRANCH  10  11
ENDBRANCH   3   7
TORSDOF 2
ENDMDL
MODEL      143
REMARK 921   NORMALIZED FREE ENERGY PREDICTED BY IDOCK:   -3.17 KCAL/MOL
REMARK 922        TOTAL FREE ENERGY PREDICTED BY IDOCK:   -3.81 KCAL/MOL
REMARK 923 INTER-LIGAND FREE ENERGY PREDICTED BY IDOCK:   -3.69 KCAL/MOL
REMARK 924 INTRA-LIGAND FREE ENERGY PREDICTED BY IDOCK:   -0.12 KCAL/MOL
REMARK 927      BINDING AFFINITY PREDICTED BY RF-SCORE:    0.00 PKD
ROOT
HETATM    1  C   UNL     1      -9.780   5.333  70.601  1.00  0.00    -0.249 C  
HETATM    2  C   UNL     1      -9.610   4.748  69.251  1.00  0.00    -0.173 A  
HETATM    3  C   UNL     1      -9.368   5.258  67.985  1.00  0.00    -0.135 A  
HETATM    4  O   UNL     1      -9.698   3.393  69.190  1.00  0.00    -0.122 OA 
HETATM    5  C   UNL     1      -9.330   4.096  67.182  1.00  0.00    -0.176 A  
HETATM    6  N   UNL     1      -9.522   2.978  67.882  1.00  0.00    -0.198 NA 
ENDROOT
BRANCH   3   7
HETATM    7  C   UNL     1      -9.212   6.671  67.689  1.00  0.00    -0.110 C  
HETATM    8  O   UNL     1      -8.356   7.017  66.882  1.00  0.00    -0.115 OA 
HETATM    9  H   UNL     1     -10.748   7.151  68.989  1.00  0.00     0.000 HD 
HETATM   10  N   UNL     1     -10.059   7.551  68.352  1.00  0.00    -0.175 N  
BRANCH  10  11
HETATM   11  C   UNL     1     -10.042   8.965  68.212  1.00  0.00    -0.187 A  
HETATM   12  C   UNL     1      -9.387   9.816  69.106  1.00  0.00    -0.185 A  
HETATM   13  C   UNL     1      -9.416  11.203  68.952  1.00  0.00    -0.136 A  
HETATM   14  C   UNL     1     -10.103  11.786  67.888  1.00  0.00    -0.195 A  
HETATM   15  C   UNL     1     -10.146  13.286  67.745  1.00  0.00    -0.229 C  
HETATM   16  C   UNL     1     -10.752  10.941  66.971  1.00  0.00    -0.323 A  
HETATM   17  C   UNL     1     -10.721   9.544  67.133  1.00  0.00    -0.252 A  
HETATM   18  F   UNL     1      -9.581  13.719  66.585  1.00  0.00    -0.249 F  
HETATM   19  F   UNL     1     -11.417  13.775  67.750  1.00  0.00    -0.282 F  
HETATM   20  F   UNL     1      -9.493  13.946  68.745  1.00  0.00    -0.202 F  
ENDBRANCH  10  11
ENDBRANCH   3   7
TORSDOF 2
ENDMDL
MODEL      144
REMARK 921   NORMALIZED FREE ENERGY PREDICTED BY IDOCK:   -3.16 KCAL/MOL
REMARK 922        TOTAL FREE ENERGY PREDICTED BY IDOCK:   -3.79 KCAL/MOL
REMARK 923 INTER-LIGAND FREE ENERGY PREDICTED BY IDOCK:   -3.55 KCAL/MOL
REMARK 924 INTRA-LIGAND FREE ENERGY PREDICTED BY IDOCK:   -0.25 KCAL/MOL
REMARK 927      BINDING AFFINITY PREDICTED BY RF-SCORE:    0.00 PKD
ROOT
HETATM    1  C   UNL     1     -12.342  11.180  70.470  1.00  0.00    -0.454 C  
HETATM    2  C   UNL     1     -11.398  10.418  69.620  1.00  0.00    -0.272 A  
HETATM    3  C   UNL     1     -10.570  10.731  68.553  1.00  0.00    -0.223 A  
HETATM    4  O   UNL     1     -11.277   9.099  69.924  1.00  0.00    -0.206 OA 
HETATM    5  C   UNL     1      -9.965   9.489  68.254  1.00  0.00    -0.161 A  
HETATM    6  N   UNL     1     -10.371   8.509  69.060  1.00  0.00    -0.215 NA 
ENDROOT
BRANCH   3   7
HETATM    7  C   UNL     1     -10.448  12.056  67.972  1.00  0.00    -0.207 C  
HETATM    8  O   UNL     1     -11.264  12.412  67.129  1.00  0.00    -0.264 OA 
HETATM    9  H   UNL     1      -8.788  12.455  69.141  1.00  0.00     0.000 HD 
HETATM   10  N   UNL     1      -9.396  12.846  68.421  1.00  0.00    -0.185 N  
BRANCH  10  11
HETATM   11  C   UNL     1      -9.101  14.155  67.956  1.00  0.00    -0.191 A  
HETATM   12  C   UNL     1      -9.200  15.295  68.760  1.00  0.00    -0.203 A  
HETATM   13  C   UNL     1      -8.928  16.569  68.260  1.00  0.00    -0.214 A  
HETATM   14  C   UNL     1      -8.543  16.745  66.932  1.00  0.00    -0.240 A  
HETATM   15  C   UNL     1      -8.274  18.130  66.398  1.00  0.00    -0.253 C  
HETATM   16  C   UNL     1      -8.422  15.607  66.117  1.00  0.00    -0.037 A  
HETATM   17  C   UNL     1      -8.698  14.325  66.626  1.00  0.00    -0.098 A  
HETATM   18  F   UNL     1      -6.994  18.285  65.964  1.00  0.00    -0.235 F  
HETATM   19  F   UNL     1      -9.072  18.444  65.340  1.00  0.00     0.391 F  
HETATM   20  F   UNL     1      -8.476  19.115  67.319  1.00  0.00    -0.277 F  
ENDBRANCH  10  11
ENDBRANCH   3   7
TORSDOF 2
ENDMDL
MODEL      145
REMARK 921   NORMALIZED FREE ENERGY PREDICTED BY IDOCK:   -3.14 KCAL/MOL
REMARK 922        TOTAL FREE ENERGY PREDICTED BY IDOCK:   -3.77 KCAL/MOL
REMARK 923 INTER-LIGAND FREE ENERGY PREDICTED BY IDOCK:   -3.39 KCAL/MOL
REMARK 924 INTRA-LIGAND FREE ENERGY PREDICTED BY IDOCK:   -0.38 KCAL/MOL
REMARK 927      BINDING AFFINITY PREDICTED BY RF-SCORE:    0.00 PKD
ROOT
HETATM    1  C   UNL     1      -6.444   4.794  64.968  1.00  0.00    -0.036 C  
HETATM    2  C   UNL     1      -7.539   4.253  65.805  1.00  0.00    -0.086 A  
HETATM    3  C   UNL     1      -8.444   4.796  66.703  1.00  0.00    -0.106 A  
HETATM    4  O   UNL     1      -7.747   2.915  65.697  1.00  0.00    -0.076 OA 
HETATM    5  C   UNL     1      -9.190   3.669  67.116  1.00  0.00    -0.188 A  
HETATM    6  N   UNL     1      -8.791   2.542  66.526  1.00  0.00    -0.124 NA 
ENDROOT
BRANCH   3   7
HETATM    7  C   UNL     1      -8.506   6.205  67.052  1.00  0.00    -0.105 C  
HETATM    8  O   UNL     1      -7.811   6.619  67.973  1.00  0.00    -0.109 OA 
HETATM    9  H   UNL     1      -9.883   6.555  65.548  1.00  0.00     0.000 HD 
HETATM   10  N   UNL     1      -9.365   7.002  66.305  1.00  0.00    -0.139 N  
BRANCH  10  11
HETATM   11  C   UNL     1      -9.579   8.391  66.511  1.00  0.00    -0.236 A  
HETATM   12  C   UNL     1     -10.594   8.898  67.328  1.00  0.00    -0.304 A  
HETATM   13  C   UNL     1     -10.791  10.271  67.485  1.00  0.00    -0.355 A  
HETATM   14  C   UNL     1      -9.971  11.187  66.826  1.00  0.00    -0.242 A  
HETATM   15  C   UNL     1     -10.209  12.667  66.986  1.00  0.00    -0.226 C  
HETATM   16  C   UNL     1      -8.936  10.691  66.016  1.00  0.00    -0.189 A  
HETATM   17  C   UNL     1      -8.743   9.307  65.860  1.00  0.00    -0.179 A  
HETATM   18  F   UNL     1      -9.146  13.313  67.539  1.00  0.00    -0.176 F  
HETATM   19  F   UNL     1     -10.450  13.288  65.797  1.00  0.00    -0.265 F  
HETATM   20  F   UNL     1     -11.278  12.963  67.780  1.00  0.00    -0.253 F  
ENDBRANCH  10  11
ENDBRANCH   3   7
TORSDOF 2
ENDMDL
MODEL      146
REMARK 921   NORMALIZED FREE ENERGY PREDICTED BY IDOCK:   -3.11 KCAL/MOL
REMARK 922        TOTAL FREE ENERGY PREDICTED BY IDOCK:   -3.74 KCAL/MOL
REMARK 923 INTER-LIGAND FREE ENERGY PREDICTED BY IDOCK:   -3.61 KCAL/MOL
REMARK 924 INTRA-LIGAND FREE ENERGY PREDICTED BY IDOCK:   -0.14 KCAL/MOL
REMARK 927      BINDING AFFINITY PREDICTED BY RF-SCORE:    0.00 PKD
ROOT
HETATM    1  C   UNL     1      -8.435  10.812  66.017  1.00  0.00    -0.169 C  
HETATM    2  C   UNL     1      -7.827  11.445  67.209  1.00  0.00    -0.149 A  
HETATM    3  C   UNL     1      -7.953  11.278  68.579  1.00  0.00    -0.145 A  
HETATM    4  O   UNL     1      -6.919  12.423  66.948  1.00  0.00    -0.059 OA 
HETATM    5  C   UNL     1      -7.055  12.240  69.095  1.00  0.00    -0.003 A  
HETATM    6  N   UNL     1      -6.430  12.928  68.140  1.00  0.00    -0.084 NA 
ENDROOT
BRANCH   3   7
HETATM    7  C   UNL     1      -8.836  10.312  69.208  1.00  0.00    -0.177 C  
HETATM    8  O   UNL     1     -10.045  10.405  69.025  1.00  0.00    -0.192 OA 
HETATM    9  H   UNL     1      -7.222   9.334  70.056  1.00  0.00     0.000 HD 
HETATM   10  N   UNL     1      -8.240   9.328  69.988  1.00  0.00    -0.135 N  
BRANCH  10  11
HETATM   11  C   UNL     1      -8.936   8.314  70.699  1.00  0.00    -0.151 A  
HETATM   12  C   UNL     1      -8.731   6.948  70.484  1.00  0.00    -0.150 A  
HETATM   13  C   UNL     1      -9.454   5.980  71.182  1.00  0.00    -0.182 A  
HETATM   14  C   UNL     1     -10.411   6.350  72.126  1.00  0.00    -0.234 A  
HETATM   15  C   UNL     1     -11.202   5.295  72.857  1.00  0.00    -0.312 C  
HETATM   16  C   UNL     1     -10.616   7.720  72.364  1.00  0.00    -0.336 A  
HETATM   17  C   UNL     1      -9.885   8.691  71.657  1.00  0.00    -0.351 A  
HETATM   18  F   UNL     1     -11.007   5.332  74.203  1.00  0.00    -0.309 F  
HETATM   19  F   UNL     1     -12.545   5.425  72.667  1.00  0.00    -0.243 F  
HETATM   20  F   UNL     1     -10.896   4.023  72.472  1.00  0.00    -0.227 F  
ENDBRANCH  10  11
ENDBRANCH   3   7
TORSDOF 2
ENDMDL
MODEL      147
REMARK 921   NORMALIZED FREE ENERGY PREDICTED BY IDOCK:   -3.08 KCAL/MOL
REMARK 922        TOTAL FREE ENERGY PREDICTED BY IDOCK:   -3.71 KCAL/MOL
REMARK 923 INTER-LIGAND FREE ENERGY PREDICTED BY IDOCK:   -3.45 KCAL/MOL
REMARK 924 INTRA-LIGAND FREE ENERGY PREDICTED BY IDOCK:   -0.26 KCAL/MOL
REMARK 927      BINDING AFFINITY PREDICTED BY RF-SCORE:    0.00 PKD
ROOT
HETATM    1  C   UNL     1      -8.229  16.714  67.190  1.00  0.00    -0.206 C  
HETATM    2  C   UNL     1      -9.320  16.206  68.053  1.00  0.00    -0.203 A  
HETATM    3  C   UNL     1      -9.735  14.951  68.470  1.00  0.00    -0.215 A  
HETATM    4  O   UNL     1     -10.127  17.158  68.592  1.00  0.00    -0.289 OA 
HETATM    5  C   UNL     1     -10.851  15.246  69.285  1.00  0.00    -0.257 A  
HETATM    6  N   UNL     1     -11.097  16.553  69.371  1.00  0.00    -0.293 NA 
ENDROOT
BRANCH   3   7
HETATM    7  C   UNL     1      -9.092  13.707  68.085  1.00  0.00    -0.195 C  
HETATM    8  O   UNL     1      -7.875  13.611  68.190  1.00  0.00    -0.121 OA 
HETATM    9  H   UNL     1     -10.919  12.873  67.590  1.00  0.00     0.000 HD 
HETATM   10  N   UNL     1      -9.916  12.690  67.617  1.00  0.00    -0.212 N  
BRANCH  10  11
HETATM   11  C   UNL     1      -9.472  11.416  67.174  1.00  0.00    -0.175 A  
HETATM   12  C   UNL     1      -9.159  11.134  65.841  1.00  0.00    -0.218 A  
HETATM   13  C   UNL     1      -8.751   9.862  65.437  1.00  0.00    -0.175 A  
HETATM   14  C   UNL     1      -8.641   8.824  66.362  1.00  0.00    -0.138 A  
HETATM   15  C   UNL     1      -8.222   7.448  65.910  1.00  0.00    -0.134 C  
HETATM   16  C   UNL     1      -8.935   9.098  67.708  1.00  0.00    -0.132 A  
HETATM   17  C   UNL     1      -9.347  10.381  68.109  1.00  0.00    -0.149 A  
HETATM   18  F   UNL     1      -7.064   7.034  66.494  1.00  0.00    -0.068 F  
HETATM   19  F   UNL     1      -9.152   6.497  66.202  1.00  0.00    -0.153 F  
HETATM   20  F   UNL     1      -8.012   7.359  64.565  1.00  0.00    -0.120 F  
ENDBRANCH  10  11
ENDBRANCH   3   7
TORSDOF 2
ENDMDL
MODEL      148
REMARK 921   NORMALIZED FREE ENERGY PREDICTED BY IDOCK:   -3.03 KCAL/MOL
REMARK 922        TOTAL FREE ENERGY PREDICTED BY IDOCK:   -3.65 KCAL/MOL
REMARK 923 INTER-LIGAND FREE ENERGY PREDICTED BY IDOCK:   -3.54 KCAL/MOL
REMARK 924 INTRA-LIGAND FREE ENERGY PREDICTED BY IDOCK:   -0.11 KCAL/MOL
REMARK 927      BINDING AFFINITY PREDICTED BY RF-SCORE:    0.00 PKD
ROOT
HETATM    1  C   UNL     1      -8.532  17.815  66.196  1.00  0.00    -0.158 C  
HETATM    2  C   UNL     1      -7.618  17.959  67.352  1.00  0.00    -0.206 A  
HETATM    3  C   UNL     1      -7.254  17.154  68.420  1.00  0.00    -0.209 A  
HETATM    4  O   UNL     1      -6.952  19.142  67.423  1.00  0.00    -0.207 OA 
HETATM    5  C   UNL     1      -6.331  17.963  69.121  1.00  0.00    -0.236 A  
HETATM    6  N   UNL     1      -6.138  19.148  68.542  1.00  0.00    -0.219 NA 
ENDROOT
BRANCH   3   7
HETATM    7  C   UNL     1      -7.772  15.817  68.650  1.00  0.00    -0.153 C  
HETATM    8  O   UNL     1      -8.060  15.481  69.794  1.00  0.00    -0.183 OA 
HETATM    9  H   UNL     1      -7.656  15.384  66.631  1.00  0.00     0.000 HD 
HETATM   10  N   UNL     1      -7.909  14.994  67.539  1.00  0.00    -0.166 N  
BRANCH  10  11
HETATM   11  C   UNL     1      -8.374  13.652  67.567  1.00  0.00    -0.188 A  
HETATM   12  C   UNL     1      -9.669  13.281  67.194  1.00  0.00    -0.236 A  
HETATM   13  C   UNL     1     -10.099  11.955  67.261  1.00  0.00    -0.213 A  
HETATM   14  C   UNL     1      -9.240  10.950  67.705  1.00  0.00    -0.155 A  
HETATM   15  C   UNL     1      -9.725   9.526  67.795  1.00  0.00    -0.147 C  
HETATM   16  C   UNL     1      -7.930  11.306  68.067  1.00  0.00    -0.119 A  
HETATM   17  C   UNL     1      -7.502  12.645  67.998  1.00  0.00    -0.120 A  
HETATM   18  F   UNL     1      -9.021   8.681  66.994  1.00  0.00    -0.126 F  
HETATM   19  F   UNL     1      -9.625   9.020  69.056  1.00  0.00    -0.154 F  
HETATM   20  F   UNL     1     -11.032   9.373  67.439  1.00  0.00    -0.351 F  
ENDBRANCH  10  11
ENDBRANCH   3   7
TORSDOF 2
ENDMDL
MODEL      149
REMARK 921   NORMALIZED FREE ENERGY PREDICTED BY IDOCK:   -2.89 KCAL/MOL
REMARK 922        TOTAL FREE ENERGY PREDICTED BY IDOCK:   -3.50 KCAL/MOL
REMARK 923 INTER-LIGAND FREE ENERGY PREDICTED BY IDOCK:   -3.19 KCAL/MOL
REMARK 924 INTRA-LIGAND FREE ENERGY PREDICTED BY IDOCK:   -0.30 KCAL/MOL
REMARK 927      BINDING AFFINITY PREDICTED BY RF-SCORE:    0.00 PKD
ROOT
HETATM    1  C   UNL     1     -10.176  15.101  70.252  1.00  0.00    -0.027 C  
HETATM    2  C   UNL     1     -10.293  15.169  68.777  1.00  0.00    -0.236 A  
HETATM    3  C   UNL     1      -9.944  14.335  67.727  1.00  0.00    -0.227 A  
HETATM    4  O   UNL     1     -10.881  16.295  68.293  1.00  0.00    -0.310 OA 
HETATM    5  C   UNL     1     -10.366  15.066  66.594  1.00  0.00    -0.278 A  
HETATM    6  N   UNL     1     -10.928  16.232  66.911  1.00  0.00    -0.143 NA 
ENDROOT
BRANCH   3   7
HETATM    7  C   UNL     1      -9.300  13.043  67.888  1.00  0.00    -0.212 C  
HETATM    8  O   UNL     1      -8.086  12.963  67.739  1.00  0.00    -0.140 OA 
HETATM    9  H   UNL     1     -11.114  12.151  68.324  1.00  0.00     0.000 HD 
HETATM   10  N   UNL     1     -10.119  11.966  68.205  1.00  0.00    -0.192 N  
BRANCH  10  11
HETATM   11  C   UNL     1      -9.678  10.627  68.377  1.00  0.00    -0.166 A  
HETATM   12  C   UNL     1      -9.945   9.607  67.459  1.00  0.00    -0.231 A  
HETATM   13  C   UNL     1      -9.518   8.296  67.676  1.00  0.00    -0.176 A  
HETATM   14  C   UNL     1      -8.804   7.961  68.826  1.00  0.00    -0.138 A  
HETATM   15  C   UNL     1      -8.370   6.537  69.060  1.00  0.00    -0.116 C  
HETATM   16  C   UNL     1      -8.514   8.980  69.749  1.00  0.00    -0.132 A  
HETATM   17  C   UNL     1      -8.947  10.299  69.526  1.00  0.00    -0.176 A  
HETATM   18  F   UNL     1      -7.017   6.407  69.137  1.00  0.00    -0.057 F  
HETATM   19  F   UNL     1      -8.864   6.024  70.221  1.00  0.00    -0.135 F  
HETATM   20  F   UNL     1      -8.770   5.679  68.078  1.00  0.00    -0.103 F  
ENDBRANCH  10  11
ENDBRANCH   3   7
TORSDOF 2
ENDMDL
MODEL      150
REMARK 921   NORMALIZED FREE ENERGY PREDICTED BY IDOCK:   -2.88 KCAL/MOL
REMARK 922        TOTAL FREE ENERGY PREDICTED BY IDOCK:   -3.48 KCAL/MOL
REMARK 923 INTER-LIGAND FREE ENERGY PREDICTED BY IDOCK:   -3.16 KCAL/MOL
REMARK 924 INTRA-LIGAND FREE ENERGY PREDICTED BY IDOCK:   -0.32 KCAL/MOL
REMARK 927      BINDING AFFINITY PREDICTED BY RF-SCORE:    0.00 PKD
ROOT
HETATM    1  C   UNL     1      -6.588   9.329  64.857  1.00  0.00    -0.075 C  
HETATM    2  C   UNL     1      -7.811  10.157  64.759  1.00  0.00    -0.146 A  
HETATM    3  C   UNL     1      -8.701  10.703  65.670  1.00  0.00    -0.198 A  
HETATM    4  O   UNL     1      -8.186  10.492  63.496  1.00  0.00    -0.155 OA 
HETATM    5  C   UNL     1      -9.627  11.373  64.840  1.00  0.00    -0.215 A  
HETATM    6  N   UNL     1      -9.335  11.261  63.545  1.00  0.00    -0.222 NA 
ENDROOT
BRANCH   3   7
HETATM    7  C   UNL     1      -8.596  10.546  67.111  1.00  0.00    -0.127 C  
HETATM    8  O   UNL     1      -8.140  11.468  67.777  1.00  0.00    -0.123 OA 
HETATM    9  H   UNL     1      -9.409   8.647  67.000  1.00  0.00     0.000 HD 
HETATM   10  N   UNL     1      -9.029   9.338  67.646  1.00  0.00    -0.119 N  
BRANCH  10  11
HETATM   11  C   UNL     1      -8.984   8.991  69.022  1.00  0.00    -0.140 A  
HETATM   12  C   UNL     1     -10.117   8.948  69.840  1.00  0.00    -0.204 A  
HETATM   13  C   UNL     1     -10.030   8.629  71.196  1.00  0.00    -0.289 A  
HETATM   14  C   UNL     1      -8.798   8.339  71.781  1.00  0.00    -0.230 A  
HETATM   15  C   UNL     1      -8.714   8.018  73.252  1.00  0.00    -0.245 C  
HETATM   16  C   UNL     1      -7.653   8.361  70.967  1.00  0.00    -0.084 A  
HETATM   17  C   UNL     1      -7.746   8.685  69.601  1.00  0.00    -0.089 A  
HETATM   18  F   UNL     1      -8.230   6.769  73.490  1.00  0.00    -0.110 F  
HETATM   19  F   UNL     1      -7.896   8.874  73.926  1.00  0.00    -0.126 F  
HETATM   20  F   UNL     1      -9.918   8.078  73.890  1.00  0.00    -0.259 F  
ENDBRANCH  10  11
ENDBRANCH   3   7
TORSDOF 2
ENDMDL
MODEL      151
REMARK 921   NORMALIZED FREE ENERGY PREDICTED BY IDOCK:   -2.78 KCAL/MOL
REMARK 922        TOTAL FREE ENERGY PREDICTED BY IDOCK:   -3.37 KCAL/MOL
REMARK 923 INTER-LIGAND FREE ENERGY PREDICTED BY IDOCK:   -3.43 KCAL/MOL
REMARK 924 INTRA-LIGAND FREE ENERGY PREDICTED BY IDOCK:    0.06 KCAL/MOL
REMARK 927      BINDING AFFINITY PREDICTED BY RF-SCORE:    0.00 PKD
ROOT
HETATM    1  C   UNL     1      -7.197   8.014  68.479  1.00  0.00    -0.085 C  
HETATM    2  C   UNL     1      -7.676   7.706  67.112  1.00  0.00    -0.112 A  
HETATM    3  C   UNL     1      -8.543   8.313  66.218  1.00  0.00    -0.152 A  
HETATM    4  O   UNL     1      -7.168   6.572  66.560  1.00  0.00    -0.070 OA 
HETATM    5  C   UNL     1      -8.508   7.441  65.106  1.00  0.00    -0.022 A  
HETATM    6  N   UNL     1      -7.694   6.402  65.291  1.00  0.00    -0.091 NA 
ENDROOT
BRANCH   3   7
HETATM    7  C   UNL     1      -9.259   9.549  66.483  1.00  0.00    -0.160 C  
HETATM    8  O   UNL     1     -10.356   9.723  65.964  1.00  0.00    -0.221 OA 
HETATM    9  H   UNL     1      -7.734  10.210  67.714  1.00  0.00     0.000 HD 
HETATM   10  N   UNL     1      -8.640  10.468  67.323  1.00  0.00    -0.123 N  
BRANCH  10  11
HETATM   11  C   UNL     1      -9.170  11.736  67.679  1.00  0.00    -0.180 A  
HETATM   12  C   UNL     1      -8.632  12.946  67.229  1.00  0.00    -0.205 A  
HETATM   13  C   UNL     1      -9.164  14.175  67.623  1.00  0.00    -0.193 A  
HETATM   14  C   UNL     1     -10.259  14.234  68.483  1.00  0.00    -0.245 A  
HETATM   15  C   UNL     1     -10.809  15.568  68.919  1.00  0.00    -0.254 C  
HETATM   16  C   UNL     1     -10.820  13.025  68.930  1.00  0.00    -0.244 A  
HETATM   17  C   UNL     1     -10.280  11.789  68.531  1.00  0.00    -0.215 A  
HETATM   18  F   UNL     1     -12.102  15.753  68.537  1.00  0.00    -0.365 F  
HETATM   19  F   UNL     1     -10.790  15.722  70.273  1.00  0.00    -0.263 F  
HETATM   20  F   UNL     1     -10.117  16.631  68.417  1.00  0.00    -0.231 F  
ENDBRANCH  10  11
ENDBRANCH   3   7
TORSDOF 2
ENDMDL
MODEL      152
REMARK 921   NORMALIZED FREE ENERGY PREDICTED BY IDOCK:   -2.62 KCAL/MOL
REMARK 922        TOTAL FREE ENERGY PREDICTED BY IDOCK:   -3.19 KCAL/MOL
REMARK 923 INTER-LIGAND FREE ENERGY PREDICTED BY IDOCK:   -3.29 KCAL/MOL
REMARK 924 INTRA-LIGAND FREE ENERGY PREDICTED BY IDOCK:    0.11 KCAL/MOL
REMARK 927      BINDING AFFINITY PREDICTED BY RF-SCORE:    0.00 PKD
ROOT
HETATM    1  C   UNL     1      -8.204  16.884  66.913  1.00  0.00    -0.245 C  
HETATM    2  C   UNL     1      -7.237  16.970  68.032  1.00  0.00    -0.167 A  
HETATM    3  C   UNL     1      -6.709  16.067  68.941  1.00  0.00    -0.138 A  
HETATM    4  O   UNL     1      -6.713  18.204  68.254  1.00  0.00    -0.201 OA 
HETATM    5  C   UNL     1      -5.843  16.873  69.715  1.00  0.00    -0.217 A  
HETATM    6  N   UNL     1      -5.831  18.145  69.319  1.00  0.00    -0.218 NA 
ENDROOT
BRANCH   3   7
HETATM    7  C   UNL     1      -7.048  14.655  68.984  1.00  0.00    -0.128 C  
HETATM    8  O   UNL     1      -6.697  13.990  69.952  1.00  0.00    -0.096 OA 
HETATM    9  H   UNL     1      -8.018  14.795  67.163  1.00  0.00     0.000 HD 
HETATM   10  N   UNL     1      -7.762  14.145  67.906  1.00  0.00    -0.140 N  
BRANCH  10  11
HETATM   11  C   UNL     1      -8.162  12.791  67.758  1.00  0.00    -0.176 A  
HETATM   12  C   UNL     1      -7.392  11.832  67.094  1.00  0.00    -0.146 A  
HETATM   13  C   UNL     1      -7.831  10.515  66.944  1.00  0.00    -0.117 A  
HETATM   14  C   UNL     1      -9.063  10.113  67.458  1.00  0.00    -0.143 A  
HETATM   15  C   UNL     1      -9.536   8.695  67.269  1.00  0.00    -0.167 C  
HETATM   16  C   UNL     1      -9.840  11.063  68.143  1.00  0.00    -0.185 A  
HETATM   17  C   UNL     1      -9.393  12.388  68.290  1.00  0.00    -0.199 A  
HETATM   18  F   UNL     1      -9.722   8.042  68.449  1.00  0.00    -0.148 F  
HETATM   19  F   UNL     1     -10.726   8.625  66.609  1.00  0.00    -0.338 F  
HETATM   20  F   UNL     1      -8.670   7.924  66.551  1.00  0.00    -0.122 F  
ENDBRANCH  10  11
ENDBRANCH   3   7
TORSDOF 2
ENDMDL
MODEL      153
REMARK 921   NORMALIZED FREE ENERGY PREDICTED BY IDOCK:   -2.59 KCAL/MOL
REMARK 922        TOTAL FREE ENERGY PREDICTED BY IDOCK:   -3.16 KCAL/MOL
REMARK 923 INTER-LIGAND FREE ENERGY PREDICTED BY IDOCK:   -3.11 KCAL/MOL
REMARK 924 INTRA-LIGAND FREE ENERGY PREDICTED BY IDOCK:   -0.06 KCAL/MOL
REMARK 927      BINDING AFFINITY PREDICTED BY RF-SCORE:    0.00 PKD
ROOT
HETATM    1  C   UNL     1      -8.035   8.681  64.293  1.00  0.00    -0.148 C  
HETATM    2  C   UNL     1      -7.089   9.554  65.024  1.00  0.00    -0.109 A  
HETATM    3  C   UNL     1      -7.001  10.033  66.322  1.00  0.00    -0.104 A  
HETATM    4  O   UNL     1      -6.039  10.014  64.294  1.00  0.00    -0.114 OA 
HETATM    5  C   UNL     1      -5.824  10.814  66.287  1.00  0.00    -0.122 A  
HETATM    6  N   UNL     1      -5.238  10.813  65.091  1.00  0.00    -0.147 NA 
ENDROOT
BRANCH   3   7
HETATM    7  C   UNL     1      -7.959   9.732  67.372  1.00  0.00    -0.102 C  
HETATM    8  O   UNL     1      -9.132  10.051  67.215  1.00  0.00    -0.137 OA 
HETATM    9  H   UNL     1      -6.478   8.853  68.520  1.00  0.00     0.000 HD 
HETATM   10  N   UNL     1      -7.470   9.089  68.504  1.00  0.00    -0.084 N  
BRANCH  10  11
HETATM   11  C   UNL     1      -8.245   8.735  69.641  1.00  0.00    -0.113 A  
HETATM   12  C   UNL     1      -7.903   9.102  70.946  1.00  0.00    -0.163 A  
HETATM   13  C   UNL     1      -8.674   8.712  72.042  1.00  0.00    -0.235 A  
HETATM   14  C   UNL     1      -9.821   7.938  71.866  1.00  0.00    -0.233 A  
HETATM   15  C   UNL     1     -10.632   7.504  73.060  1.00  0.00    -0.368 C  
HETATM   16  C   UNL     1     -10.185   7.577  70.558  1.00  0.00    -0.201 A  
HETATM   17  C   UNL     1      -9.404   7.971  69.457  1.00  0.00    -0.156 A  
HETATM   18  F   UNL     1     -11.906   7.980  73.030  1.00  0.00    -0.419 F  
HETATM   19  F   UNL     1     -10.739   6.149  73.153  1.00  0.00    -0.220 F  
HETATM   20  F   UNL     1     -10.109   7.916  74.250  1.00  0.00     0.069 F  
ENDBRANCH  10  11
ENDBRANCH   3   7
TORSDOF 2
ENDMDL
MODEL      154
REMARK 921   NORMALIZED FREE ENERGY PREDICTED BY IDOCK:   -2.55 KCAL/MOL
REMARK 922        TOTAL FREE ENERGY PREDICTED BY IDOCK:   -3.11 KCAL/MOL
REMARK 923 INTER-LIGAND FREE ENERGY PREDICTED BY IDOCK:   -2.75 KCAL/MOL
REMARK 924 INTRA-LIGAND FREE ENERGY PREDICTED BY IDOCK:   -0.36 KCAL/MOL
REMARK 927      BINDING AFFINITY PREDICTED BY RF-SCORE:    0.00 PKD
ROOT
HETATM    1  C   UNL     1      -8.218  17.001  66.865  1.00  0.00    -0.245 C  
HETATM    2  C   UNL     1      -7.252  17.074  67.985  1.00  0.00    -0.167 A  
HETATM    3  C   UNL     1      -6.389  16.177  68.594  1.00  0.00    -0.118 A  
HETATM    4  O   UNL     1      -7.147  18.290  68.583  1.00  0.00    -0.257 OA 
HETATM    5  C   UNL     1      -5.781  16.963  69.600  1.00  0.00    -0.204 A  
HETATM    6  N   UNL     1      -6.218  18.222  69.606  1.00  0.00    -0.243 NA 
ENDROOT
BRANCH   3   7
HETATM    7  C   UNL     1      -6.242  14.787  68.200  1.00  0.00    -0.140 C  
HETATM    8  O   UNL     1      -5.416  14.498  67.341  1.00  0.00    -0.337 OA 
HETATM    9  H   UNL     1      -7.700  14.212  69.550  1.00  0.00     0.000 HD 
HETATM   10  N   UNL     1      -7.061  13.861  68.836  1.00  0.00    -0.109 N  
BRANCH  10  11
HETATM   11  C   UNL     1      -7.079  12.467  68.570  1.00  0.00    -0.100 A  
HETATM   12  C   UNL     1      -7.727  11.905  67.466  1.00  0.00    -0.151 A  
HETATM   13  C   UNL     1      -7.747  10.526  67.252  1.00  0.00    -0.106 A  
HETATM   14  C   UNL     1      -7.113   9.659  68.141  1.00  0.00    -0.079 A  
HETATM   15  C   UNL     1      -7.162   8.170  67.911  1.00  0.00    -0.091 C  
HETATM   16  C   UNL     1      -6.443  10.211  69.246  1.00  0.00    -0.047 A  
HETATM   17  C   UNL     1      -6.428  11.601  69.457  1.00  0.00    -0.122 A  
HETATM   18  F   UNL     1      -5.927   7.625  67.734  1.00  0.00    -0.034 F  
HETATM   19  F   UNL     1      -7.724   7.499  68.955  1.00  0.00    -0.102 F  
HETATM   20  F   UNL     1      -7.885   7.813  66.811  1.00  0.00    -0.098 F  
ENDBRANCH  10  11
ENDBRANCH   3   7
TORSDOF 2
ENDMDL
MODEL      155
REMARK 921   NORMALIZED FREE ENERGY PREDICTED BY IDOCK:   -2.42 KCAL/MOL
REMARK 922        TOTAL FREE ENERGY PREDICTED BY IDOCK:   -2.97 KCAL/MOL
REMARK 923 INTER-LIGAND FREE ENERGY PREDICTED BY IDOCK:   -2.97 KCAL/MOL
REMARK 924 INTRA-LIGAND FREE ENERGY PREDICTED BY IDOCK:    0.00 KCAL/MOL
REMARK 927      BINDING AFFINITY PREDICTED BY RF-SCORE:    0.00 PKD
ROOT
HETATM    1  C   UNL     1      -8.668   4.411  67.166  1.00  0.00    -0.106 C  
HETATM    2  C   UNL     1      -7.959   4.901  65.961  1.00  0.00    -0.107 A  
HETATM    3  C   UNL     1      -7.809   6.134  65.346  1.00  0.00    -0.106 A  
HETATM    4  O   UNL     1      -7.275   3.955  65.265  1.00  0.00    -0.065 OA 
HETATM    5  C   UNL     1      -6.992   5.830  64.233  1.00  0.00    -0.051 A  
HETATM    6  N   UNL     1      -6.663   4.541  64.171  1.00  0.00    -0.043 NA 
ENDROOT
BRANCH   3   7
HETATM    7  C   UNL     1      -8.405   7.367  65.829  1.00  0.00    -0.139 C  
HETATM    8  O   UNL     1      -9.403   7.306  66.538  1.00  0.00    -0.167 OA 
HETATM    9  H   UNL     1      -6.953   8.487  64.871  1.00  0.00     0.000 HD 
HETATM   10  N   UNL     1      -7.791   8.555  65.448  1.00  0.00    -0.101 N  
BRANCH  10  11
HETATM   11  C   UNL     1      -8.239   9.856  65.800  1.00  0.00    -0.125 A  
HETATM   12  C   UNL     1      -9.437  10.406  65.335  1.00  0.00    -0.285 A  
HETATM   13  C   UNL     1      -9.831  11.700  65.680  1.00  0.00    -0.270 A  
HETATM   14  C   UNL     1      -9.034  12.489  66.509  1.00  0.00    -0.133 A  
HETATM   15  C   UNL     1      -9.460  13.893  66.855  1.00  0.00    -0.258 C  
HETATM   16  C   UNL     1      -7.835  11.942  66.997  1.00  0.00    -0.152 A  
HETATM   17  C   UNL     1      -7.442  10.638  66.645  1.00  0.00    -0.129 A  
HETATM   18  F   UNL     1      -9.646  14.070  68.192  1.00  0.00    -0.193 F  
HETATM   19  F   UNL     1      -8.541  14.825  66.477  1.00  0.00    -0.262 F  
HETATM   20  F   UNL     1     -10.630  14.268  66.264  1.00  0.00    -0.278 F  
ENDBRANCH  10  11
ENDBRANCH   3   7
TORSDOF 2
ENDMDL
MODEL      156
REMARK 921   NORMALIZED FREE ENERGY PREDICTED BY IDOCK:   -2.37 KCAL/MOL
REMARK 922        TOTAL FREE ENERGY PREDICTED BY IDOCK:   -2.92 KCAL/MOL
REMARK 923 INTER-LIGAND FREE ENERGY PREDICTED BY IDOCK:   -2.77 KCAL/MOL
REMARK 924 INTRA-LIGAND FREE ENERGY PREDICTED BY IDOCK:   -0.14 KCAL/MOL
REMARK 927      BINDING AFFINITY PREDICTED BY RF-SCORE:    0.00 PKD
ROOT
HETATM    1  C   UNL     1      -5.159  10.952  71.074  1.00  0.00    -0.102 C  
HETATM    2  C   UNL     1      -5.960  11.768  70.133  1.00  0.00    -0.162 A  
HETATM    3  C   UNL     1      -6.962  11.502  69.213  1.00  0.00    -0.098 A  
HETATM    4  O   UNL     1      -5.688  13.100  70.142  1.00  0.00    -0.117 OA 
HETATM    5  C   UNL     1      -7.245  12.780  68.681  1.00  0.00    -0.104 A  
HETATM    6  N   UNL     1      -6.499  13.742  69.224  1.00  0.00    -0.109 NA 
ENDROOT
BRANCH   3   7
HETATM    7  C   UNL     1      -7.502  10.179  68.951  1.00  0.00    -0.086 C  
HETATM    8  O   UNL     1      -7.588   9.379  69.875  1.00  0.00    -0.082 OA 
HETATM    9  H   UNL     1      -7.792  10.653  66.958  1.00  0.00     0.000 HD 
HETATM   10  N   UNL     1      -7.891   9.905  67.644  1.00  0.00    -0.098 N  
BRANCH  10  11
HETATM   11  C   UNL     1      -8.417   8.667  67.191  1.00  0.00    -0.114 A  
HETATM   12  C   UNL     1      -9.786   8.403  67.096  1.00  0.00    -0.279 A  
HETATM   13  C   UNL     1     -10.266   7.163  66.672  1.00  0.00    -0.224 A  
HETATM   14  C   UNL     1      -9.384   6.140  66.324  1.00  0.00    -0.157 A  
HETATM   15  C   UNL     1      -9.915   4.798  65.889  1.00  0.00    -0.228 C  
HETATM   16  C   UNL     1      -8.005   6.397  66.398  1.00  0.00    -0.110 A  
HETATM   17  C   UNL     1      -7.527   7.648  66.827  1.00  0.00    -0.093 A  
HETATM   18  F   UNL     1      -9.547   4.474  64.620  1.00  0.00    -0.157 F  
HETATM   19  F   UNL     1      -9.474   3.781  66.681  1.00  0.00    -0.163 F  
HETATM   20  F   UNL     1     -11.277   4.719  65.912  1.00  0.00    -0.290 F  
ENDBRANCH  10  11
ENDBRANCH   3   7
TORSDOF 2
ENDMDL
MODEL      157
REMARK 921   NORMALIZED FREE ENERGY PREDICTED BY IDOCK:   -2.30 KCAL/MOL
REMARK 922        TOTAL FREE ENERGY PREDICTED BY IDOCK:   -2.83 KCAL/MOL
REMARK 923 INTER-LIGAND FREE ENERGY PREDICTED BY IDOCK:   -2.64 KCAL/MOL
REMARK 924 INTRA-LIGAND FREE ENERGY PREDICTED BY IDOCK:   -0.19 KCAL/MOL
REMARK 927      BINDING AFFINITY PREDICTED BY RF-SCORE:    0.00 PKD
ROOT
HETATM    1  C   UNL     1      -7.126  16.152  68.593  1.00  0.00    -0.147 C  
HETATM    2  C   UNL     1      -6.403  15.301  69.566  1.00  0.00    -0.145 A  
HETATM    3  C   UNL     1      -6.208  13.938  69.719  1.00  0.00    -0.136 A  
HETATM    4  O   UNL     1      -5.758  15.972  70.557  1.00  0.00    -0.147 OA 
HETATM    5  C   UNL     1      -5.407  13.866  70.882  1.00  0.00    -0.151 A  
HETATM    6  N   UNL     1      -5.128  15.065  71.392  1.00  0.00    -0.151 NA 
ENDROOT
BRANCH   3   7
HETATM    7  C   UNL     1      -6.753  12.928  68.830  1.00  0.00    -0.093 C  
HETATM    8  O   UNL     1      -6.747  13.135  67.622  1.00  0.00    -0.136 OA 
HETATM    9  H   UNL     1      -7.191  11.698  70.435  1.00  0.00     0.000 HD 
HETATM   10  N   UNL     1      -7.254  11.773  69.420  1.00  0.00     0.004 N  
BRANCH  10  11
HETATM   11  C   UNL     1      -7.847  10.688  68.720  1.00  0.00    -0.125 A  
HETATM   12  C   UNL     1      -9.224  10.568  68.516  1.00  0.00    -0.168 A  
HETATM   13  C   UNL     1      -9.773   9.473  67.847  1.00  0.00    -0.171 A  
HETATM   14  C   UNL     1      -8.955   8.457  67.355  1.00  0.00    -0.143 A  
HETATM   15  C   UNL     1      -9.562   7.268  66.655  1.00  0.00    -0.178 C  
HETATM   16  C   UNL     1      -7.566   8.573  67.538  1.00  0.00    -0.098 A  
HETATM   17  C   UNL     1      -7.019   9.678  68.214  1.00  0.00    -0.073 A  
HETATM   18  F   UNL     1      -9.143   7.148  65.365  1.00  0.00    -0.067 F  
HETATM   19  F   UNL     1      -9.250   6.089  67.263  1.00  0.00    -0.117 F  
HETATM   20  F   UNL     1     -10.924   7.307  66.600  1.00  0.00    -0.400 F  
ENDBRANCH  10  11
ENDBRANCH   3   7
TORSDOF 2
ENDMDL
MODEL      158
REMARK 921   NORMALIZED FREE ENERGY PREDICTED BY IDOCK:   -2.20 KCAL/MOL
REMARK 922        TOTAL FREE ENERGY PREDICTED BY IDOCK:   -2.72 KCAL/MOL
REMARK 923 INTER-LIGAND FREE ENERGY PREDICTED BY IDOCK:   -2.36 KCAL/MOL
REMARK 924 INTRA-LIGAND FREE ENERGY PREDICTED BY IDOCK:   -0.36 KCAL/MOL
REMARK 927      BINDING AFFINITY PREDICTED BY RF-SCORE:    0.00 PKD
ROOT
HETATM    1  C   UNL     1      -5.634  11.627  70.107  1.00  0.00    -0.127 C  
HETATM    2  C   UNL     1      -6.674  12.173  69.205  1.00  0.00    -0.084 A  
HETATM    3  C   UNL     1      -7.749  11.637  68.513  1.00  0.00    -0.134 A  
HETATM    4  O   UNL     1      -6.603  13.511  68.978  1.00  0.00    -0.100 OA 
HETATM    5  C   UNL     1      -8.292  12.766  67.858  1.00  0.00    -0.172 A  
HETATM    6  N   UNL     1      -7.625  13.888  68.125  1.00  0.00    -0.119 NA 
ENDROOT
BRANCH   3   7
HETATM    7  C   UNL     1      -8.120  10.233  68.536  1.00  0.00    -0.109 C  
HETATM    8  O   UNL     1      -8.834   9.823  69.445  1.00  0.00    -0.155 OA 
HETATM    9  H   UNL     1      -7.061   9.887  66.793  1.00  0.00     0.000 HD 
HETATM   10  N   UNL     1      -7.632   9.435  67.508  1.00  0.00    -0.091 N  
BRANCH  10  11
HETATM   11  C   UNL     1      -7.865   8.041  67.374  1.00  0.00    -0.117 A  
HETATM   12  C   UNL     1      -6.961   7.067  67.806  1.00  0.00    -0.083 A  
HETATM   13  C   UNL     1      -7.212   5.705  67.632  1.00  0.00    -0.076 A  
HETATM   14  C   UNL     1      -8.387   5.271  67.018  1.00  0.00    -0.107 A  
HETATM   15  C   UNL     1      -8.636   3.798  66.815  1.00  0.00    -0.108 C  
HETATM   16  C   UNL     1      -9.313   6.239  66.594  1.00  0.00    -0.167 A  
HETATM   17  C   UNL     1      -9.054   7.610  66.771  1.00  0.00    -0.181 A  
HETATM   18  F   UNL     1      -9.749   3.360  67.465  1.00  0.00    -0.247 F  
HETATM   19  F   UNL     1      -8.813   3.475  65.504  1.00  0.00    -0.111 F  
HETATM   20  F   UNL     1      -7.614   3.009  67.255  1.00  0.00    -0.066 F  
ENDBRANCH  10  11
ENDBRANCH   3   7
TORSDOF 2
ENDMDL
MODEL      159
REMARK 921   NORMALIZED FREE ENERGY PREDICTED BY IDOCK:   -2.06 KCAL/MOL
REMARK 922        TOTAL FREE ENERGY PREDICTED BY IDOCK:   -2.56 KCAL/MOL
REMARK 923 INTER-LIGAND FREE ENERGY PREDICTED BY IDOCK:   -2.44 KCAL/MOL
REMARK 924 INTRA-LIGAND FREE ENERGY PREDICTED BY IDOCK:   -0.12 KCAL/MOL
REMARK 927      BINDING AFFINITY PREDICTED BY RF-SCORE:    0.00 PKD
ROOT
HETATM    1  C   UNL     1      -5.913   8.733  71.263  1.00  0.00    -0.048 C  
HETATM    2  C   UNL     1      -6.272   9.827  70.332  1.00  0.00    -0.082 A  
HETATM    3  C   UNL     1      -6.683   9.892  69.010  1.00  0.00    -0.053 A  
HETATM    4  O   UNL     1      -6.205  11.080  70.854  1.00  0.00    -0.362 OA 
HETATM    5  C   UNL     1      -6.840  11.281  68.800  1.00  0.00    -0.082 A  
HETATM    6  N   UNL     1      -6.563  12.002  69.886  1.00  0.00    -0.028 NA 
ENDROOT
BRANCH   3   7
HETATM    7  C   UNL     1      -6.866   8.735  68.151  1.00  0.00    -0.069 C  
HETATM    8  O   UNL     1      -5.878   8.183  67.681  1.00  0.00    -0.040 OA 
HETATM    9  H   UNL     1      -8.919   8.847  68.376  1.00  0.00     0.000 HD 
HETATM   10  N   UNL     1      -8.173   8.325  67.917  1.00  0.00    -0.127 N  
BRANCH  10  11
HETATM   11  C   UNL     1      -8.552   7.234  67.090  1.00  0.00    -0.121 A  
HETATM   12  C   UNL     1      -8.052   7.040  65.800  1.00  0.00    -0.123 A  
HETATM   13  C   UNL     1      -8.468   5.971  65.005  1.00  0.00    -0.089 A  
HETATM   14  C   UNL     1      -9.405   5.054  65.481  1.00  0.00    -0.149 A  
HETATM   15  C   UNL     1      -9.865   3.917  64.604  1.00  0.00    -0.193 C  
HETATM   16  C   UNL     1      -9.904   5.227  66.783  1.00  0.00    -0.195 A  
HETATM   17  C   UNL     1      -9.481   6.307  67.579  1.00  0.00    -0.115 A  
HETATM   18  F   UNL     1      -9.574   2.697  65.132  1.00  0.00    -0.148 F  
HETATM   19  F   UNL     1     -11.211   3.928  64.399  1.00  0.00    -0.310 F  
HETATM   20  F   UNL     1      -9.302   3.927  63.362  1.00  0.00    -0.108 F  
ENDBRANCH  10  11
ENDBRANCH   3   7
TORSDOF 2
ENDMDL
MODEL      160
REMARK 921   NORMALIZED FREE ENERGY PREDICTED BY IDOCK:   -1.91 KCAL/MOL
REMARK 922        TOTAL FREE ENERGY PREDICTED BY IDOCK:   -2.40 KCAL/MOL
REMARK 923 INTER-LIGAND FREE ENERGY PREDICTED BY IDOCK:   -2.16 KCAL/MOL
REMARK 924 INTRA-LIGAND FREE ENERGY PREDICTED BY IDOCK:   -0.25 KCAL/MOL
REMARK 927      BINDING AFFINITY PREDICTED BY RF-SCORE:    0.00 PKD
ROOT
HETATM    1  C   UNL     1      -7.781   3.784  69.038  1.00  0.00    -0.053 C  
HETATM    2  C   UNL     1      -7.255   4.277  70.332  1.00  0.00    -0.042 A  
HETATM    3  C   UNL     1      -6.933   5.523  70.847  1.00  0.00    -0.064 A  
HETATM    4  O   UNL     1      -7.023   3.320  71.268  1.00  0.00    -0.031 OA 
HETATM    5  C   UNL     1      -6.488   5.215  72.153  1.00  0.00    -0.039 A  
HETATM    6  N   UNL     1      -6.537   3.911  72.421  1.00  0.00    -0.021 NA 
ENDROOT
BRANCH   3   7
HETATM    7  C   UNL     1      -7.065   6.771  70.116  1.00  0.00    -0.071 C  
HETATM    8  O   UNL     1      -6.072   7.469  69.949  1.00  0.00    -0.027 OA 
HETATM    9  H   UNL     1      -9.085   6.430  69.826  1.00  0.00     0.000 HD 
HETATM   10  N   UNL     1      -8.333   7.094  69.645  1.00  0.00    -0.131 N  
BRANCH  10  11
HETATM   11  C   UNL     1      -8.663   8.278  68.933  1.00  0.00    -0.137 A  
HETATM   12  C   UNL     1      -9.344   9.355  69.508  1.00  0.00    -0.187 A  
HETATM   13  C   UNL     1      -9.676  10.491  68.769  1.00  0.00    -0.187 A  
HETATM   14  C   UNL     1      -9.333  10.587  67.420  1.00  0.00    -0.158 A  
HETATM   15  C   UNL     1      -9.718  11.809  66.627  1.00  0.00    -0.202 C  
HETATM   16  C   UNL     1      -8.634   9.519  66.833  1.00  0.00    -0.132 A  
HETATM   17  C   UNL     1      -8.303   8.376  67.583  1.00  0.00    -0.130 A  
HETATM   18  F   UNL     1      -8.639  12.476  66.134  1.00  0.00    -0.045 F  
HETATM   19  F   UNL     1     -10.498  11.509  65.551  1.00  0.00    -0.280 F  
HETATM   20  F   UNL     1     -10.423  12.726  67.349  1.00  0.00    -0.222 F  
ENDBRANCH  10  11
ENDBRANCH   3   7
TORSDOF 2
ENDMDL
MODEL      161
REMARK 921   NORMALIZED FREE ENERGY PREDICTED BY IDOCK:   -1.84 KCAL/MOL
REMARK 922        TOTAL FREE ENERGY PREDICTED BY IDOCK:   -2.32 KCAL/MOL
REMARK 923 INTER-LIGAND FREE ENERGY PREDICTED BY IDOCK:   -2.32 KCAL/MOL
REMARK 924 INTRA-LIGAND FREE ENERGY PREDICTED BY IDOCK:   -0.00 KCAL/MOL
REMARK 927      BINDING AFFINITY PREDICTED BY RF-SCORE:    0.00 PKD
ROOT
HETATM    1  C   UNL     1      -5.575  14.951  68.789  1.00  0.00    -0.087 C  
HETATM    2  C   UNL     1      -6.998  14.979  68.380  1.00  0.00    -0.109 A  
HETATM    3  C   UNL     1      -7.895  14.044  67.890  1.00  0.00    -0.161 A  
HETATM    4  O   UNL     1      -7.613  16.185  68.502  1.00  0.00    -0.154 OA 
HETATM    5  C   UNL     1      -9.078  14.800  67.728  1.00  0.00    -0.186 A  
HETATM    6  N   UNL     1      -8.929  16.074  68.089  1.00  0.00    -0.181 NA 
ENDROOT
BRANCH   3   7
HETATM    7  C   UNL     1      -7.571  12.650  67.643  1.00  0.00    -0.152 C  
HETATM    8  O   UNL     1      -6.762  12.090  68.375  1.00  0.00    -0.057 OA 
HETATM    9  H   UNL     1      -8.881  12.590  66.043  1.00  0.00     0.000 HD 
HETATM   10  N   UNL     1      -8.211  12.033  66.574  1.00  0.00    -0.058 N  
BRANCH  10  11
HETATM   11  C   UNL     1      -8.007  10.689  66.164  1.00  0.00    -0.151 A  
HETATM   12  C   UNL     1      -6.765  10.190  65.762  1.00  0.00    -0.110 A  
HETATM   13  C   UNL     1      -6.609   8.870  65.338  1.00  0.00    -0.068 A  
HETATM   14  C   UNL     1      -7.698   7.999  65.305  1.00  0.00    -0.099 A  
HETATM   15  C   UNL     1      -7.520   6.582  64.823  1.00  0.00    -0.091 C  
HETATM   16  C   UNL     1      -8.949   8.483  65.723  1.00  0.00    -0.229 A  
HETATM   17  C   UNL     1      -9.101   9.815  66.147  1.00  0.00    -0.198 A  
HETATM   18  F   UNL     1      -7.821   5.661  65.779  1.00  0.00    -0.092 F  
HETATM   19  F   UNL     1      -8.314   6.290  63.755  1.00  0.00    -0.108 F  
HETATM   20  F   UNL     1      -6.246   6.300  64.424  1.00  0.00    -0.027 F  
ENDBRANCH  10  11
ENDBRANCH   3   7
TORSDOF 2
ENDMDL
MODEL      162
REMARK 921   NORMALIZED FREE ENERGY PREDICTED BY IDOCK:   -1.83 KCAL/MOL
REMARK 922        TOTAL FREE ENERGY PREDICTED BY IDOCK:   -2.30 KCAL/MOL
REMARK 923 INTER-LIGAND FREE ENERGY PREDICTED BY IDOCK:   -2.81 KCAL/MOL
REMARK 924 INTRA-LIGAND FREE ENERGY PREDICTED BY IDOCK:    0.51 KCAL/MOL
REMARK 927      BINDING AFFINITY PREDICTED BY RF-SCORE:    0.00 PKD
ROOT
HETATM    1  C   UNL     1      -5.639  14.962  68.829  1.00  0.00    -0.087 C  
HETATM    2  C   UNL     1      -7.070  15.340  68.759  1.00  0.00    -0.117 A  
HETATM    3  C   UNL     1      -8.261  14.646  68.622  1.00  0.00    -0.159 A  
HETATM    4  O   UNL     1      -7.324  16.672  68.854  1.00  0.00    -0.201 OA 
HETATM    5  C   UNL     1      -9.227  15.677  68.635  1.00  0.00    -0.205 A  
HETATM    6  N   UNL     1      -8.688  16.888  68.775  1.00  0.00    -0.260 NA 
ENDROOT
BRANCH   3   7
HETATM    7  C   UNL     1      -8.357  13.202  68.500  1.00  0.00    -0.063 C  
HETATM    8  O   UNL     1      -7.520  12.502  69.060  1.00  0.00    -0.040 OA 
HETATM    9  H   UNL     1     -10.060  13.376  67.339  1.00  0.00     0.000 HD 
HETATM   10  N   UNL     1      -9.411  12.702  67.745  1.00  0.00    -0.191 N  
BRANCH  10  11
HETATM   11  C   UNL     1      -9.656  11.325  67.492  1.00  0.00    -0.170 A  
HETATM   12  C   UNL     1     -10.907  10.824  67.123  1.00  0.00    -0.335 A  
HETATM   13  C   UNL     1     -11.116   9.461  66.910  1.00  0.00     0.338 A  
HETATM   14  C   UNL     1     -10.071   8.549  67.059  1.00  0.00    -0.347 A  
HETATM   15  C   UNL     1     -10.316   7.076  66.849  1.00  0.00    -0.268 C  
HETATM   16  C   UNL     1      -8.804   9.041  67.413  1.00  0.00    -0.125 A  
HETATM   17  C   UNL     1      -8.599  10.416  67.628  1.00  0.00    -0.118 A  
HETATM   18  F   UNL     1      -9.570   6.560  65.834  1.00  0.00    -0.134 F  
HETATM   19  F   UNL     1     -10.016   6.335  67.952  1.00  0.00    -0.122 F  
HETATM   20  F   UNL     1     -11.612   6.779  66.545  1.00  0.00    -0.205 F  
ENDBRANCH  10  11
ENDBRANCH   3   7
TORSDOF 2
ENDMDL
MODEL      163
REMARK 921   NORMALIZED FREE ENERGY PREDICTED BY IDOCK:   -1.82 KCAL/MOL
REMARK 922        TOTAL FREE ENERGY PREDICTED BY IDOCK:   -2.29 KCAL/MOL
REMARK 923 INTER-LIGAND FREE ENERGY PREDICTED BY IDOCK:   -2.31 KCAL/MOL
REMARK 924 INTRA-LIGAND FREE ENERGY PREDICTED BY IDOCK:    0.02 KCAL/MOL
REMARK 927      BINDING AFFINITY PREDICTED BY RF-SCORE:    0.00 PKD
ROOT
HETATM    1  C   UNL     1      -8.673   4.237  67.204  1.00  0.00    -0.109 C  
HETATM    2  C   UNL     1      -7.914   4.245  65.932  1.00  0.00    -0.095 A  
HETATM    3  C   UNL     1      -7.428   5.230  65.087  1.00  0.00    -0.073 A  
HETATM    4  O   UNL     1      -7.591   3.019  65.441  1.00  0.00    -0.077 OA 
HETATM    5  C   UNL     1      -6.804   4.483  64.063  1.00  0.00    -0.045 A  
HETATM    6  N   UNL     1      -6.889   3.168  64.258  1.00  0.00    -0.036 NA 
ENDROOT
BRANCH   3   7
HETATM    7  C   UNL     1      -7.591   6.656  65.313  1.00  0.00    -0.088 C  
HETATM    8  O   UNL     1      -6.702   7.419  64.952  1.00  0.00    -0.046 OA 
HETATM    9  H   UNL     1      -9.444   6.344  66.177  1.00  0.00     0.000 HD 
HETATM   10  N   UNL     1      -8.764   7.065  65.936  1.00  0.00    -0.145 N  
BRANCH  10  11
HETATM   11  C   UNL     1      -9.091   8.408  66.262  1.00  0.00    -0.194 A  
HETATM   12  C   UNL     1      -8.405   9.153  67.225  1.00  0.00    -0.121 A  
HETATM   13  C   UNL     1      -8.773  10.462  67.539  1.00  0.00    -0.125 A  
HETATM   14  C   UNL     1      -9.846  11.073  66.891  1.00  0.00    -0.222 A  
HETATM   15  C   UNL     1     -10.248  12.480  67.255  1.00  0.00    -0.216 C  
HETATM   16  C   UNL     1     -10.534  10.343  65.908  1.00  0.00    -0.196 A  
HETATM   17  C   UNL     1     -10.160   9.023  65.597  1.00  0.00     0.256 A  
HETATM   18  F   UNL     1     -10.148  13.342  66.207  1.00  0.00    -0.268 F  
HETATM   19  F   UNL     1     -11.538  12.559  67.686  1.00  0.00    -0.311 F  
HETATM   20  F   UNL     1      -9.492  13.020  68.254  1.00  0.00    -0.203 F  
ENDBRANCH  10  11
ENDBRANCH   3   7
TORSDOF 2
ENDMDL
MODEL      164
REMARK 921   NORMALIZED FREE ENERGY PREDICTED BY IDOCK:   -1.66 KCAL/MOL
REMARK 922        TOTAL FREE ENERGY PREDICTED BY IDOCK:   -2.12 KCAL/MOL
REMARK 923 INTER-LIGAND FREE ENERGY PREDICTED BY IDOCK:   -2.07 KCAL/MOL
REMARK 924 INTRA-LIGAND FREE ENERGY PREDICTED BY IDOCK:   -0.04 KCAL/MOL
REMARK 927      BINDING AFFINITY PREDICTED BY RF-SCORE:    0.00 PKD
ROOT
HETATM    1  C   UNL     1      -8.133   4.123  68.864  1.00  0.00    -0.074 C  
HETATM    2  C   UNL     1      -8.605   5.164  69.807  1.00  0.00    -0.096 A  
HETATM    3  C   UNL     1      -9.119   6.444  69.675  1.00  0.00    -0.143 A  
HETATM    4  O   UNL     1      -8.545   4.827  71.122  1.00  0.00    -0.109 OA 
HETATM    5  C   UNL     1      -9.345   6.829  71.016  1.00  0.00    -0.160 A  
HETATM    6  N   UNL     1      -9.011   5.880  71.889  1.00  0.00    -0.138 NA 
ENDROOT
BRANCH   3   7
HETATM    7  C   UNL     1      -9.325   7.117  68.404  1.00  0.00    -0.135 C  
HETATM    8  O   UNL     1      -9.413   6.444  67.384  1.00  0.00    -0.115 OA 
HETATM    9  H   UNL     1      -9.342   8.961  69.342  1.00  0.00     0.000 HD 
HETATM   10  N   UNL     1      -9.410   8.504  68.432  1.00  0.00    -0.135 N  
BRANCH  10  11
HETATM   11  C   UNL     1      -9.585   9.336  67.294  1.00  0.00    -0.155 A  
HETATM   12  C   UNL     1      -8.527   9.974  66.641  1.00  0.00    -0.126 A  
HETATM   13  C   UNL     1      -8.740  10.807  65.542  1.00  0.00    -0.196 A  
HETATM   14  C   UNL     1     -10.028  11.027  65.056  1.00  0.00    -0.340 A  
HETATM   15  C   UNL     1     -10.248  11.947  63.882  1.00  0.00    -0.389 C  
HETATM   16  C   UNL     1     -11.100  10.378  65.692  1.00  0.00     0.504 A  
HETATM   17  C   UNL     1     -10.879   9.541  66.801  1.00  0.00    -0.031 A  
HETATM   18  F   UNL     1     -10.806  11.313  62.815  1.00  0.00    -0.194 F  
HETATM   19  F   UNL     1     -11.078  12.985  64.180  1.00  0.00    -0.339 F  
HETATM   20  F   UNL     1      -9.099  12.516  63.415  1.00  0.00     0.301 F  
ENDBRANCH  10  11
ENDBRANCH   3   7
TORSDOF 2
ENDMDL
MODEL      165
REMARK 921   NORMALIZED FREE ENERGY PREDICTED BY IDOCK:   -1.54 KCAL/MOL
REMARK 922        TOTAL FREE ENERGY PREDICTED BY IDOCK:   -1.98 KCAL/MOL
REMARK 923 INTER-LIGAND FREE ENERGY PREDICTED BY IDOCK:   -1.81 KCAL/MOL
REMARK 924 INTRA-LIGAND FREE ENERGY PREDICTED BY IDOCK:   -0.17 KCAL/MOL
REMARK 927      BINDING AFFINITY PREDICTED BY RF-SCORE:    0.00 PKD
ROOT
HETATM    1  C   UNL     1      -6.236   9.579  71.301  1.00  0.00    -0.042 C  
HETATM    2  C   UNL     1      -7.097   8.474  71.785  1.00  0.00    -0.094 A  
HETATM    3  C   UNL     1      -7.533   7.269  71.258  1.00  0.00    -0.079 A  
HETATM    4  O   UNL     1      -7.594   8.632  73.040  1.00  0.00    -0.352 OA 
HETATM    5  C   UNL     1      -8.329   6.743  72.300  1.00  0.00    -0.106 A  
HETATM    6  N   UNL     1      -8.375   7.538  73.367  1.00  0.00    -0.125 NA 
ENDROOT
BRANCH   3   7
HETATM    7  C   UNL     1      -7.184   6.781  69.935  1.00  0.00    -0.080 C  
HETATM    8  O   UNL     1      -6.001   6.646  69.645  1.00  0.00    -0.018 OA 
HETATM    9  H   UNL     1      -9.183   6.625  69.426  1.00  0.00     0.000 HD 
HETATM   10  N   UNL     1      -8.236   6.494  69.072  1.00  0.00    -0.115 N  
BRANCH  10  11
HETATM   11  C   UNL     1      -8.095   6.031  67.737  1.00  0.00    -0.109 A  
HETATM   12  C   UNL     1      -8.521   4.769  67.313  1.00  0.00    -0.105 A  
HETATM   13  C   UNL     1      -8.340   4.338  65.998  1.00  0.00    -0.109 A  
HETATM   14  C   UNL     1      -7.725   5.163  65.057  1.00  0.00    -0.085 A  
HETATM   15  C   UNL     1      -7.515   4.677  63.646  1.00  0.00    -0.055 C  
HETATM   16  C   UNL     1      -7.307   6.441  65.465  1.00  0.00    -0.076 A  
HETATM   17  C   UNL     1      -7.491   6.870  66.792  1.00  0.00    -0.082 A  
HETATM   18  F   UNL     1      -8.163   5.442  62.726  1.00  0.00    -0.088 F  
HETATM   19  F   UNL     1      -6.202   4.682  63.282  1.00  0.00    -0.020 F  
HETATM   20  F   UNL     1      -7.950   3.401  63.441  1.00  0.00    -0.074 F  
ENDBRANCH  10  11
ENDBRANCH   3   7
TORSDOF 2
ENDMDL
MODEL      166
REMARK 921   NORMALIZED FREE ENERGY PREDICTED BY IDOCK:   -1.03 KCAL/MOL
REMARK 922        TOTAL FREE ENERGY PREDICTED BY IDOCK:   -1.42 KCAL/MOL
REMARK 923 INTER-LIGAND FREE ENERGY PREDICTED BY IDOCK:   -1.71 KCAL/MOL
REMARK 924 INTRA-LIGAND FREE ENERGY PREDICTED BY IDOCK:    0.30 KCAL/MOL
REMARK 927      BINDING AFFINITY PREDICTED BY RF-SCORE:    0.00 PKD
ROOT
HETATM    1  C   UNL     1      -6.012   9.591  71.475  1.00  0.00    -0.030 C  
HETATM    2  C   UNL     1      -6.226   8.506  72.460  1.00  0.00    -0.076 A  
HETATM    3  C   UNL     1      -6.663   7.193  72.391  1.00  0.00    -0.056 A  
HETATM    4  O   UNL     1      -5.931   8.824  73.748  1.00  0.00    -0.112 OA 
HETATM    5  C   UNL     1      -6.608   6.774  73.740  1.00  0.00    -0.071 A  
HETATM    6  N   UNL     1      -6.173   7.730  74.560  1.00  0.00    -0.092 NA 
ENDROOT
BRANCH   3   7
HETATM    7  C   UNL     1      -7.057   6.525  71.163  1.00  0.00    -0.077 C  
HETATM    8  O   UNL     1      -6.451   5.517  70.815  1.00  0.00    -0.033 OA 
HETATM    9  H   UNL     1      -8.558   7.913  70.846  1.00  0.00     0.000 HD 
HETATM   10  N   UNL     1      -8.114   7.083  70.453  1.00  0.00    -0.117 N  
BRANCH  10  11
HETATM   11  C   UNL     1      -8.624   6.588  69.223  1.00  0.00    -0.127 A  
HETATM   12  C   UNL     1      -9.938   6.802  68.797  1.00  0.00    -0.149 A  
HETATM   13  C   UNL     1     -10.413   6.276  67.594  1.00  0.00    -0.288 A  
HETATM   14  C   UNL     1      -9.581   5.517  66.772  1.00  0.00    -0.156 A  
HETATM   15  C   UNL     1     -10.112   4.936  65.487  1.00  0.00    -0.069 C  
HETATM   16  C   UNL     1      -8.252   5.309  67.180  1.00  0.00    -0.108 A  
HETATM   17  C   UNL     1      -7.780   5.840  68.394  1.00  0.00    -0.096 A  
HETATM   18  F   UNL     1      -9.453   5.398  64.390  1.00  0.00     0.099 F  
HETATM   19  F   UNL     1     -10.006   3.578  65.445  1.00  0.00    -0.161 F  
HETATM   20  F   UNL     1     -11.431   5.209  65.271  1.00  0.00     0.005 F  
ENDBRANCH  10  11
ENDBRANCH   3   7
TORSDOF 2
ENDMDL
MODEL      167
REMARK 921   NORMALIZED FREE ENERGY PREDICTED BY IDOCK:    0.46 KCAL/MOL
REMARK 922        TOTAL FREE ENERGY PREDICTED BY IDOCK:    0.24 KCAL/MOL
REMARK 923 INTER-LIGAND FREE ENERGY PREDICTED BY IDOCK:    0.06 KCAL/MOL
REMARK 924 INTRA-LIGAND FREE ENERGY PREDICTED BY IDOCK:    0.19 KCAL/MOL
REMARK 927      BINDING AFFINITY PREDICTED BY RF-SCORE:    0.00 PKD
ROOT
HETATM    1  C   UNL     1      -8.699   4.206  67.144  1.00  0.00    -0.115 C  
HETATM    2  C   UNL     1      -7.914   3.782  65.961  1.00  0.00    -0.090 A  
HETATM    3  C   UNL     1      -7.441   4.413  64.822  1.00  0.00    -0.072 A  
HETATM    4  O   UNL     1      -7.543   2.474  65.949  1.00  0.00    -0.070 OA 
HETATM    5  C   UNL     1      -6.773   3.370  64.142  1.00  0.00    -0.039 A  
HETATM    6  N   UNL     1      -6.821   2.212  64.798  1.00  0.00    -0.041 NA 
ENDROOT
BRANCH   3   7
HETATM    7  C   UNL     1      -7.652   5.818  64.517  1.00  0.00    -0.084 C  
HETATM    8  O   UNL     1      -6.765   6.441  63.945  1.00  0.00    -0.036 OA 
HETATM    9  H   UNL     1      -9.542   5.753  65.355  1.00  0.00     0.000 HD 
HETATM   10  N   UNL     1      -8.869   6.370  64.902  1.00  0.00     0.193 N  
BRANCH  10  11
HETATM   11  C   UNL     1      -9.248   7.725  64.712  1.00  0.00     1.073 A  
HETATM   12  C   UNL     1      -9.063   8.412  63.509  1.00  0.00     0.957 A  
HETATM   13  C   UNL     1      -9.423   9.753  63.368  1.00  0.00     0.007 A  
HETATM   14  C   UNL     1      -9.986  10.454  64.434  1.00  0.00    -0.388 A  
HETATM   15  C   UNL     1     -10.349  11.909  64.276  1.00  0.00    -0.321 C  
HETATM   16  C   UNL     1     -10.193   9.771  65.644  1.00  0.00    -0.178 A  
HETATM   17  C   UNL     1      -9.827   8.420  65.781  1.00  0.00     0.211 A  
HETATM   18  F   UNL     1     -11.678  12.140  64.452  1.00  0.00    -0.373 F  
HETATM   19  F   UNL     1      -9.705  12.707  65.173  1.00  0.00    -0.235 F  
HETATM   20  F   UNL     1     -10.044  12.415  63.047  1.00  0.00    -0.345 F  
ENDBRANCH  10  11
ENDBRANCH   3   7
TORSDOF 2
ENDMDL
MODEL      168
REMARK 921   NORMALIZED FREE ENERGY PREDICTED BY IDOCK:    3.81 KCAL/MOL
REMARK 922        TOTAL FREE ENERGY PREDICTED BY IDOCK:    3.99 KCAL/MOL
REMARK 923 INTER-LIGAND FREE ENERGY PREDICTED BY IDOCK:    3.93 KCAL/MOL
REMARK 924 INTRA-LIGAND FREE ENERGY PREDICTED BY IDOCK:    0.06 KCAL/MOL
REMARK 927      BINDING AFFINITY PREDICTED BY RF-SCORE:    0.00 PKD
ROOT
HETATM    1  C   UNL     1      -8.969  19.880  66.200  1.00  0.00    -0.373 C  
HETATM    2  C   UNL     1     -10.104  18.973  65.916  1.00  0.00    -0.236 A  
HETATM    3  C   UNL     1     -10.312  17.606  66.008  1.00  0.00    -0.305 A  
HETATM    4  O   UNL     1     -11.233  19.579  65.462  1.00  0.00    -0.286 OA 
HETATM    5  C   UNL     1     -11.647  17.462  65.563  1.00  0.00     1.738 A  
HETATM    6  N   UNL     1     -12.210  18.625  65.238  1.00  0.00     5.310 NA 
ENDROOT
BRANCH   3   7
HETATM    7  C   UNL     1      -9.314  16.655  66.464  1.00  0.00    -0.265 C  
HETATM    8  O   UNL     1      -8.127  16.921  66.312  1.00  0.00    -0.287 OA 
HETATM    9  H   UNL     1     -10.790  15.376  67.145  1.00  0.00     0.000 HD 
HETATM   10  N   UNL     1      -9.780  15.485  67.053  1.00  0.00    -0.221 N  
BRANCH  10  11
HETATM   11  C   UNL     1      -8.961  14.430  67.537  1.00  0.00    -0.190 A  
HETATM   12  C   UNL     1      -8.992  13.134  67.014  1.00  0.00    -0.228 A  
HETATM   13  C   UNL     1      -8.192  12.116  67.534  1.00  0.00    -0.167 A  
HETATM   14  C   UNL     1      -7.328  12.364  68.600  1.00  0.00    -0.102 A  
HETATM   15  C   UNL     1      -6.486  11.250  69.168  1.00  0.00    -0.081 C  
HETATM   16  C   UNL     1      -7.274  13.667  69.124  1.00  0.00     0.005 A  
HETATM   17  C   UNL     1      -8.084  14.689  68.597  1.00  0.00    -0.150 A  
HETATM   18  F   UNL     1      -5.151  11.494  69.060  1.00  0.00    -0.045 F  
HETATM   19  F   UNL     1      -6.724  11.039  70.493  1.00  0.00    -0.135 F  
HETATM   20  F   UNL     1      -6.694  10.047  68.559  1.00  0.00    -0.053 F  
ENDBRANCH  10  11
ENDBRANCH   3   7
TORSDOF 2
ENDMDL
MODEL      169
REMARK 921   NORMALIZED FREE ENERGY PREDICTED BY IDOCK:    4.50 KCAL/MOL
REMARK 922        TOTAL FREE ENERGY PREDICTED BY IDOCK:    4.76 KCAL/MOL
REMARK 923 INTER-LIGAND FREE ENERGY PREDICTED BY IDOCK:    4.52 KCAL/MOL
REMARK 924 INTRA-LIGAND FREE ENERGY PREDICTED BY IDOCK:    0.24 KCAL/MOL
REMARK 927      BINDING AFFINITY PREDICTED BY RF-SCORE:    0.00 PKD
ROOT
HETATM    1  C   UNL     1      -6.464  19.348  69.240  1.00  0.00    -0.347 C  
HETATM    2  C   UNL     1      -6.232  18.383  70.339  1.00  0.00     0.216 A  
HETATM    3  C   UNL     1      -6.661  17.096  70.620  1.00  0.00     1.566 A  
HETATM    4  O   UNL     1      -5.404  18.816  71.327  1.00  0.00    -0.278 OA 
HETATM    5  C   UNL     1      -6.026  16.816  71.851  1.00  0.00     1.977 A  
HETATM    6  N   UNL     1      -5.272  17.826  72.285  1.00  0.00    -0.017 NA 
ENDROOT
BRANCH   3   7
HETATM    7  C   UNL     1      -7.554  16.328  69.770  1.00  0.00     0.346 C  
HETATM    8  O   UNL     1      -7.820  16.753  68.651  1.00  0.00    -0.217 OA 
HETATM    9  H   UNL     1      -7.750  14.874  71.228  1.00  0.00     0.000 HD 
HETATM   10  N   UNL     1      -8.054  15.140  70.292  1.00  0.00     0.476 N  
BRANCH  10  11
HETATM   11  C   UNL     1      -8.955  14.269  69.624  1.00  0.00     0.744 A  
HETATM   12  C   UNL     1     -10.173  13.858  70.172  1.00  0.00     1.375 A  
HETATM   13  C   UNL     1     -11.021  12.979  69.498  1.00  0.00     0.035 A  
HETATM   14  C   UNL     1     -10.675  12.480  68.242  1.00  0.00    -0.246 A  
HETATM   15  C   UNL     1     -11.589  11.512  67.534  1.00  0.00    -0.246 C  
HETATM   16  C   UNL     1      -9.462  12.898  67.671  1.00  0.00    -0.197 A  
HETATM   17  C   UNL     1      -8.610  13.784  68.356  1.00  0.00    -0.156 A  
HETATM   18  F   UNL     1     -12.041  11.993  66.344  1.00  0.00    -0.392 F  
HETATM   19  F   UNL     1     -10.978  10.328  67.254  1.00  0.00    -0.313 F  
HETATM   20  F   UNL     1     -12.703  11.192  68.252  1.00  0.00     0.196 F  
ENDBRANCH  10  11
ENDBRANCH   3   7
TORSDOF 2
ENDMDL
MODEL      170
REMARK 921   NORMALIZED FREE ENERGY PREDICTED BY IDOCK:   15.17 KCAL/MOL
REMARK 922        TOTAL FREE ENERGY PREDICTED BY IDOCK:   16.68 KCAL/MOL
REMARK 923 INTER-LIGAND FREE ENERGY PREDICTED BY IDOCK:   16.92 KCAL/MOL
REMARK 924 INTRA-LIGAND FREE ENERGY PREDICTED BY IDOCK:   -0.24 KCAL/MOL
REMARK 927      BINDING AFFINITY PREDICTED BY RF-SCORE:    0.00 PKD
ROOT
HETATM    1  C   UNL     1      -5.301   9.676  72.332  1.00  0.00    -0.010 C  
HETATM    2  C   UNL     1      -6.418  10.033  73.237  1.00  0.00     1.781 A  
HETATM    3  C   UNL     1      -7.533   9.370  73.725  1.00  0.00     1.407 A  
HETATM    4  O   UNL     1      -6.380  11.296  73.737  1.00  0.00     2.337 OA 
HETATM    5  C   UNL     1      -8.145  10.348  74.540  1.00  0.00     6.598 A  
HETATM    6  N   UNL     1      -7.472  11.498  74.561  1.00  0.00     6.380 NA 
ENDROOT
BRANCH   3   7
HETATM    7  C   UNL     1      -7.878   7.998  73.396  1.00  0.00    -0.175 C  
HETATM    8  O   UNL     1      -8.088   7.205  74.307  1.00  0.00    -0.124 OA 
HETATM    9  H   UNL     1      -7.774   8.417  71.373  1.00  0.00     0.000 HD 
HETATM   10  N   UNL     1      -7.949   7.672  72.047  1.00  0.00    -0.096 N  
BRANCH  10  11
HETATM   11  C   UNL     1      -8.248   6.382  71.532  1.00  0.00    -0.117 A  
HETATM   12  C   UNL     1      -7.267   5.479  71.111  1.00  0.00    -0.075 A  
HETATM   13  C   UNL     1      -7.600   4.230  70.585  1.00  0.00    -0.052 A  
HETATM   14  C   UNL     1      -8.934   3.841  70.463  1.00  0.00    -0.158 A  
HETATM   15  C   UNL     1      -9.280   2.499  69.871  1.00  0.00    -0.125 C  
HETATM   16  C   UNL     1      -9.929   4.732  70.898  1.00  0.00    -0.283 A  
HETATM   17  C   UNL     1      -9.588   5.991  71.427  1.00  0.00    -0.180 A  
HETATM   18  F   UNL     1      -9.950   1.697  70.744  1.00  0.00    -0.186 F  
HETATM   19  F   UNL     1     -10.076   2.604  68.771  1.00  0.00     0.045 F  
HETATM   20  F   UNL     1      -8.190   1.783  69.472  1.00  0.00    -0.051 F  
ENDBRANCH  10  11
ENDBRANCH   3   7
TORSDOF 2
ENDMDL
MODEL      171
REMARK 921   NORMALIZED FREE ENERGY PREDICTED BY IDOCK:   15.46 KCAL/MOL
REMARK 922        TOTAL FREE ENERGY PREDICTED BY IDOCK:   17.00 KCAL/MOL
REMARK 923 INTER-LIGAND FREE ENERGY PREDICTED BY IDOCK:   16.55 KCAL/MOL
REMARK 924 INTRA-LIGAND FREE ENERGY PREDICTED BY IDOCK:    0.45 KCAL/MOL
REMARK 927      BINDING AFFINITY PREDICTED BY RF-SCORE:    0.00 PKD
ROOT
HETATM    1  C   UNL     1      -5.303   9.678  72.330  1.00  0.00    -0.027 C  
HETATM    2  C   UNL     1      -6.402  10.080  73.237  1.00  0.00     1.539 A  
HETATM    3  C   UNL     1      -7.493   9.436  73.801  1.00  0.00     1.407 A  
HETATM    4  O   UNL     1      -6.374  11.376  73.646  1.00  0.00     2.598 OA 
HETATM    5  C   UNL     1      -8.101  10.460  74.562  1.00  0.00     6.598 A  
HETATM    6  N   UNL     1      -7.448  11.619  74.483  1.00  0.00     6.522 NA 
ENDROOT
BRANCH   3   7
HETATM    7  C   UNL     1      -7.822   8.039  73.580  1.00  0.00    -0.180 C  
HETATM    8  O   UNL     1      -6.945   7.277  73.187  1.00  0.00    -0.068 OA 
HETATM    9  H   UNL     1      -9.776   8.368  74.174  1.00  0.00     0.000 HD 
HETATM   10  N   UNL     1      -9.134   7.653  73.833  1.00  0.00    -0.263 N  
BRANCH  10  11
HETATM   11  C   UNL     1      -9.649   6.342  73.653  1.00  0.00    -0.164 A  
HETATM   12  C   UNL     1     -10.962   6.083  73.248  1.00  0.00    -0.244 A  
HETATM   13  C   UNL     1     -11.442   4.780  73.108  1.00  0.00    -0.348 A  
HETATM   14  C   UNL     1     -10.617   3.686  73.370  1.00  0.00    -0.281 A  
HETATM   15  C   UNL     1     -11.155   2.284  73.239  1.00  0.00    -0.159 C  
HETATM   16  C   UNL     1      -9.290   3.932  73.762  1.00  0.00    -0.112 A  
HETATM   17  C   UNL     1      -8.812   5.247  73.902  1.00  0.00    -0.117 A  
HETATM   18  F   UNL     1     -10.492   1.554  72.300  1.00  0.00    -0.203 F  
HETATM   19  F   UNL     1     -11.060   1.578  74.400  1.00  0.00    -0.166 F  
HETATM   20  F   UNL     1     -12.471   2.238  72.884  1.00  0.00     0.217 F  
ENDBRANCH  10  11
ENDBRANCH   3   7
TORSDOF 2
ENDMDL
MODEL      172
REMARK 921   NORMALIZED FREE ENERGY PREDICTED BY IDOCK:   18.32 KCAL/MOL
REMARK 922        TOTAL FREE ENERGY PREDICTED BY IDOCK:   20.20 KCAL/MOL
REMARK 923 INTER-LIGAND FREE ENERGY PREDICTED BY IDOCK:   20.49 KCAL/MOL
REMARK 924 INTRA-LIGAND FREE ENERGY PREDICTED BY IDOCK:   -0.30 KCAL/MOL
REMARK 927      BINDING AFFINITY PREDICTED BY RF-SCORE:    0.00 PKD
ROOT
HETATM    1  C   UNL     1      -7.436  15.498  64.518  1.00  0.00    13.486 C  
HETATM    2  C   UNL     1      -8.790  15.231  65.056  1.00  0.00     2.837 A  
HETATM    3  C   UNL     1      -9.403  15.389  66.288  1.00  0.00    -0.351 A  
HETATM    4  O   UNL     1      -9.677  14.716  64.165  1.00  0.00     1.081 OA 
HETATM    5  C   UNL     1     -10.713  14.917  66.048  1.00  0.00    -0.323 A  
HETATM    6  N   UNL     1     -10.895  14.515  64.791  1.00  0.00    -0.406 NA 
ENDROOT
BRANCH   3   7
HETATM    7  C   UNL     1      -8.744  15.922  67.468  1.00  0.00    -0.178 C  
HETATM    8  O   UNL     1      -8.262  15.142  68.282  1.00  0.00    -0.136 OA 
HETATM    9  H   UNL     1      -9.119  17.860  66.848  1.00  0.00     0.000 HD 
HETATM   10  N   UNL     1      -8.703  17.306  67.596  1.00  0.00    -0.217 N  
BRANCH  10  11
HETATM   11  C   UNL     1      -8.126  18.009  68.686  1.00  0.00    -0.284 A  
HETATM   12  C   UNL     1      -8.881  18.695  69.642  1.00  0.00     0.751 A  
HETATM   13  C   UNL     1      -8.277  19.399  70.685  1.00  0.00     2.190 A  
HETATM   14  C   UNL     1      -6.888  19.438  70.807  1.00  0.00     0.685 A  
HETATM   15  C   UNL     1      -6.248  20.221  71.925  1.00  0.00     0.011 C  
HETATM   16  C   UNL     1      -6.118  18.738  69.864  1.00  0.00    -0.228 A  
HETATM   17  C   UNL     1      -6.731  18.031  68.814  1.00  0.00    -0.248 A  
HETATM   18  F   UNL     1      -5.509  19.438  72.758  1.00  0.00     0.440 F  
HETATM   19  F   UNL     1      -5.403  21.187  71.468  1.00  0.00    -0.117 F  
HETATM   20  F   UNL     1      -7.148  20.864  72.722  1.00  0.00     1.502 F  
ENDBRANCH  10  11
ENDBRANCH   3   7
TORSDOF 2
ENDMDL
MODEL      173
REMARK 921   NORMALIZED FREE ENERGY PREDICTED BY IDOCK:   21.78 KCAL/MOL
REMARK 922        TOTAL FREE ENERGY PREDICTED BY IDOCK:   24.06 KCAL/MOL
REMARK 923 INTER-LIGAND FREE ENERGY PREDICTED BY IDOCK:   24.39 KCAL/MOL
REMARK 924 INTRA-LIGAND FREE ENERGY PREDICTED BY IDOCK:   -0.33 KCAL/MOL
REMARK 927      BINDING AFFINITY PREDICTED BY RF-SCORE:    0.00 PKD
ROOT
HETATM    1  C   UNL     1      -5.136  14.996  70.748  1.00  0.00    -0.130 C  
HETATM    2  C   UNL     1      -6.464  14.679  71.322  1.00  0.00     0.483 A  
HETATM    3  C   UNL     1      -7.357  13.626  71.202  1.00  0.00     3.586 A  
HETATM    4  O   UNL     1      -6.962  15.607  72.181  1.00  0.00     3.325 OA 
HETATM    5  C   UNL     1      -8.418  14.018  72.050  1.00  0.00     9.058 A  
HETATM    6  N   UNL     1      -8.199  15.191  72.642  1.00  0.00     6.934 NA 
ENDROOT
BRANCH   3   7
HETATM    7  C   UNL     1      -7.138  12.458  70.367  1.00  0.00     1.909 C  
HETATM    8  O   UNL     1      -6.656  11.450  70.871  1.00  0.00     0.053 OA 
HETATM    9  H   UNL     1      -7.907  13.446  68.720  1.00  0.00     0.000 HD 
HETATM   10  N   UNL     1      -7.496  12.565  69.028  1.00  0.00     0.016 N  
BRANCH  10  11
HETATM   11  C   UNL     1      -7.336  11.543  68.055  1.00  0.00    -0.091 A  
HETATM   12  C   UNL     1      -6.093  11.156  67.546  1.00  0.00    -0.052 A  
HETATM   13  C   UNL     1      -5.977  10.166  66.570  1.00  0.00    -0.062 A  
HETATM   14  C   UNL     1      -7.109   9.525  66.068  1.00  0.00    -0.092 A  
HETATM   15  C   UNL     1      -6.972   8.473  64.997  1.00  0.00    -0.075 C  
HETATM   16  C   UNL     1      -8.364   9.891  66.583  1.00  0.00    -0.125 A  
HETATM   17  C   UNL     1      -8.475  10.891  67.566  1.00  0.00    -0.123 A  
HETATM   18  F   UNL     1      -7.429   7.255  65.396  1.00  0.00    -0.073 F  
HETATM   19  F   UNL     1      -7.668   8.785  63.868  1.00  0.00    -0.108 F  
HETATM   20  F   UNL     1      -5.685   8.273  64.594  1.00  0.00    -0.043 F  
ENDBRANCH  10  11
ENDBRANCH   3   7
TORSDOF 2
ENDMDL
MODEL      174
REMARK 921   NORMALIZED FREE ENERGY PREDICTED BY IDOCK:   25.01 KCAL/MOL
REMARK 922        TOTAL FREE ENERGY PREDICTED BY IDOCK:   27.67 KCAL/MOL
REMARK 923 INTER-LIGAND FREE ENERGY PREDICTED BY IDOCK:   27.85 KCAL/MOL
REMARK 924 INTRA-LIGAND FREE ENERGY PREDICTED BY IDOCK:   -0.18 KCAL/MOL
REMARK 927      BINDING AFFINITY PREDICTED BY RF-SCORE:    0.00 PKD
ROOT
HETATM    1  C   UNL     1      -5.136  14.996  70.748  1.00  0.00    -0.130 C  
HETATM    2  C   UNL     1      -6.467  14.686  71.319  1.00  0.00     0.483 A  
HETATM    3  C   UNL     1      -7.354  13.627  71.217  1.00  0.00     3.969 A  
HETATM    4  O   UNL     1      -6.976  15.632  72.152  1.00  0.00     3.325 OA 
HETATM    5  C   UNL     1      -8.423  14.033  72.047  1.00  0.00     9.058 A  
HETATM    6  N   UNL     1      -8.215  15.221  72.613  1.00  0.00     7.496 NA 
ENDROOT
BRANCH   3   7
HETATM    7  C   UNL     1      -7.123  12.441  70.411  1.00  0.00     1.909 C  
HETATM    8  O   UNL     1      -6.834  12.575  69.227  1.00  0.00    -0.091 OA 
HETATM    9  H   UNL     1      -7.473  11.219  72.043  1.00  0.00     0.000 HD 
HETATM   10  N   UNL     1      -7.247  11.212  71.048  1.00  0.00     2.455 N  
BRANCH  10  11
HETATM   11  C   UNL     1      -7.083   9.947  70.424  1.00  0.00    -0.139 A  
HETATM   12  C   UNL     1      -7.918   9.480  69.405  1.00  0.00    -0.099 A  
HETATM   13  C   UNL     1      -7.743   8.219  68.834  1.00  0.00    -0.102 A  
HETATM   14  C   UNL     1      -6.718   7.378  69.267  1.00  0.00    -0.041 A  
HETATM   15  C   UNL     1      -6.554   6.009  68.658  1.00  0.00    -0.058 C  
HETATM   16  C   UNL     1      -5.860   7.841  70.279  1.00  0.00    -0.023 A  
HETATM   17  C   UNL     1      -6.042   9.113  70.852  1.00  0.00    -0.054 A  
HETATM   18  F   UNL     1      -5.352   5.850  68.040  1.00  0.00    -0.003 F  
HETATM   19  F   UNL     1      -6.635   5.013  69.584  1.00  0.00    -0.033 F  
HETATM   20  F   UNL     1      -7.497   5.716  67.717  1.00  0.00    -0.073 F  
ENDBRANCH  10  11
ENDBRANCH   3   7
TORSDOF 2
ENDMDL
