MODEL        1
REMARK 921   NORMALIZED FREE ENERGY PREDICTED BY IDOCK:   -8.14 KCAL/MOL
REMARK 922        TOTAL FREE ENERGY PREDICTED BY IDOCK:  -12.54 KCAL/MOL
REMARK 923 INTER-LIGAND FREE ENERGY PREDICTED BY IDOCK:  -10.99 KCAL/MOL
REMARK 924 INTRA-LIGAND FREE ENERGY PREDICTED BY IDOCK:   -1.55 KCAL/MOL
REMARK 927      BINDING AFFINITY PREDICTED BY RF-SCORE:    0.00 PKD
ROOT
HETATM    1  C   UNL     1     -13.169  15.436  73.274  1.00  0.00    -0.612 C  
HETATM    2  C   UNL     1     -12.659  15.103  71.909  1.00  0.00    -0.344 A  
HETATM    3  N   UNL     1     -12.268  16.098  71.109  1.00  0.00    -0.302 NA 
HETATM    4  C   UNL     1     -11.815  15.717  69.897  1.00  0.00    -0.360 A  
HETATM    5  C   UNL     1     -11.735  14.409  69.433  1.00  0.00    -0.317 A  
HETATM    6  C   UNL     1     -12.040  11.955  70.244  1.00  0.00    -0.409 C  
HETATM    7  C   UNL     1     -12.141  13.447  70.350  1.00  0.00    -0.333 A  
HETATM    8  N   UNL     1     -12.609  13.802  71.580  1.00  0.00    -0.341 NA 
ENDROOT
BRANCH   5   9
HETATM    9  O   UNL     1     -11.242  14.333  68.167  1.00  0.00    -0.255 OA 
BRANCH   9  10
HETATM   10  C   UNL     1     -12.152  14.130  67.093  1.00  0.00    -0.397 C  
BRANCH  10  11
HETATM   11  C   UNL     1     -11.449  13.378  65.953  1.00  0.00    -0.344 C  
HETATM   12  C   UNL     1     -10.878  14.214  64.781  1.00  0.00    -0.426 C  
HETATM   13  C   UNL     1     -12.182  13.467  64.626  1.00  0.00    -0.450 C  
BRANCH  11  14
HETATM   14  C   UNL     1     -10.685  12.074  66.329  1.00  0.00    -0.302 A  
HETATM   15  C   UNL     1      -9.346  11.836  65.933  1.00  0.00    -0.214 A  
HETATM   16  F   UNL     1     -11.157   8.998  68.264  1.00  0.00    -0.169 F  
HETATM   17  C   UNL     1      -8.631  10.693  66.321  1.00  0.00    -0.156 A  
HETATM   18  C   UNL     1     -11.266  11.061  67.116  1.00  0.00    -0.290 A  
HETATM   19  C   UNL     1     -10.556   9.922  67.501  1.00  0.00    -0.275 A  
HETATM   20  C   UNL     1      -9.240   9.731  67.118  1.00  0.00    -0.159 A  
ENDBRANCH  11  14
BRANCH  12  21
HETATM   21  C   UNL     1     -10.825  15.711  64.879  1.00  0.00    -0.418 C  
HETATM   22  N   UNL     1      -9.974  16.157  65.865  1.00  0.00    -0.338 N  
HETATM   23  H   UNL     1      -9.381  15.469  66.329  1.00  0.00     0.000 HD 
HETATM   24  O   UNL     1     -11.501  16.388  64.118  1.00  0.00    -0.951 OA 
BRANCH  22  25
HETATM   25  C   UNL     1      -9.867  17.493  66.275  1.00  0.00    -0.285 A  
HETATM   26  N   UNL     1      -8.843  18.254  65.842  1.00  0.00    -0.467 NA 
HETATM   27  C   UNL     1      -8.783  19.539  66.266  1.00  0.00    -0.359 A  
HETATM   28  C   UNL     1      -9.715  20.104  67.113  1.00  0.00    -0.439 A  
HETATM   29  C   UNL     1     -10.777  19.327  67.543  1.00  0.00    -0.571 A  
HETATM   30  F   UNL     1      -9.596  21.374  67.514  1.00  0.00    -0.527 F  
HETATM   31  C   UNL     1     -10.863  18.002  67.110  1.00  0.00    -0.183 A  
ENDBRANCH  22  25
ENDBRANCH  12  21
ENDBRANCH  10  11
ENDBRANCH   9  10
ENDBRANCH   5   9
TORSDOF 6
ENDMDL
MODEL        2
REMARK 921   NORMALIZED FREE ENERGY PREDICTED BY IDOCK:   -7.83 KCAL/MOL
REMARK 922        TOTAL FREE ENERGY PREDICTED BY IDOCK:  -12.12 KCAL/MOL
REMARK 923 INTER-LIGAND FREE ENERGY PREDICTED BY IDOCK:  -10.40 KCAL/MOL
REMARK 924 INTRA-LIGAND FREE ENERGY PREDICTED BY IDOCK:   -1.72 KCAL/MOL
REMARK 927      BINDING AFFINITY PREDICTED BY RF-SCORE:    0.00 PKD
ROOT
HETATM    1  C   UNL     1      -6.599  17.936  66.014  1.00  0.00    -0.317 C  
HETATM    2  C   UNL     1      -7.585  16.923  66.501  1.00  0.00    -0.293 A  
HETATM    3  N   UNL     1      -7.314  16.253  67.623  1.00  0.00    -0.131 NA 
HETATM    4  C   UNL     1      -8.255  15.362  68.000  1.00  0.00    -0.144 A  
HETATM    5  C   UNL     1      -9.439  15.094  67.325  1.00  0.00    -0.210 A  
HETATM    6  C   UNL     1     -10.857  15.947  65.316  1.00  0.00    -0.401 C  
HETATM    7  C   UNL     1      -9.638  15.862  66.184  1.00  0.00    -0.333 A  
HETATM    8  N   UNL     1      -8.704  16.766  65.775  1.00  0.00    -0.460 NA 
ENDROOT
BRANCH   5   9
HETATM    9  O   UNL     1     -10.188  14.140  67.942  1.00  0.00    -0.229 OA 
BRANCH   9  10
HETATM   10  C   UNL     1      -9.662  12.822  68.046  1.00  0.00    -0.220 C  
BRANCH  10  11
HETATM   11  C   UNL     1     -10.666  11.815  67.466  1.00  0.00    -0.262 C  
HETATM   12  C   UNL     1     -11.751  11.250  68.414  1.00  0.00    -0.365 C  
HETATM   13  C   UNL     1     -10.539  10.423  68.059  1.00  0.00    -0.259 C  
BRANCH  11  14
HETATM   14  C   UNL     1     -11.055  11.985  65.967  1.00  0.00    -0.364 A  
HETATM   15  C   UNL     1     -12.266  12.597  65.560  1.00  0.00    -0.501 A  
HETATM   16  F   UNL     1      -9.687  11.381  62.622  1.00  0.00    -0.328 F  
HETATM   17  C   UNL     1     -12.594  12.811  64.213  1.00  0.00    -0.405 A  
HETATM   18  C   UNL     1     -10.210  11.572  64.919  1.00  0.00    -0.324 A  
HETATM   19  C   UNL     1     -10.536  11.782  63.577  1.00  0.00    -0.440 A  
HETATM   20  C   UNL     1     -11.717  12.405  63.213  1.00  0.00    -0.466 A  
ENDBRANCH  11  14
BRANCH  12  21
HETATM   21  C   UNL     1     -11.940  11.841  69.780  1.00  0.00    -0.322 C  
HETATM   22  N   UNL     1     -12.409  13.135  69.749  1.00  0.00    -0.170 N  
HETATM   23  H   UNL     1     -12.702  13.513  68.848  1.00  0.00     0.000 HD 
HETATM   24  O   UNL     1     -11.680  11.168  70.768  1.00  0.00    -0.295 OA 
BRANCH  22  25
HETATM   25  C   UNL     1     -12.512  13.968  70.871  1.00  0.00    -0.369 A  
HETATM   26  N   UNL     1     -13.414  13.698  71.835  1.00  0.00    -0.412 NA 
HETATM   27  C   UNL     1     -13.476  14.532  72.899  1.00  0.00    -0.425 A  
HETATM   28  C   UNL     1     -12.664  15.638  73.046  1.00  0.00    -0.471 A  
HETATM   29  C   UNL     1     -11.724  15.905  72.065  1.00  0.00    -0.588 A  
HETATM   30  F   UNL     1     -12.781  16.439  74.111  1.00  0.00    -0.534 F  
HETATM   31  C   UNL     1     -11.638  15.052  70.963  1.00  0.00    -0.367 A  
ENDBRANCH  22  25
ENDBRANCH  12  21
ENDBRANCH  10  11
ENDBRANCH   9  10
ENDBRANCH   5   9
TORSDOF 6
ENDMDL
MODEL        3
REMARK 921   NORMALIZED FREE ENERGY PREDICTED BY IDOCK:   -7.78 KCAL/MOL
REMARK 922        TOTAL FREE ENERGY PREDICTED BY IDOCK:  -12.06 KCAL/MOL
REMARK 923 INTER-LIGAND FREE ENERGY PREDICTED BY IDOCK:  -11.18 KCAL/MOL
REMARK 924 INTRA-LIGAND FREE ENERGY PREDICTED BY IDOCK:   -0.88 KCAL/MOL
REMARK 927      BINDING AFFINITY PREDICTED BY RF-SCORE:    0.00 PKD
ROOT
HETATM    1  C   UNL     1     -12.706  15.062  73.234  1.00  0.00    -0.635 C  
HETATM    2  C   UNL     1     -12.266  14.880  71.817  1.00  0.00    -0.348 A  
HETATM    3  N   UNL     1     -12.585  13.746  71.188  1.00  0.00    -0.360 NA 
HETATM    4  C   UNL     1     -12.158  13.659  69.911  1.00  0.00    -0.341 A  
HETATM    5  C   UNL     1     -11.429  14.625  69.229  1.00  0.00    -0.291 A  
HETATM    6  C   UNL     1     -10.557  17.062  69.498  1.00  0.00    -0.168 C  
HETATM    7  C   UNL     1     -11.171  15.776  69.963  1.00  0.00    -0.342 A  
HETATM    8  N   UNL     1     -11.584  15.892  71.257  1.00  0.00    -0.421 NA 
ENDROOT
BRANCH   5   9
HETATM    9  O   UNL     1     -11.135  14.255  67.953  1.00  0.00    -0.263 OA 
BRANCH   9  10
HETATM   10  C   UNL     1     -12.207  14.047  67.041  1.00  0.00    -0.352 C  
BRANCH  10  11
HETATM   11  C   UNL     1     -11.713  13.230  65.837  1.00  0.00    -0.403 C  
HETATM   12  C   UNL     1     -11.159  14.005  64.617  1.00  0.00    -0.387 C  
HETATM   13  C   UNL     1     -12.553  13.424  64.588  1.00  0.00    -0.322 C  
BRANCH  11  14
HETATM   14  C   UNL     1     -11.082  11.838  66.137  1.00  0.00    -0.358 A  
HETATM   15  C   UNL     1     -11.248  11.179  67.380  1.00  0.00    -0.363 A  
HETATM   16  F   UNL     1      -9.128   9.221  64.475  1.00  0.00    -0.249 F  
HETATM   17  C   UNL     1     -10.736   9.898  67.634  1.00  0.00    -0.339 A  
HETATM   18  C   UNL     1     -10.333  11.129  65.178  1.00  0.00    -0.354 A  
HETATM   19  C   UNL     1      -9.821   9.854  65.431  1.00  0.00    -0.313 A  
HETATM   20  C   UNL     1     -10.022   9.227  66.648  1.00  0.00    -0.333 A  
ENDBRANCH  11  14
BRANCH  12  21
HETATM   21  C   UNL     1     -10.914  15.482  64.711  1.00  0.00    -0.399 C  
HETATM   22  N   UNL     1      -9.949  15.811  65.636  1.00  0.00    -0.343 N  
HETATM   23  H   UNL     1      -9.416  15.051  66.059  1.00  0.00     0.000 HD 
HETATM   24  O   UNL     1     -11.549  16.244  63.997  1.00  0.00    -0.953 OA 
BRANCH  22  25
HETATM   25  C   UNL     1      -9.649  17.121  66.037  1.00  0.00    -0.163 A  
HETATM   26  N   UNL     1     -10.533  18.114  65.820  1.00  0.00    -0.613 NA 
HETATM   27  C   UNL     1     -10.198  19.362  66.225  1.00  0.00    -0.478 A  
HETATM   28  C   UNL     1      -9.003  19.664  66.848  1.00  0.00    -0.331 A  
HETATM   29  C   UNL     1      -8.103  18.639  67.088  1.00  0.00    -0.253 A  
HETATM   30  F   UNL     1      -8.716  20.919  67.211  1.00  0.00    -0.416 F  
HETATM   31  C   UNL     1      -8.434  17.343  66.686  1.00  0.00    -0.291 A  
ENDBRANCH  22  25
ENDBRANCH  12  21
ENDBRANCH  10  11
ENDBRANCH   9  10
ENDBRANCH   5   9
TORSDOF 6
ENDMDL
MODEL        4
REMARK 921   NORMALIZED FREE ENERGY PREDICTED BY IDOCK:   -7.64 KCAL/MOL
REMARK 922        TOTAL FREE ENERGY PREDICTED BY IDOCK:  -11.87 KCAL/MOL
REMARK 923 INTER-LIGAND FREE ENERGY PREDICTED BY IDOCK:  -10.56 KCAL/MOL
REMARK 924 INTRA-LIGAND FREE ENERGY PREDICTED BY IDOCK:   -1.30 KCAL/MOL
REMARK 927      BINDING AFFINITY PREDICTED BY RF-SCORE:    0.00 PKD
ROOT
HETATM    1  C   UNL     1     -13.285  11.907  71.925  1.00  0.00    -0.467 C  
HETATM    2  C   UNL     1     -12.626  13.157  71.437  1.00  0.00    -0.256 A  
HETATM    3  N   UNL     1     -12.144  13.185  70.192  1.00  0.00    -0.345 NA 
HETATM    4  C   UNL     1     -11.571  14.349  69.824  1.00  0.00    -0.298 A  
HETATM    5  C   UNL     1     -11.441  15.480  70.621  1.00  0.00    -0.358 A  
HETATM    6  C   UNL     1     -12.175  16.415  72.936  1.00  0.00    -0.534 C  
HETATM    7  C   UNL     1     -11.997  15.357  71.889  1.00  0.00    -0.408 A  
HETATM    8  N   UNL     1     -12.578  14.192  72.291  1.00  0.00    -0.258 NA 
ENDROOT
BRANCH   5   9
HETATM    9  O   UNL     1     -10.813  16.503  69.980  1.00  0.00    -0.344 OA 
BRANCH   9  10
HETATM   10  C   UNL     1     -10.561  16.379  68.585  1.00  0.00    -0.305 C  
BRANCH  10  11
HETATM   11  C   UNL     1      -9.062  16.569  68.310  1.00  0.00    -0.214 C  
HETATM   12  C   UNL     1      -8.314  15.435  67.567  1.00  0.00    -0.190 C  
HETATM   13  C   UNL     1      -8.179  15.590  69.063  1.00  0.00    -0.227 C  
BRANCH  11  14
HETATM   14  C   UNL     1      -8.566  18.024  68.060  1.00  0.00    -0.267 A  
HETATM   15  C   UNL     1      -7.192  18.371  68.059  1.00  0.00    -0.248 A  
HETATM   16  F   UNL     1      -9.888  21.341  67.235  1.00  0.00    -0.600 F  
HETATM   17  C   UNL     1      -6.736  19.666  67.772  1.00  0.00    -0.272 A  
HETATM   18  C   UNL     1      -9.452  19.084  67.787  1.00  0.00    -0.353 A  
HETATM   19  C   UNL     1      -8.999  20.375  67.503  1.00  0.00    -0.305 A  
HETATM   20  C   UNL     1      -7.648  20.675  67.485  1.00  0.00    -0.340 A  
ENDBRANCH  11  14
BRANCH  12  21
HETATM   21  C   UNL     1      -9.083  14.303  66.950  1.00  0.00    -0.252 C  
HETATM   22  N   UNL     1      -9.613  14.619  65.719  1.00  0.00    -0.494 N  
HETATM   23  H   UNL     1      -9.336  15.504  65.295  1.00  0.00     0.000 HD 
HETATM   24  O   UNL     1      -9.176  13.242  67.549  1.00  0.00    -0.195 OA 
BRANCH  22  25
HETATM   25  C   UNL     1     -10.508  13.806  65.009  1.00  0.00    -0.402 A  
HETATM   26  N   UNL     1     -10.066  13.040  63.993  1.00  0.00    -0.309 NA 
HETATM   27  C   UNL     1     -10.968  12.272  63.337  1.00  0.00    -0.405 A  
HETATM   28  C   UNL     1     -12.310  12.234  63.659  1.00  0.00    -0.562 A  
HETATM   29  C   UNL     1     -12.761  13.007  64.715  1.00  0.00    -0.409 A  
HETATM   30  F   UNL     1     -13.160  11.470  62.965  1.00  0.00    -0.574 F  
HETATM   31  C   UNL     1     -11.845  13.800  65.410  1.00  0.00    -0.371 A  
ENDBRANCH  22  25
ENDBRANCH  12  21
ENDBRANCH  10  11
ENDBRANCH   9  10
ENDBRANCH   5   9
TORSDOF 6
ENDMDL
MODEL        5
REMARK 921   NORMALIZED FREE ENERGY PREDICTED BY IDOCK:   -7.30 KCAL/MOL
REMARK 922        TOTAL FREE ENERGY PREDICTED BY IDOCK:  -11.41 KCAL/MOL
REMARK 923 INTER-LIGAND FREE ENERGY PREDICTED BY IDOCK:  -10.29 KCAL/MOL
REMARK 924 INTRA-LIGAND FREE ENERGY PREDICTED BY IDOCK:   -1.12 KCAL/MOL
REMARK 927      BINDING AFFINITY PREDICTED BY RF-SCORE:    0.00 PKD
ROOT
HETATM    1  C   UNL     1     -13.441  13.669  72.521  1.00  0.00    -0.675 C  
HETATM    2  C   UNL     1     -12.834  13.422  71.177  1.00  0.00    -0.291 A  
HETATM    3  N   UNL     1     -12.699  14.450  70.336  1.00  0.00    -0.342 NA 
HETATM    4  C   UNL     1     -12.138  14.148  69.146  1.00  0.00    -0.325 A  
HETATM    5  C   UNL     1     -11.714  12.888  68.744  1.00  0.00    -0.323 A  
HETATM    6  C   UNL     1     -11.389  10.475  69.664  1.00  0.00    -0.345 C  
HETATM    7  C   UNL     1     -11.874  11.893  69.700  1.00  0.00    -0.337 A  
HETATM    8  N   UNL     1     -12.442  12.166  70.909  1.00  0.00    -0.342 NA 
ENDROOT
BRANCH   5   9
HETATM    9  O   UNL     1     -11.192  12.889  67.486  1.00  0.00    -0.263 OA 
BRANCH   9  10
HETATM   10  C   UNL     1     -12.016  12.461  66.408  1.00  0.00    -0.274 C  
BRANCH  10  11
HETATM   11  C   UNL     1     -11.149  12.193  65.168  1.00  0.00    -0.369 C  
HETATM   12  C   UNL     1     -10.749  13.404  64.292  1.00  0.00    -0.374 C  
HETATM   13  C   UNL     1     -11.861  12.479  63.858  1.00  0.00    -0.544 C  
BRANCH  11  14
HETATM   14  C   UNL     1     -10.132  11.016  65.256  1.00  0.00    -0.332 A  
HETATM   15  C   UNL     1      -9.568  10.411  64.106  1.00  0.00    -0.381 A  
HETATM   16  F   UNL     1      -8.324   9.045  67.760  1.00  0.00    -0.113 F  
HETATM   17  C   UNL     1      -8.604   9.395  64.179  1.00  0.00    -0.216 A  
HETATM   18  C   UNL     1      -9.683  10.500  66.487  1.00  0.00    -0.237 A  
HETATM   19  C   UNL     1      -8.725   9.486  66.561  1.00  0.00    -0.134 A  
HETATM   20  C   UNL     1      -8.174   8.933  65.418  1.00  0.00    -0.131 A  
ENDBRANCH  11  14
BRANCH  12  21
HETATM   21  C   UNL     1     -11.016  14.801  64.769  1.00  0.00    -0.379 C  
HETATM   22  N   UNL     1     -10.030  15.286  65.598  1.00  0.00    -0.351 N  
HETATM   23  H   UNL     1      -9.180  14.732  65.701  1.00  0.00     0.000 HD 
HETATM   24  O   UNL     1     -12.031  15.377  64.407  1.00  0.00    -0.396 OA 
BRANCH  22  25
HETATM   25  C   UNL     1     -10.114  16.490  66.311  1.00  0.00    -0.333 A  
HETATM   26  N   UNL     1      -9.787  17.654  65.715  1.00  0.00    -0.549 NA 
HETATM   27  C   UNL     1      -9.884  18.790  66.444  1.00  0.00    -0.373 A  
HETATM   28  C   UNL     1     -10.302  18.816  67.760  1.00  0.00    -0.411 A  
HETATM   29  C   UNL     1     -10.655  17.622  68.366  1.00  0.00    -0.318 A  
HETATM   30  F   UNL     1     -10.362  19.966  68.438  1.00  0.00    -0.514 F  
HETATM   31  C   UNL     1     -10.571  16.439  67.629  1.00  0.00    -0.313 A  
ENDBRANCH  22  25
ENDBRANCH  12  21
ENDBRANCH  10  11
ENDBRANCH   9  10
ENDBRANCH   5   9
TORSDOF 6
ENDMDL
MODEL        6
REMARK 921   NORMALIZED FREE ENERGY PREDICTED BY IDOCK:   -7.28 KCAL/MOL
REMARK 922        TOTAL FREE ENERGY PREDICTED BY IDOCK:  -11.39 KCAL/MOL
REMARK 923 INTER-LIGAND FREE ENERGY PREDICTED BY IDOCK:  -10.20 KCAL/MOL
REMARK 924 INTRA-LIGAND FREE ENERGY PREDICTED BY IDOCK:   -1.19 KCAL/MOL
REMARK 927      BINDING AFFINITY PREDICTED BY RF-SCORE:    0.00 PKD
ROOT
HETATM    1  C   UNL     1     -10.117  11.158  63.097  1.00  0.00    -0.373 C  
HETATM    2  C   UNL     1     -10.706  11.934  64.231  1.00  0.00    -0.338 A  
HETATM    3  N   UNL     1     -11.240  13.132  63.980  1.00  0.00    -0.391 NA 
HETATM    4  C   UNL     1     -11.756  13.767  65.053  1.00  0.00    -0.345 A  
HETATM    5  C   UNL     1     -11.765  13.286  66.356  1.00  0.00    -0.373 A  
HETATM    6  C   UNL     1     -11.196  11.146  67.725  1.00  0.00    -0.359 C  
HETATM    7  C   UNL     1     -11.210  12.021  66.507  1.00  0.00    -0.334 A  
HETATM    8  N   UNL     1     -10.676  11.357  65.443  1.00  0.00    -0.272 NA 
ENDROOT
BRANCH   5   9
HETATM    9  O   UNL     1     -12.351  14.151  67.229  1.00  0.00    -0.350 OA 
BRANCH   9  10
HETATM   10  C   UNL     1     -11.631  15.315  67.619  1.00  0.00    -0.239 C  
BRANCH  10  11
HETATM   11  C   UNL     1     -11.075  15.129  69.038  1.00  0.00    -0.260 C  
HETATM   12  C   UNL     1      -9.952  16.088  69.505  1.00  0.00    -0.255 C  
HETATM   13  C   UNL     1      -9.625  14.680  69.066  1.00  0.00    -0.145 C  
BRANCH  11  14
HETATM   14  C   UNL     1     -12.065  14.617  70.126  1.00  0.00    -0.385 A  
HETATM   15  C   UNL     1     -12.240  13.240  70.409  1.00  0.00    -0.404 A  
HETATM   16  F   UNL     1     -14.356  15.914  72.676  1.00  0.00    -0.645 F  
HETATM   17  C   UNL     1     -13.081  12.775  71.430  1.00  0.00    -0.318 A  
HETATM   18  C   UNL     1     -12.826  15.494  70.923  1.00  0.00    -0.535 A  
HETATM   19  C   UNL     1     -13.667  15.032  71.939  1.00  0.00    -0.447 A  
HETATM   20  C   UNL     1     -13.796  13.680  72.206  1.00  0.00    -0.689 A  
ENDBRANCH  11  14
BRANCH  12  21
HETATM   21  C   UNL     1      -9.590  17.285  68.675  1.00  0.00    -0.284 C  
HETATM   22  N   UNL     1      -8.342  17.186  68.101  1.00  0.00    -0.219 N  
HETATM   23  H   UNL     1      -7.854  16.293  68.176  1.00  0.00     0.000 HD 
HETATM   24  O   UNL     1     -10.385  18.208  68.571  1.00  0.00    -0.375 OA 
BRANCH  22  25
HETATM   25  C   UNL     1      -7.698  18.228  67.421  1.00  0.00    -0.218 A  
HETATM   26  N   UNL     1      -7.472  19.403  68.040  1.00  0.00    -0.272 NA 
HETATM   27  C   UNL     1      -6.847  20.379  67.340  1.00  0.00    -0.278 A  
HETATM   28  C   UNL     1      -6.430  20.230  66.033  1.00  0.00    -0.213 A  
HETATM   29  C   UNL     1      -6.646  19.016  65.403  1.00  0.00    -0.292 A  
HETATM   30  F   UNL     1      -5.833  21.235  65.384  1.00  0.00    -0.266 F  
HETATM   31  C   UNL     1      -7.282  17.993  66.110  1.00  0.00    -0.325 A  
ENDBRANCH  22  25
ENDBRANCH  12  21
ENDBRANCH  10  11
ENDBRANCH   9  10
ENDBRANCH   5   9
TORSDOF 6
ENDMDL
MODEL        7
REMARK 921   NORMALIZED FREE ENERGY PREDICTED BY IDOCK:   -7.25 KCAL/MOL
REMARK 922        TOTAL FREE ENERGY PREDICTED BY IDOCK:  -11.34 KCAL/MOL
REMARK 923 INTER-LIGAND FREE ENERGY PREDICTED BY IDOCK:  -10.56 KCAL/MOL
REMARK 924 INTRA-LIGAND FREE ENERGY PREDICTED BY IDOCK:   -0.78 KCAL/MOL
REMARK 927      BINDING AFFINITY PREDICTED BY RF-SCORE:    0.00 PKD
ROOT
HETATM    1  C   UNL     1     -12.484  15.948  74.109  1.00  0.00    -0.776 C  
HETATM    2  C   UNL     1     -12.435  15.369  72.731  1.00  0.00    -0.401 A  
HETATM    3  N   UNL     1     -13.195  14.307  72.455  1.00  0.00    -0.420 NA 
HETATM    4  C   UNL     1     -13.100  13.846  71.190  1.00  0.00    -0.281 A  
HETATM    5  C   UNL     1     -12.289  14.373  70.192  1.00  0.00    -0.348 A  
HETATM    6  C   UNL     1     -10.716  16.392  69.721  1.00  0.00    -0.324 C  
HETATM    7  C   UNL     1     -11.558  15.491  70.573  1.00  0.00    -0.346 A  
HETATM    8  N   UNL     1     -11.629  15.976  71.845  1.00  0.00    -0.456 NA 
ENDROOT
BRANCH   5   9
HETATM    9  O   UNL     1     -12.399  13.694  69.017  1.00  0.00    -0.280 OA 
BRANCH   9  10
HETATM   10  C   UNL     1     -11.930  12.352  68.959  1.00  0.00    -0.241 C  
BRANCH  10  11
HETATM   11  C   UNL     1     -10.922  12.204  67.810  1.00  0.00    -0.278 C  
HETATM   12  C   UNL     1     -10.010  10.953  67.806  1.00  0.00    -0.198 C  
HETATM   13  C   UNL     1      -9.475  12.291  68.259  1.00  0.00    -0.209 C  
BRANCH  11  14
HETATM   14  C   UNL     1     -11.338  12.780  66.424  1.00  0.00    -0.369 A  
HETATM   15  C   UNL     1     -10.984  14.086  66.005  1.00  0.00    -0.298 A  
HETATM   16  F   UNL     1     -13.066  11.756  63.359  1.00  0.00    -0.657 F  
HETATM   17  C   UNL     1     -11.300  14.588  64.734  1.00  0.00    -0.397 A  
HETATM   18  C   UNL     1     -12.066  12.026  65.484  1.00  0.00    -0.067 A  
HETATM   19  C   UNL     1     -12.384  12.525  64.218  1.00  0.00    -0.456 A  
HETATM   20  C   UNL     1     -12.001  13.797  63.830  1.00  0.00    -0.414 A  
ENDBRANCH  11  14
BRANCH  12  21
HETATM   21  C   UNL     1     -10.266   9.831  68.769  1.00  0.00    -0.194 C  
HETATM   22  N   UNL     1     -10.214  10.228  70.086  1.00  0.00    -0.424 N  
HETATM   23  H   UNL     1     -10.143  11.227  70.280  1.00  0.00     0.000 HD 
HETATM   24  O   UNL     1     -10.493   8.710  68.339  1.00  0.00    -0.213 OA 
BRANCH  22  25
HETATM   25  C   UNL     1     -10.251   9.352  71.180  1.00  0.00    -0.291 A  
HETATM   26  N   UNL     1      -9.113   9.015  71.816  1.00  0.00    -0.363 NA 
HETATM   27  C   UNL     1      -9.200   8.165  72.867  1.00  0.00    -0.273 A  
HETATM   28  C   UNL     1     -10.391   7.632  73.317  1.00  0.00    -0.345 A  
HETATM   29  C   UNL     1     -11.563   7.994  72.674  1.00  0.00    -0.448 A  
HETATM   30  F   UNL     1     -10.417   6.782  74.349  1.00  0.00    -0.380 F  
HETATM   31  C   UNL     1     -11.496   8.876  71.593  1.00  0.00    -0.409 A  
ENDBRANCH  22  25
ENDBRANCH  12  21
ENDBRANCH  10  11
ENDBRANCH   9  10
ENDBRANCH   5   9
TORSDOF 6
ENDMDL
MODEL        8
REMARK 921   NORMALIZED FREE ENERGY PREDICTED BY IDOCK:   -7.23 KCAL/MOL
REMARK 922        TOTAL FREE ENERGY PREDICTED BY IDOCK:  -11.31 KCAL/MOL
REMARK 923 INTER-LIGAND FREE ENERGY PREDICTED BY IDOCK:   -9.72 KCAL/MOL
REMARK 924 INTRA-LIGAND FREE ENERGY PREDICTED BY IDOCK:   -1.59 KCAL/MOL
REMARK 927      BINDING AFFINITY PREDICTED BY RF-SCORE:    0.00 PKD
ROOT
HETATM    1  C   UNL     1     -11.046  10.478  67.612  1.00  0.00    -0.375 C  
HETATM    2  C   UNL     1     -10.823  11.872  67.120  1.00  0.00    -0.255 A  
HETATM    3  N   UNL     1      -9.629  12.438  67.315  1.00  0.00    -0.196 NA 
HETATM    4  C   UNL     1      -9.504  13.694  66.838  1.00  0.00    -0.262 A  
HETATM    5  C   UNL     1     -10.496  14.420  66.189  1.00  0.00    -0.291 A  
HETATM    6  C   UNL     1     -12.899  14.147  65.228  1.00  0.00    -0.370 C  
HETATM    7  C   UNL     1     -11.691  13.733  66.013  1.00  0.00    -0.363 A  
HETATM    8  N   UNL     1     -11.849  12.466  66.488  1.00  0.00    -0.563 NA 
ENDROOT
BRANCH   5   9
HETATM    9  O   UNL     1     -10.079  15.664  65.825  1.00  0.00    -0.312 OA 
BRANCH   9  10
HETATM   10  C   UNL     1      -8.910  16.196  66.437  1.00  0.00    -0.320 C  
BRANCH  10  11
HETATM   11  C   UNL     1      -9.186  17.625  66.927  1.00  0.00    -0.270 C  
HETATM   12  C   UNL     1      -9.976  17.796  68.248  1.00  0.00    -0.355 C  
HETATM   13  C   UNL     1     -10.658  17.995  66.916  1.00  0.00    -0.291 C  
BRANCH  11  14
HETATM   14  C   UNL     1      -8.114  18.706  66.600  1.00  0.00    -0.284 A  
HETATM   15  C   UNL     1      -8.044  19.942  67.289  1.00  0.00    -0.341 A  
HETATM   16  F   UNL     1      -5.198  19.209  64.437  1.00  0.00    -0.181 F  
HETATM   17  C   UNL     1      -7.042  20.892  67.044  1.00  0.00    -0.379 A  
HETATM   18  C   UNL     1      -7.122  18.510  65.620  1.00  0.00    -0.205 A  
HETATM   19  C   UNL     1      -6.125  19.457  65.372  1.00  0.00    -0.230 A  
HETATM   20  C   UNL     1      -6.070  20.644  66.081  1.00  0.00    -0.260 A  
ENDBRANCH  11  14
BRANCH  12  21
HETATM   21  C   UNL     1     -10.258  16.605  69.116  1.00  0.00    -0.309 C  
HETATM   22  N   UNL     1     -11.602  16.326  69.229  1.00  0.00    -0.256 N  
HETATM   23  H   UNL     1     -12.247  16.845  68.634  1.00  0.00     0.000 HD 
HETATM   24  O   UNL     1      -9.328  15.999  69.629  1.00  0.00    -0.210 OA 
BRANCH  22  25
HETATM   25  C   UNL     1     -12.143  15.377  70.107  1.00  0.00    -0.369 A  
HETATM   26  N   UNL     1     -12.751  15.774  71.243  1.00  0.00    -0.470 NA 
HETATM   27  C   UNL     1     -13.258  14.820  72.059  1.00  0.00    -0.351 A  
HETATM   28  C   UNL     1     -13.185  13.469  71.785  1.00  0.00    -0.404 A  
HETATM   29  C   UNL     1     -12.577  13.062  70.610  1.00  0.00    -0.270 A  
HETATM   30  F   UNL     1     -13.687  12.568  72.637  1.00  0.00    -0.572 F  
HETATM   31  C   UNL     1     -12.055  14.031  69.750  1.00  0.00    -0.405 A  
ENDBRANCH  22  25
ENDBRANCH  12  21
ENDBRANCH  10  11
ENDBRANCH   9  10
ENDBRANCH   5   9
TORSDOF 6
ENDMDL
MODEL        9
REMARK 921   NORMALIZED FREE ENERGY PREDICTED BY IDOCK:   -7.21 KCAL/MOL
REMARK 922        TOTAL FREE ENERGY PREDICTED BY IDOCK:  -11.29 KCAL/MOL
REMARK 923 INTER-LIGAND FREE ENERGY PREDICTED BY IDOCK:  -10.09 KCAL/MOL
REMARK 924 INTRA-LIGAND FREE ENERGY PREDICTED BY IDOCK:   -1.20 KCAL/MOL
REMARK 927      BINDING AFFINITY PREDICTED BY RF-SCORE:    0.00 PKD
ROOT
HETATM    1  C   UNL     1     -12.889  15.944  73.633  1.00  0.00    -0.717 C  
HETATM    2  C   UNL     1     -12.677  15.099  72.418  1.00  0.00    -0.348 A  
HETATM    3  N   UNL     1     -12.218  15.678  71.306  1.00  0.00    -0.380 NA 
HETATM    4  C   UNL     1     -12.047  14.848  70.256  1.00  0.00    -0.325 A  
HETATM    5  C   UNL     1     -12.312  13.484  70.245  1.00  0.00    -0.300 A  
HETATM    6  C   UNL     1     -12.989  11.545  71.841  1.00  0.00    -0.453 C  
HETATM    7  C   UNL     1     -12.761  12.975  71.457  1.00  0.00    -0.251 A  
HETATM    8  N   UNL     1     -12.949  13.789  72.534  1.00  0.00    -0.365 NA 
ENDROOT
BRANCH   5   9
HETATM    9  O   UNL     1     -12.048  12.910  69.039  1.00  0.00    -0.267 OA 
BRANCH   9  10
HETATM   10  C   UNL     1     -10.690  12.723  68.657  1.00  0.00    -0.246 C  
BRANCH  10  11
HETATM   11  C   UNL     1     -10.618  12.339  67.172  1.00  0.00    -0.250 C  
HETATM   12  C   UNL     1     -10.226  13.443  66.159  1.00  0.00    -0.301 C  
HETATM   13  C   UNL     1     -11.669  13.024  66.317  1.00  0.00    -0.440 C  
BRANCH  11  14
HETATM   14  C   UNL     1     -10.176  10.883  66.837  1.00  0.00    -0.272 A  
HETATM   15  C   UNL     1      -9.870  10.465  65.519  1.00  0.00    -0.332 A  
HETATM   16  F   UNL     1      -9.421   7.717  68.520  1.00  0.00    -0.146 F  
HETATM   17  C   UNL     1      -9.410   9.175  65.219  1.00  0.00    -0.224 A  
HETATM   18  C   UNL     1     -10.020   9.897  67.830  1.00  0.00    -0.201 A  
HETATM   19  C   UNL     1      -9.565   8.610  67.532  1.00  0.00    -0.157 A  
HETATM   20  C   UNL     1      -9.250   8.241  66.236  1.00  0.00    -0.258 A  
ENDBRANCH  11  14
BRANCH  12  21
HETATM   21  C   UNL     1      -9.725  14.770  66.648  1.00  0.00    -0.267 C  
HETATM   22  N   UNL     1     -10.681  15.759  66.599  1.00  0.00    -0.310 N  
HETATM   23  H   UNL     1     -11.638  15.485  66.373  1.00  0.00     0.000 HD 
HETATM   24  O   UNL     1      -8.570  14.872  67.036  1.00  0.00    -0.212 OA 
BRANCH  22  25
HETATM   25  C   UNL     1     -10.430  17.117  66.837  1.00  0.00    -0.274 A  
HETATM   26  N   UNL     1     -10.483  18.004  65.825  1.00  0.00    -0.601 NA 
HETATM   27  C   UNL     1     -10.232  19.305  66.105  1.00  0.00    -0.470 A  
HETATM   28  C   UNL     1      -9.929  19.764  67.371  1.00  0.00    -0.400 A  
HETATM   29  C   UNL     1      -9.892  18.856  68.415  1.00  0.00    -0.435 A  
HETATM   30  F   UNL     1      -9.671  21.059  67.588  1.00  0.00    -0.551 F  
HETATM   31  C   UNL     1     -10.157  17.510  68.149  1.00  0.00    -0.341 A  
ENDBRANCH  22  25
ENDBRANCH  12  21
ENDBRANCH  10  11
ENDBRANCH   9  10
ENDBRANCH   5   9
TORSDOF 6
ENDMDL
MODEL       10
REMARK 921   NORMALIZED FREE ENERGY PREDICTED BY IDOCK:   -7.17 KCAL/MOL
REMARK 922        TOTAL FREE ENERGY PREDICTED BY IDOCK:  -11.24 KCAL/MOL
REMARK 923 INTER-LIGAND FREE ENERGY PREDICTED BY IDOCK:   -9.88 KCAL/MOL
REMARK 924 INTRA-LIGAND FREE ENERGY PREDICTED BY IDOCK:   -1.36 KCAL/MOL
REMARK 927      BINDING AFFINITY PREDICTED BY RF-SCORE:    0.00 PKD
ROOT
HETATM    1  C   UNL     1     -13.189  10.283  71.937  1.00  0.00    -0.550 C  
HETATM    2  C   UNL     1     -12.855  11.636  71.396  1.00  0.00    -0.356 A  
HETATM    3  N   UNL     1     -12.053  11.722  70.332  1.00  0.00    -0.365 NA 
HETATM    4  C   UNL     1     -11.804  12.976  69.900  1.00  0.00    -0.307 A  
HETATM    5  C   UNL     1     -12.298  14.145  70.468  1.00  0.00    -0.364 A  
HETATM    6  C   UNL     1     -13.964  14.957  72.294  1.00  0.00    -0.602 C  
HETATM    7  C   UNL     1     -13.143  13.946  71.553  1.00  0.00    -0.365 A  
HETATM    8  N   UNL     1     -13.409  12.692  72.015  1.00  0.00    -0.504 NA 
ENDROOT
BRANCH   5   9
HETATM    9  O   UNL     1     -11.871  15.262  69.818  1.00  0.00    -0.292 OA 
BRANCH   9  10
HETATM   10  C   UNL     1     -11.609  15.180  68.422  1.00  0.00    -0.337 C  
BRANCH  10  11
HETATM   11  C   UNL     1     -10.269  15.860  68.105  1.00  0.00    -0.232 C  
HETATM   12  C   UNL     1      -9.216  15.047  67.313  1.00  0.00    -0.210 C  
HETATM   13  C   UNL     1      -9.084  15.220  68.807  1.00  0.00    -0.200 C  
BRANCH  11  14
HETATM   14  C   UNL     1     -10.292  17.400  67.875  1.00  0.00    -0.369 A  
HETATM   15  C   UNL     1      -9.977  18.328  68.897  1.00  0.00    -0.361 A  
HETATM   16  F   UNL     1     -10.844  19.831  65.188  1.00  0.00    -0.528 F  
HETATM   17  C   UNL     1      -9.934  19.713  68.679  1.00  0.00    -0.553 A  
HETATM   18  C   UNL     1     -10.598  17.968  66.623  1.00  0.00    -0.268 A  
HETATM   19  C   UNL     1     -10.558  19.348  66.405  1.00  0.00    -0.463 A  
HETATM   20  C   UNL     1     -10.221  20.226  67.420  1.00  0.00    -0.494 A  
ENDBRANCH  11  14
BRANCH  12  21
HETATM   21  C   UNL     1      -9.589  13.731  66.695  1.00  0.00    -0.288 C  
HETATM   22  N   UNL     1      -9.169  12.649  67.435  1.00  0.00    -0.184 N  
HETATM   23  H   UNL     1      -8.780  12.828  68.360  1.00  0.00     0.000 HD 
HETATM   24  O   UNL     1     -10.207  13.716  65.640  1.00  0.00    -0.291 OA 
BRANCH  22  25
HETATM   25  C   UNL     1      -9.241  11.317  67.002  1.00  0.00    -0.165 A  
HETATM   26  N   UNL     1      -8.336  10.840  66.127  1.00  0.00    -0.162 NA 
HETATM   27  C   UNL     1      -8.447   9.547  65.739  1.00  0.00    -0.134 A  
HETATM   28  C   UNL     1      -9.436   8.699  66.196  1.00  0.00    -0.240 A  
HETATM   29  C   UNL     1     -10.356   9.185  67.110  1.00  0.00    -0.337 A  
HETATM   30  F   UNL     1      -9.510   7.436  65.764  1.00  0.00    -0.111 F  
HETATM   31  C   UNL     1     -10.253  10.513  67.530  1.00  0.00    -0.245 A  
ENDBRANCH  22  25
ENDBRANCH  12  21
ENDBRANCH  10  11
ENDBRANCH   9  10
ENDBRANCH   5   9
TORSDOF 6
ENDMDL
MODEL       11
REMARK 921   NORMALIZED FREE ENERGY PREDICTED BY IDOCK:   -7.15 KCAL/MOL
REMARK 922        TOTAL FREE ENERGY PREDICTED BY IDOCK:  -11.20 KCAL/MOL
REMARK 923 INTER-LIGAND FREE ENERGY PREDICTED BY IDOCK:   -9.98 KCAL/MOL
REMARK 924 INTRA-LIGAND FREE ENERGY PREDICTED BY IDOCK:   -1.22 KCAL/MOL
REMARK 927      BINDING AFFINITY PREDICTED BY RF-SCORE:    0.00 PKD
ROOT
HETATM    1  C   UNL     1     -13.257  10.107  72.197  1.00  0.00    -0.463 C  
HETATM    2  C   UNL     1     -12.704  10.966  71.106  1.00  0.00    -0.429 A  
HETATM    3  N   UNL     1     -12.248  10.380  69.996  1.00  0.00    -0.231 NA 
HETATM    4  C   UNL     1     -11.772  11.223  69.056  1.00  0.00    -0.342 A  
HETATM    5  C   UNL     1     -11.714  12.607  69.159  1.00  0.00    -0.321 A  
HETATM    6  C   UNL     1     -12.475  14.552  70.712  1.00  0.00    -0.420 C  
HETATM    7  C   UNL     1     -12.236  13.119  70.340  1.00  0.00    -0.316 A  
HETATM    8  N   UNL     1     -12.720  12.293  71.310  1.00  0.00    -0.322 NA 
ENDROOT
BRANCH   5   9
HETATM    9  O   UNL     1     -11.177  13.192  68.053  1.00  0.00    -0.251 OA 
BRANCH   9  10
HETATM   10  C   UNL     1     -11.851  13.043  66.809  1.00  0.00    -0.388 C  
BRANCH  10  11
HETATM   11  C   UNL     1     -10.847  12.635  65.721  1.00  0.00    -0.304 C  
HETATM   12  C   UNL     1     -10.334  13.738  64.763  1.00  0.00    -0.422 C  
HETATM   13  C   UNL     1     -11.396  12.765  64.311  1.00  0.00    -0.416 C  
BRANCH  11  14
HETATM   14  C   UNL     1      -9.860  11.481  66.064  1.00  0.00    -0.255 A  
HETATM   15  C   UNL     1      -8.540  11.718  66.519  1.00  0.00    -0.148 A  
HETATM   16  F   UNL     1      -9.769   7.822  66.249  1.00  0.00    -0.259 F  
HETATM   17  C   UNL     1      -7.667  10.685  66.891  1.00  0.00    -0.122 A  
HETATM   18  C   UNL     1     -10.227  10.124  65.974  1.00  0.00    -0.288 A  
HETATM   19  C   UNL     1      -9.359   9.094  66.341  1.00  0.00    -0.204 A  
HETATM   20  C   UNL     1      -8.083   9.361  66.807  1.00  0.00    -0.109 A  
ENDBRANCH  11  14
BRANCH  12  21
HETATM   21  C   UNL     1     -10.642  15.180  65.040  1.00  0.00    -0.413 C  
HETATM   22  N   UNL     1      -9.757  15.761  65.922  1.00  0.00    -0.336 N  
HETATM   23  H   UNL     1      -8.932  15.224  66.190  1.00  0.00     0.000 HD 
HETATM   24  O   UNL     1     -11.599  15.708  64.492  1.00  0.00    -0.392 OA 
BRANCH  22  25
HETATM   25  C   UNL     1      -9.914  17.039  66.475  1.00  0.00    -0.310 A  
HETATM   26  N   UNL     1     -10.050  18.112  65.672  1.00  0.00    -0.513 NA 
HETATM   27  C   UNL     1     -10.198  19.326  66.253  1.00  0.00    -0.464 A  
HETATM   28  C   UNL     1     -10.219  19.517  67.620  1.00  0.00    -0.434 A  
HETATM   29  C   UNL     1     -10.097  18.411  68.445  1.00  0.00    -0.418 A  
HETATM   30  F   UNL     1     -10.349  20.742  68.140  1.00  0.00    -0.401 F  
HETATM   31  C   UNL     1      -9.952  17.149  67.866  1.00  0.00    -0.292 A  
ENDBRANCH  22  25
ENDBRANCH  12  21
ENDBRANCH  10  11
ENDBRANCH   9  10
ENDBRANCH   5   9
TORSDOF 6
ENDMDL
MODEL       12
REMARK 921   NORMALIZED FREE ENERGY PREDICTED BY IDOCK:   -7.13 KCAL/MOL
REMARK 922        TOTAL FREE ENERGY PREDICTED BY IDOCK:  -11.19 KCAL/MOL
REMARK 923 INTER-LIGAND FREE ENERGY PREDICTED BY IDOCK:   -9.75 KCAL/MOL
REMARK 924 INTRA-LIGAND FREE ENERGY PREDICTED BY IDOCK:   -1.44 KCAL/MOL
REMARK 927      BINDING AFFINITY PREDICTED BY RF-SCORE:    0.00 PKD
ROOT
HETATM    1  C   UNL     1     -12.510  15.641  74.066  1.00  0.00    -0.785 C  
HETATM    2  C   UNL     1     -12.356  15.145  72.664  1.00  0.00    -0.378 A  
HETATM    3  N   UNL     1     -12.941  13.993  72.324  1.00  0.00    -0.373 NA 
HETATM    4  C   UNL     1     -12.761  13.616  71.041  1.00  0.00    -0.332 A  
HETATM    5  C   UNL     1     -12.031  14.309  70.083  1.00  0.00    -0.326 A  
HETATM    6  C   UNL     1     -10.783  16.566  69.737  1.00  0.00    -0.298 C  
HETATM    7  C   UNL     1     -11.485  15.506  70.531  1.00  0.00    -0.347 A  
HETATM    8  N   UNL     1     -11.644  15.911  71.822  1.00  0.00    -0.449 NA 
ENDROOT
BRANCH   5   9
HETATM    9  O   UNL     1     -12.022  13.680  68.876  1.00  0.00    -0.340 OA 
BRANCH   9  10
HETATM   10  C   UNL     1     -10.806  13.099  68.421  1.00  0.00    -0.262 C  
BRANCH  10  11
HETATM   11  C   UNL     1     -10.965  12.640  66.963  1.00  0.00    -0.300 C  
HETATM   12  C   UNL     1     -10.758  13.693  65.848  1.00  0.00    -0.281 C  
HETATM   13  C   UNL     1     -12.149  13.272  66.255  1.00  0.00    -0.472 C  
BRANCH  11  14
HETATM   14  C   UNL     1     -10.559  11.173  66.634  1.00  0.00    -0.314 A  
HETATM   15  C   UNL     1      -9.860  10.823  65.453  1.00  0.00    -0.317 A  
HETATM   16  F   UNL     1     -10.689   7.822  68.112  1.00  0.00    -0.240 F  
HETATM   17  C   UNL     1      -9.435   9.514  65.181  1.00  0.00    -0.305 A  
HETATM   18  C   UNL     1     -10.833  10.102  67.508  1.00  0.00    -0.349 A  
HETATM   19  C   UNL     1     -10.413   8.798  67.237  1.00  0.00    -0.283 A  
HETATM   20  C   UNL     1      -9.709   8.493  66.085  1.00  0.00    -0.259 A  
ENDBRANCH  11  14
BRANCH  12  21
HETATM   21  C   UNL     1     -10.206  15.048  66.184  1.00  0.00    -0.297 C  
HETATM   22  N   UNL     1      -8.830  15.070  66.242  1.00  0.00    -0.471 N  
HETATM   23  H   UNL     1      -8.327  14.238  65.934  1.00  0.00     0.000 HD 
HETATM   24  O   UNL     1     -10.973  15.981  66.367  1.00  0.00    -0.218 OA 
BRANCH  22  25
HETATM   25  C   UNL     1      -8.074  16.160  66.696  1.00  0.00    -0.288 A  
HETATM   26  N   UNL     1      -7.952  17.264  65.934  1.00  0.00    -0.519 NA 
HETATM   27  C   UNL     1      -7.211  18.290  66.415  1.00  0.00    -0.244 A  
HETATM   28  C   UNL     1      -6.581  18.261  67.643  1.00  0.00    -0.199 A  
HETATM   29  C   UNL     1      -6.721  17.134  68.434  1.00  0.00    -0.170 A  
HETATM   30  F   UNL     1      -5.846  19.297  68.061  1.00  0.00    -0.194 F  
HETATM   31  C   UNL     1      -7.489  16.068  67.960  1.00  0.00    -0.134 A  
ENDBRANCH  22  25
ENDBRANCH  12  21
ENDBRANCH  10  11
ENDBRANCH   9  10
ENDBRANCH   5   9
TORSDOF 6
ENDMDL
MODEL       13
REMARK 921   NORMALIZED FREE ENERGY PREDICTED BY IDOCK:   -7.10 KCAL/MOL
REMARK 922        TOTAL FREE ENERGY PREDICTED BY IDOCK:  -11.14 KCAL/MOL
REMARK 923 INTER-LIGAND FREE ENERGY PREDICTED BY IDOCK:   -9.92 KCAL/MOL
REMARK 924 INTRA-LIGAND FREE ENERGY PREDICTED BY IDOCK:   -1.22 KCAL/MOL
REMARK 927      BINDING AFFINITY PREDICTED BY RF-SCORE:    0.00 PKD
ROOT
HETATM    1  C   UNL     1     -11.336   9.331  71.734  1.00  0.00    -0.437 C  
HETATM    2  C   UNL     1     -11.124  10.075  70.455  1.00  0.00    -0.327 A  
HETATM    3  N   UNL     1     -12.156  10.724  69.911  1.00  0.00    -0.329 NA 
HETATM    4  C   UNL     1     -11.884  11.376  68.762  1.00  0.00    -0.323 A  
HETATM    5  C   UNL     1     -10.652  11.413  68.120  1.00  0.00    -0.189 A  
HETATM    6  C   UNL     1      -8.175  10.693  68.459  1.00  0.00    -0.128 C  
HETATM    7  C   UNL     1      -9.638  10.729  68.779  1.00  0.00    -0.189 A  
HETATM    8  N   UNL     1      -9.884  10.057  69.939  1.00  0.00    -0.239 NA 
ENDROOT
BRANCH   5   9
HETATM    9  O   UNL     1     -10.682  12.147  66.974  1.00  0.00    -0.226 OA 
BRANCH   9  10
HETATM   10  C   UNL     1     -11.787  11.988  66.093  1.00  0.00    -0.148 C  
BRANCH  10  11
HETATM   11  C   UNL     1     -11.282  11.827  64.651  1.00  0.00    -0.349 C  
HETATM   12  C   UNL     1     -11.261  13.085  63.749  1.00  0.00    -0.396 C  
HETATM   13  C   UNL     1     -12.357  12.056  63.604  1.00  0.00    -0.648 C  
BRANCH  11  14
HETATM   14  C   UNL     1     -10.174  10.762  64.403  1.00  0.00    -0.432 A  
HETATM   15  C   UNL     1      -9.333  10.788  63.263  1.00  0.00    -0.324 A  
HETATM   16  F   UNL     1      -8.669   7.842  66.028  1.00  0.00    -0.128 F  
HETATM   17  C   UNL     1      -8.292   9.869  63.066  1.00  0.00    -0.163 A  
HETATM   18  C   UNL     1      -9.914   9.720  65.315  1.00  0.00    -0.251 A  
HETATM   19  C   UNL     1      -8.879   8.803  65.119  1.00  0.00    -0.133 A  
HETATM   20  C   UNL     1      -8.059   8.871  64.006  1.00  0.00    -0.161 A  
ENDBRANCH  11  14
BRANCH  12  21
HETATM   21  C   UNL     1     -11.516  14.441  64.339  1.00  0.00    -0.288 C  
HETATM   22  N   UNL     1     -10.467  14.903  65.102  1.00  0.00    -0.401 N  
HETATM   23  H   UNL     1      -9.598  14.370  65.088  1.00  0.00     0.000 HD 
HETATM   24  O   UNL     1     -12.575  15.007  64.112  1.00  0.00    -0.770 OA 
BRANCH  22  25
HETATM   25  C   UNL     1     -10.512  16.057  65.896  1.00  0.00    -0.359 A  
HETATM   26  N   UNL     1     -10.372  17.273  65.333  1.00  0.00    -0.639 NA 
HETATM   27  C   UNL     1     -10.423  18.358  66.141  1.00  0.00    -0.395 A  
HETATM   28  C   UNL     1     -10.612  18.280  67.506  1.00  0.00    -0.409 A  
HETATM   29  C   UNL     1     -10.774  17.031  68.083  1.00  0.00    -0.374 A  
HETATM   30  F   UNL     1     -10.636  19.384  68.260  1.00  0.00    -0.462 F  
HETATM   31  C   UNL     1     -10.734  15.900  67.265  1.00  0.00    -0.306 A  
ENDBRANCH  22  25
ENDBRANCH  12  21
ENDBRANCH  10  11
ENDBRANCH   9  10
ENDBRANCH   5   9
TORSDOF 6
ENDMDL
MODEL       14
REMARK 921   NORMALIZED FREE ENERGY PREDICTED BY IDOCK:   -7.10 KCAL/MOL
REMARK 922        TOTAL FREE ENERGY PREDICTED BY IDOCK:  -11.14 KCAL/MOL
REMARK 923 INTER-LIGAND FREE ENERGY PREDICTED BY IDOCK:  -10.02 KCAL/MOL
REMARK 924 INTRA-LIGAND FREE ENERGY PREDICTED BY IDOCK:   -1.12 KCAL/MOL
REMARK 927      BINDING AFFINITY PREDICTED BY RF-SCORE:    0.00 PKD
ROOT
HETATM    1  C   UNL     1      -9.393  11.406  63.152  1.00  0.00    -0.307 C  
HETATM    2  C   UNL     1     -10.180  11.538  64.417  1.00  0.00    -0.300 A  
HETATM    3  N   UNL     1      -9.903  10.717  65.433  1.00  0.00    -0.247 NA 
HETATM    4  C   UNL     1     -10.651  10.902  66.540  1.00  0.00    -0.237 A  
HETATM    5  C   UNL     1     -11.659  11.846  66.692  1.00  0.00    -0.264 A  
HETATM    6  C   UNL     1     -12.731  13.874  65.464  1.00  0.00    -0.536 C  
HETATM    7  C   UNL     1     -11.851  12.667  65.588  1.00  0.00    -0.437 A  
HETATM    8  N   UNL     1     -11.115  12.501  64.453  1.00  0.00    -0.318 NA 
ENDROOT
BRANCH   5   9
HETATM    9  O   UNL     1     -12.244  11.793  67.921  1.00  0.00    -0.538 OA 
BRANCH   9  10
HETATM   10  C   UNL     1     -11.421  11.551  69.056  1.00  0.00    -0.291 C  
BRANCH  10  11
HETATM   11  C   UNL     1     -12.271  11.606  70.334  1.00  0.00    -0.434 C  
HETATM   12  C   UNL     1     -12.241  10.378  71.275  1.00  0.00    -0.491 C  
HETATM   13  C   UNL     1     -13.411  10.603  70.347  1.00  0.00     0.220 C  
BRANCH  11  14
HETATM   14  C   UNL     1     -12.460  13.002  70.999  1.00  0.00    -0.385 A  
HETATM   15  C   UNL     1     -13.211  13.184  72.187  1.00  0.00    -0.561 A  
HETATM   16  F   UNL     1     -11.393  16.483  70.581  1.00  0.00    -0.383 F  
HETATM   17  C   UNL     1     -13.332  14.426  72.826  1.00  0.00    -0.606 A  
HETATM   18  C   UNL     1     -11.869  14.170  70.480  1.00  0.00    -0.352 A  
HETATM   19  C   UNL     1     -11.991  15.408  71.114  1.00  0.00    -0.362 A  
HETATM   20  C   UNL     1     -12.711  15.547  72.287  1.00  0.00    -0.487 A  
ENDBRANCH  11  14
BRANCH  12  21
HETATM   21  C   UNL     1     -11.245   9.278  71.047  1.00  0.00    -0.321 C  
HETATM   22  N   UNL     1     -11.804   8.152  70.486  1.00  0.00    -0.481 N  
HETATM   23  H   UNL     1     -12.771   8.210  70.165  1.00  0.00     0.000 HD 
HETATM   24  O   UNL     1     -10.075   9.452  71.356  1.00  0.00    -0.301 OA 
BRANCH  22  25
HETATM   25  C   UNL     1     -11.135   6.931  70.326  1.00  0.00    -0.297 A  
HETATM   26  N   UNL     1     -11.001   6.089  71.369  1.00  0.00    -0.270 NA 
HETATM   27  C   UNL     1     -10.345   4.922  71.164  1.00  0.00    -0.152 A  
HETATM   28  C   UNL     1      -9.814   4.553  69.945  1.00  0.00    -0.227 A  
HETATM   29  C   UNL     1      -9.967   5.410  68.868  1.00  0.00    -0.247 A  
HETATM   30  F   UNL     1      -9.160   3.396  69.804  1.00  0.00    -0.131 F  
HETATM   31  C   UNL     1     -10.648   6.615  69.056  1.00  0.00    -0.273 A  
ENDBRANCH  22  25
ENDBRANCH  12  21
ENDBRANCH  10  11
ENDBRANCH   9  10
ENDBRANCH   5   9
TORSDOF 6
ENDMDL
MODEL       15
REMARK 921   NORMALIZED FREE ENERGY PREDICTED BY IDOCK:   -7.07 KCAL/MOL
REMARK 922        TOTAL FREE ENERGY PREDICTED BY IDOCK:  -11.10 KCAL/MOL
REMARK 923 INTER-LIGAND FREE ENERGY PREDICTED BY IDOCK:   -9.37 KCAL/MOL
REMARK 924 INTRA-LIGAND FREE ENERGY PREDICTED BY IDOCK:   -1.73 KCAL/MOL
REMARK 927      BINDING AFFINITY PREDICTED BY RF-SCORE:    0.00 PKD
ROOT
HETATM    1  C   UNL     1     -12.445   8.879  72.184  1.00  0.00    -0.459 C  
HETATM    2  C   UNL     1     -11.954   9.743  71.066  1.00  0.00    -0.352 A  
HETATM    3  N   UNL     1     -12.762  10.692  70.587  1.00  0.00    -0.364 NA 
HETATM    4  C   UNL     1     -12.246  11.432  69.585  1.00  0.00    -0.249 A  
HETATM    5  C   UNL     1     -10.982  11.279  69.028  1.00  0.00    -0.236 A  
HETATM    6  C   UNL     1      -8.769   9.955  69.373  1.00  0.00    -0.186 C  
HETATM    7  C   UNL     1     -10.211  10.283  69.613  1.00  0.00    -0.235 A  
HETATM    8  N   UNL     1     -10.707   9.515  70.624  1.00  0.00    -0.284 NA 
ENDROOT
BRANCH   5   9
HETATM    9  O   UNL     1     -10.741  12.169  68.026  1.00  0.00    -0.200 OA 
BRANCH   9  10
HETATM   10  C   UNL     1     -11.600  12.166  66.892  1.00  0.00    -0.341 C  
BRANCH  10  11
HETATM   11  C   UNL     1     -10.787  11.857  65.626  1.00  0.00    -0.333 C  
HETATM   12  C   UNL     1     -10.585  13.000  64.601  1.00  0.00    -0.397 C  
HETATM   13  C   UNL     1     -11.607  11.917  64.350  1.00  0.00    -0.369 C  
BRANCH  11  14
HETATM   14  C   UNL     1      -9.636  10.816  65.759  1.00  0.00    -0.254 A  
HETATM   15  C   UNL     1      -9.873   9.419  65.781  1.00  0.00    -0.345 A  
HETATM   16  F   UNL     1      -5.979  10.676  65.944  1.00  0.00    -0.083 F  
HETATM   17  C   UNL     1      -8.837   8.475  65.836  1.00  0.00    -0.219 A  
HETATM   18  C   UNL     1      -8.282  11.196  65.833  1.00  0.00    -0.048 A  
HETATM   19  C   UNL     1      -7.250  10.256  65.891  1.00  0.00    -0.131 A  
HETATM   20  C   UNL     1      -7.514   8.897  65.885  1.00  0.00    -0.093 A  
ENDBRANCH  11  14
BRANCH  12  21
HETATM   21  C   UNL     1     -10.983  14.404  64.950  1.00  0.00    -0.406 C  
HETATM   22  N   UNL     1     -10.031  15.066  65.693  1.00  0.00    -0.340 N  
HETATM   23  H   UNL     1      -9.126  14.613  65.818  1.00  0.00     0.000 HD 
HETATM   24  O   UNL     1     -12.061  14.836  64.569  1.00  0.00    -0.461 OA 
BRANCH  22  25
HETATM   25  C   UNL     1     -10.221  16.321  66.287  1.00  0.00    -0.327 A  
HETATM   26  N   UNL     1     -10.203  17.437  65.533  1.00  0.00    -0.618 NA 
HETATM   27  C   UNL     1     -10.391  18.626  66.153  1.00  0.00    -0.443 A  
HETATM   28  C   UNL     1     -10.602  18.750  67.512  1.00  0.00    -0.435 A  
HETATM   29  C   UNL     1     -10.639  17.601  68.284  1.00  0.00    -0.342 A  
HETATM   30  F   UNL     1     -10.764  19.952  68.075  1.00  0.00    -0.521 F  
HETATM   31  C   UNL     1     -10.456  16.364  67.662  1.00  0.00    -0.302 A  
ENDBRANCH  22  25
ENDBRANCH  12  21
ENDBRANCH  10  11
ENDBRANCH   9  10
ENDBRANCH   5   9
TORSDOF 6
ENDMDL
MODEL       16
REMARK 921   NORMALIZED FREE ENERGY PREDICTED BY IDOCK:   -6.99 KCAL/MOL
REMARK 922        TOTAL FREE ENERGY PREDICTED BY IDOCK:  -10.99 KCAL/MOL
REMARK 923 INTER-LIGAND FREE ENERGY PREDICTED BY IDOCK:  -10.23 KCAL/MOL
REMARK 924 INTRA-LIGAND FREE ENERGY PREDICTED BY IDOCK:   -0.76 KCAL/MOL
REMARK 927      BINDING AFFINITY PREDICTED BY RF-SCORE:    0.00 PKD
ROOT
HETATM    1  C   UNL     1     -12.632  10.280  71.826  1.00  0.00    -0.488 C  
HETATM    2  C   UNL     1     -12.396  11.333  70.791  1.00  0.00    -0.398 A  
HETATM    3  N   UNL     1     -12.092  10.953  69.547  1.00  0.00    -0.330 NA 
HETATM    4  C   UNL     1     -11.899  11.960  68.670  1.00  0.00    -0.308 A  
HETATM    5  C   UNL     1     -11.983  13.316  68.958  1.00  0.00    -0.293 A  
HETATM    6  C   UNL     1     -12.659  14.936  70.880  1.00  0.00    -0.403 C  
HETATM    7  C   UNL     1     -12.331  13.606  70.272  1.00  0.00    -0.322 A  
HETATM    8  N   UNL     1     -12.526  12.610  71.182  1.00  0.00    -0.310 NA 
ENDROOT
BRANCH   5   9
HETATM    9  O   UNL     1     -11.733  14.098  67.872  1.00  0.00    -0.326 OA 
BRANCH   9  10
HETATM   10  C   UNL     1     -10.526  13.891  67.148  1.00  0.00    -0.269 C  
BRANCH  10  11
HETATM   11  C   UNL     1     -10.849  13.581  65.679  1.00  0.00    -0.292 C  
HETATM   12  C   UNL     1     -10.975  14.775  64.701  1.00  0.00    -0.332 C  
HETATM   13  C   UNL     1     -12.210  14.091  65.238  1.00  0.00    -0.451 C  
BRANCH  11  14
HETATM   14  C   UNL     1     -10.297  12.246  65.098  1.00  0.00    -0.316 A  
HETATM   15  C   UNL     1     -10.378  11.924  63.720  1.00  0.00    -0.451 A  
HETATM   16  F   UNL     1      -8.487   9.247  66.174  1.00  0.00    -0.118 F  
HETATM   17  C   UNL     1      -9.827  10.753  63.180  1.00  0.00    -0.378 A  
HETATM   18  C   UNL     1      -9.651  11.286  65.900  1.00  0.00    -0.249 A  
HETATM   19  C   UNL     1      -9.104  10.118  65.364  1.00  0.00    -0.188 A  
HETATM   20  C   UNL     1      -9.178   9.845  64.009  1.00  0.00    -0.302 A  
ENDBRANCH  11  14
BRANCH  12  21
HETATM   21  C   UNL     1     -10.575  16.153  65.138  1.00  0.00    -0.343 C  
HETATM   22  N   UNL     1      -9.412  16.168  65.876  1.00  0.00    -0.328 N  
HETATM   23  H   UNL     1      -8.879  15.301  65.941  1.00  0.00     0.000 HD 
HETATM   24  O   UNL     1     -11.268  17.110  64.824  1.00  0.00    -0.860 OA 
BRANCH  22  25
HETATM   25  C   UNL     1      -8.911  17.295  66.542  1.00  0.00    -0.268 A  
HETATM   26  N   UNL     1      -8.015  18.098  65.936  1.00  0.00    -0.535 NA 
HETATM   27  C   UNL     1      -7.560  19.174  66.621  1.00  0.00    -0.242 A  
HETATM   28  C   UNL     1      -7.969  19.488  67.901  1.00  0.00    -0.301 A  
HETATM   29  C   UNL     1      -8.905  18.674  68.517  1.00  0.00    -0.361 A  
HETATM   30  F   UNL     1      -7.473  20.554  68.538  1.00  0.00    -0.216 F  
HETATM   31  C   UNL     1      -9.393  17.564  67.825  1.00  0.00    -0.257 A  
ENDBRANCH  22  25
ENDBRANCH  12  21
ENDBRANCH  10  11
ENDBRANCH   9  10
ENDBRANCH   5   9
TORSDOF 6
ENDMDL
MODEL       17
REMARK 921   NORMALIZED FREE ENERGY PREDICTED BY IDOCK:   -6.98 KCAL/MOL
REMARK 922        TOTAL FREE ENERGY PREDICTED BY IDOCK:  -10.98 KCAL/MOL
REMARK 923 INTER-LIGAND FREE ENERGY PREDICTED BY IDOCK:  -10.12 KCAL/MOL
REMARK 924 INTRA-LIGAND FREE ENERGY PREDICTED BY IDOCK:   -0.86 KCAL/MOL
REMARK 927      BINDING AFFINITY PREDICTED BY RF-SCORE:    0.00 PKD
ROOT
HETATM    1  C   UNL     1     -11.352  15.581  64.510  1.00  0.00    -0.322 C  
HETATM    2  C   UNL     1     -11.477  14.400  65.419  1.00  0.00    -0.344 A  
HETATM    3  N   UNL     1     -12.144  14.542  66.567  1.00  0.00    -0.365 NA 
HETATM    4  C   UNL     1     -12.218  13.431  67.329  1.00  0.00    -0.233 A  
HETATM    5  C   UNL     1     -11.662  12.195  67.021  1.00  0.00    -0.303 A  
HETATM    6  C   UNL     1     -10.443  10.953  65.087  1.00  0.00    -0.316 C  
HETATM    7  C   UNL     1     -11.011  12.146  65.795  1.00  0.00    -0.297 A  
HETATM    8  N   UNL     1     -10.916  13.253  65.005  1.00  0.00    -0.301 NA 
ENDROOT
BRANCH   5   9
HETATM    9  O   UNL     1     -11.895  11.263  67.985  1.00  0.00    -0.578 OA 
BRANCH   9  10
HETATM   10  C   UNL     1     -11.225  11.392  69.234  1.00  0.00    -0.277 C  
BRANCH  10  11
HETATM   11  C   UNL     1     -12.257  11.480  70.368  1.00  0.00    -0.442 C  
HETATM   12  C   UNL     1     -12.384  10.268  71.324  1.00  0.00    -0.506 C  
HETATM   13  C   UNL     1     -13.398  10.489  70.227  1.00  0.00     0.275 C  
BRANCH  11  14
HETATM   14  C   UNL     1     -12.525  12.889  70.975  1.00  0.00    -0.374 A  
HETATM   15  C   UNL     1     -13.301  13.080  72.145  1.00  0.00    -0.622 A  
HETATM   16  F   UNL     1     -11.628  16.400  70.430  1.00  0.00    -0.349 F  
HETATM   17  C   UNL     1     -13.493  14.339  72.732  1.00  0.00    -0.590 A  
HETATM   18  C   UNL     1     -11.986  14.064  70.416  1.00  0.00    -0.398 A  
HETATM   19  C   UNL     1     -12.179  15.319  70.998  1.00  0.00    -0.350 A  
HETATM   20  C   UNL     1     -12.921  15.468  72.156  1.00  0.00    -0.506 A  
ENDBRANCH  11  14
BRANCH  12  21
HETATM   21  C   UNL     1     -11.380   9.155  71.266  1.00  0.00    -0.336 C  
HETATM   22  N   UNL     1     -11.848   8.040  70.608  1.00  0.00    -0.466 N  
HETATM   23  H   UNL     1     -12.742   8.114  70.122  1.00  0.00     0.000 HD 
HETATM   24  O   UNL     1     -10.280   9.309  71.776  1.00  0.00    -0.311 OA 
BRANCH  22  25
HETATM   25  C   UNL     1     -11.178   6.810  70.558  1.00  0.00    -0.320 A  
HETATM   26  N   UNL     1     -10.950   6.116  71.690  1.00  0.00    -0.257 NA 
HETATM   27  C   UNL     1     -10.299   4.933  71.591  1.00  0.00    -0.170 A  
HETATM   28  C   UNL     1      -9.863   4.404  70.393  1.00  0.00    -0.216 A  
HETATM   29  C   UNL     1     -10.113   5.108  69.227  1.00  0.00    -0.283 A  
HETATM   30  F   UNL     1      -9.208   3.239  70.356  1.00  0.00    -0.155 F  
HETATM   31  C   UNL     1     -10.791   6.327  69.307  1.00  0.00    -0.406 A  
ENDBRANCH  22  25
ENDBRANCH  12  21
ENDBRANCH  10  11
ENDBRANCH   9  10
ENDBRANCH   5   9
TORSDOF 6
ENDMDL
MODEL       18
REMARK 921   NORMALIZED FREE ENERGY PREDICTED BY IDOCK:   -6.95 KCAL/MOL
REMARK 922        TOTAL FREE ENERGY PREDICTED BY IDOCK:  -10.93 KCAL/MOL
REMARK 923 INTER-LIGAND FREE ENERGY PREDICTED BY IDOCK:  -10.15 KCAL/MOL
REMARK 924 INTRA-LIGAND FREE ENERGY PREDICTED BY IDOCK:   -0.79 KCAL/MOL
REMARK 927      BINDING AFFINITY PREDICTED BY RF-SCORE:    0.00 PKD
ROOT
HETATM    1  C   UNL     1      -6.334  19.980  69.372  1.00  0.00    -0.374 C  
HETATM    2  C   UNL     1      -7.227  18.845  68.985  1.00  0.00    -0.293 A  
HETATM    3  N   UNL     1      -6.811  17.596  69.211  1.00  0.00    -0.233 NA 
HETATM    4  C   UNL     1      -7.674  16.628  68.840  1.00  0.00    -0.239 A  
HETATM    5  C   UNL     1      -8.917  16.827  68.251  1.00  0.00    -0.228 A  
HETATM    6  C   UNL     1     -10.576  18.733  67.631  1.00  0.00    -0.481 C  
HETATM    7  C   UNL     1      -9.266  18.161  68.082  1.00  0.00    -0.291 A  
HETATM    8  N   UNL     1      -8.413  19.162  68.442  1.00  0.00    -0.337 NA 
ENDROOT
BRANCH   5   9
HETATM    9  O   UNL     1      -9.561  15.659  67.982  1.00  0.00    -0.202 OA 
BRANCH   9  10
HETATM   10  C   UNL     1      -9.784  14.744  69.048  1.00  0.00    -0.190 C  
BRANCH  10  11
HETATM   11  C   UNL     1     -11.291  14.491  69.208  1.00  0.00    -0.317 C  
HETATM   12  C   UNL     1     -11.928  13.365  68.358  1.00  0.00    -0.359 C  
HETATM   13  C   UNL     1     -12.094  14.813  67.961  1.00  0.00    -0.163 C  
BRANCH  11  14
HETATM   14  C   UNL     1     -11.907  14.750  70.615  1.00  0.00    -0.364 A  
HETATM   15  C   UNL     1     -12.799  13.841  71.235  1.00  0.00    -0.434 A  
HETATM   16  F   UNL     1     -11.752  17.189  73.346  1.00  0.00    -0.476 F  
HETATM   17  C   UNL     1     -13.307  14.037  72.527  1.00  0.00    -0.639 A  
HETATM   18  C   UNL     1     -11.592  15.893  71.376  1.00  0.00    -0.529 A  
HETATM   19  C   UNL     1     -12.100  16.091  72.662  1.00  0.00    -0.538 A  
HETATM   20  C   UNL     1     -12.949  15.169  73.250  1.00  0.00    -0.645 A  
ENDBRANCH  11  14
BRANCH  12  21
HETATM   21  C   UNL     1     -11.057  12.422  67.582  1.00  0.00    -0.259 C  
HETATM   22  N   UNL     1     -11.050  12.683  66.230  1.00  0.00    -0.282 N  
HETATM   23  H   UNL     1     -11.507  13.537  65.908  1.00  0.00     0.000 HD 
HETATM   24  O   UNL     1     -10.449  11.541  68.171  1.00  0.00    -0.181 OA 
BRANCH  22  25
HETATM   25  C   UNL     1     -10.456  11.857  65.266  1.00  0.00    -0.275 A  
HETATM   26  N   UNL     1      -9.922  10.673  65.625  1.00  0.00    -0.253 NA 
HETATM   27  C   UNL     1      -9.359   9.911  64.658  1.00  0.00    -0.277 A  
HETATM   28  C   UNL     1      -9.309  10.283  63.330  1.00  0.00    -0.303 A  
HETATM   29  C   UNL     1      -9.874  11.491  62.958  1.00  0.00    -0.367 A  
HETATM   30  F   UNL     1      -8.724   9.498  62.419  1.00  0.00    -0.157 F  
HETATM   31  C   UNL     1     -10.467  12.289  63.939  1.00  0.00    -0.458 A  
ENDBRANCH  22  25
ENDBRANCH  12  21
ENDBRANCH  10  11
ENDBRANCH   9  10
ENDBRANCH   5   9
TORSDOF 6
ENDMDL
MODEL       19
REMARK 921   NORMALIZED FREE ENERGY PREDICTED BY IDOCK:   -6.86 KCAL/MOL
REMARK 922        TOTAL FREE ENERGY PREDICTED BY IDOCK:  -10.81 KCAL/MOL
REMARK 923 INTER-LIGAND FREE ENERGY PREDICTED BY IDOCK:   -9.63 KCAL/MOL
REMARK 924 INTRA-LIGAND FREE ENERGY PREDICTED BY IDOCK:   -1.19 KCAL/MOL
REMARK 927      BINDING AFFINITY PREDICTED BY RF-SCORE:    0.00 PKD
ROOT
HETATM    1  C   UNL     1      -9.781   8.500  66.431  1.00  0.00    -0.328 C  
HETATM    2  C   UNL     1      -9.603   9.981  66.527  1.00  0.00    -0.187 A  
HETATM    3  N   UNL     1      -8.937  10.481  67.571  1.00  0.00    -0.135 NA 
HETATM    4  C   UNL     1      -8.812  11.824  67.583  1.00  0.00    -0.162 A  
HETATM    5  C   UNL     1      -9.317  12.696  66.626  1.00  0.00    -0.236 A  
HETATM    6  C   UNL     1     -10.490  12.689  64.303  1.00  0.00    -0.417 C  
HETATM    7  C   UNL     1      -9.970  12.076  65.569  1.00  0.00    -0.241 A  
HETATM    8  N   UNL     1     -10.116  10.721  65.531  1.00  0.00    -0.261 NA 
ENDROOT
BRANCH   5   9
HETATM    9  O   UNL     1      -9.039  13.999  66.908  1.00  0.00    -0.238 OA 
BRANCH   9  10
HETATM   10  C   UNL     1      -9.407  14.512  68.183  1.00  0.00    -0.197 C  
BRANCH  10  11
HETATM   11  C   UNL     1     -10.659  15.392  68.045  1.00  0.00    -0.263 C  
HETATM   12  C   UNL     1     -11.894  15.030  68.906  1.00  0.00    -0.337 C  
HETATM   13  C   UNL     1     -11.847  14.665  67.442  1.00  0.00    -0.374 C  
BRANCH  11  14
HETATM   14  C   UNL     1     -10.434  16.901  67.732  1.00  0.00    -0.340 A  
HETATM   15  C   UNL     1     -10.484  17.421  66.415  1.00  0.00    -0.267 A  
HETATM   16  F   UNL     1      -9.849  20.076  69.467  1.00  0.00    -0.377 F  
HETATM   17  C   UNL     1     -10.346  18.788  66.132  1.00  0.00    -0.494 A  
HETATM   18  C   UNL     1     -10.197  17.853  68.743  1.00  0.00    -0.362 A  
HETATM   19  C   UNL     1     -10.057  19.214  68.462  1.00  0.00    -0.422 A  
HETATM   20  C   UNL     1     -10.137  19.693  67.166  1.00  0.00    -0.533 A  
ENDBRANCH  11  14
BRANCH  12  21
HETATM   21  C   UNL     1     -11.781  13.996  69.988  1.00  0.00    -0.280 C  
HETATM   22  N   UNL     1     -11.951  12.711  69.525  1.00  0.00    -0.297 N  
HETATM   23  H   UNL     1     -12.001  12.571  68.516  1.00  0.00     0.000 HD 
HETATM   24  O   UNL     1     -11.557  14.349  71.137  1.00  0.00    -0.241 OA 
BRANCH  22  25
HETATM   25  C   UNL     1     -12.060  11.581  70.347  1.00  0.00    -0.382 A  
HETATM   26  N   UNL     1     -13.052  11.496  71.255  1.00  0.00    -0.276 NA 
HETATM   27  C   UNL     1     -13.114  10.385  72.026  1.00  0.00    -0.416 A  
HETATM   28  C   UNL     1     -12.219   9.339  71.926  1.00  0.00    -0.378 A  
HETATM   29  C   UNL     1     -11.211   9.418  70.980  1.00  0.00    -0.412 A  
HETATM   30  F   UNL     1     -12.318   8.272  72.726  1.00  0.00    -0.404 F  
HETATM   31  C   UNL     1     -11.134  10.552  70.169  1.00  0.00    -0.369 A  
ENDBRANCH  22  25
ENDBRANCH  12  21
ENDBRANCH  10  11
ENDBRANCH   9  10
ENDBRANCH   5   9
TORSDOF 6
ENDMDL
MODEL       20
REMARK 921   NORMALIZED FREE ENERGY PREDICTED BY IDOCK:   -6.81 KCAL/MOL
REMARK 922        TOTAL FREE ENERGY PREDICTED BY IDOCK:  -10.75 KCAL/MOL
REMARK 923 INTER-LIGAND FREE ENERGY PREDICTED BY IDOCK:   -9.49 KCAL/MOL
REMARK 924 INTRA-LIGAND FREE ENERGY PREDICTED BY IDOCK:   -1.26 KCAL/MOL
REMARK 927      BINDING AFFINITY PREDICTED BY RF-SCORE:    0.00 PKD
ROOT
HETATM    1  C   UNL     1      -6.796  19.504  69.062  1.00  0.00    -0.384 C  
HETATM    2  C   UNL     1      -7.398  18.162  68.796  1.00  0.00    -0.276 A  
HETATM    3  N   UNL     1      -6.619  17.080  68.885  1.00  0.00    -0.185 NA 
HETATM    4  C   UNL     1      -7.237  15.907  68.637  1.00  0.00    -0.139 A  
HETATM    5  C   UNL     1      -8.575  15.747  68.297  1.00  0.00    -0.170 A  
HETATM    6  C   UNL     1     -10.781  17.110  68.081  1.00  0.00    -0.366 C  
HETATM    7  C   UNL     1      -9.303  16.930  68.255  1.00  0.00    -0.248 A  
HETATM    8  N   UNL     1      -8.706  18.131  68.497  1.00  0.00    -0.303 NA 
ENDROOT
BRANCH   5   9
HETATM    9  O   UNL     1      -8.912  14.443  68.100  1.00  0.00    -0.172 OA 
BRANCH   9  10
HETATM   10  C   UNL     1      -9.291  14.029  66.792  1.00  0.00    -0.277 C  
BRANCH  10  11
HETATM   11  C   UNL     1      -9.758  12.566  66.827  1.00  0.00    -0.234 C  
HETATM   12  C   UNL     1     -10.901  12.197  67.804  1.00  0.00    -0.263 C  
HETATM   13  C   UNL     1      -9.466  11.869  68.143  1.00  0.00    -0.195 C  
BRANCH  11  14
HETATM   14  C   UNL     1      -9.683  11.766  65.493  1.00  0.00    -0.248 A  
HETATM   15  C   UNL     1     -10.220  12.258  64.279  1.00  0.00    -0.356 A  
HETATM   16  F   UNL     1      -8.294   8.647  64.162  1.00  0.00    -0.155 F  
HETATM   17  C   UNL     1     -10.099  11.571  63.061  1.00  0.00    -0.330 A  
HETATM   18  C   UNL     1      -9.044  10.514  65.402  1.00  0.00    -0.215 A  
HETATM   19  C   UNL     1      -8.926   9.828  64.191  1.00  0.00    -0.239 A  
HETATM   20  C   UNL     1      -9.440  10.348  63.017  1.00  0.00    -0.362 A  
ENDBRANCH  11  14
BRANCH  12  21
HETATM   21  C   UNL     1     -11.660  13.277  68.518  1.00  0.00    -0.333 C  
HETATM   22  N   UNL     1     -11.425  13.295  69.875  1.00  0.00    -0.502 N  
HETATM   23  H   UNL     1     -10.687  12.691  70.238  1.00  0.00     0.000 HD 
HETATM   24  O   UNL     1     -12.390  14.022  67.881  1.00  0.00    -0.238 OA 
BRANCH  22  25
HETATM   25  C   UNL     1     -12.129  14.089  70.791  1.00  0.00    -0.345 A  
HETATM   26  N   UNL     1     -13.345  13.705  71.225  1.00  0.00    -0.244 NA 
HETATM   27  C   UNL     1     -13.986  14.505  72.109  1.00  0.00    -0.501 A  
HETATM   28  C   UNL     1     -13.457  15.687  72.587  1.00  0.00    -0.566 A  
HETATM   29  C   UNL     1     -12.199  16.072  72.154  1.00  0.00    -0.597 A  
HETATM   30  F   UNL     1     -14.143  16.448  73.446  1.00  0.00    -0.620 F  
HETATM   31  C   UNL     1     -11.517  15.257  71.249  1.00  0.00    -0.431 A  
ENDBRANCH  22  25
ENDBRANCH  12  21
ENDBRANCH  10  11
ENDBRANCH   9  10
ENDBRANCH   5   9
TORSDOF 6
ENDMDL
MODEL       21
REMARK 921   NORMALIZED FREE ENERGY PREDICTED BY IDOCK:   -6.80 KCAL/MOL
REMARK 922        TOTAL FREE ENERGY PREDICTED BY IDOCK:  -10.74 KCAL/MOL
REMARK 923 INTER-LIGAND FREE ENERGY PREDICTED BY IDOCK:   -9.77 KCAL/MOL
REMARK 924 INTRA-LIGAND FREE ENERGY PREDICTED BY IDOCK:   -0.97 KCAL/MOL
REMARK 927      BINDING AFFINITY PREDICTED BY RF-SCORE:    0.00 PKD
ROOT
HETATM    1  C   UNL     1      -5.241  17.720  65.821  1.00  0.00    -0.206 C  
HETATM    2  C   UNL     1      -6.269  17.234  66.792  1.00  0.00    -0.200 A  
HETATM    3  N   UNL     1      -6.219  15.962  67.196  1.00  0.00    -0.323 NA 
HETATM    4  C   UNL     1      -7.176  15.601  68.076  1.00  0.00    -0.129 A  
HETATM    5  C   UNL     1      -8.181  16.425  68.568  1.00  0.00    -0.201 A  
HETATM    6  C   UNL     1      -8.948  18.912  68.543  1.00  0.00    -0.388 C  
HETATM    7  C   UNL     1      -8.130  17.735  68.106  1.00  0.00    -0.265 A  
HETATM    8  N   UNL     1      -7.178  18.127  67.213  1.00  0.00    -0.197 NA 
ENDROOT
BRANCH   5   9
HETATM    9  O   UNL     1      -9.006  15.781  69.438  1.00  0.00    -0.255 OA 
BRANCH   9  10
HETATM   10  C   UNL     1      -9.668  14.600  69.001  1.00  0.00    -0.160 C  
BRANCH  10  11
HETATM   11  C   UNL     1     -11.177  14.863  68.888  1.00  0.00    -0.282 C  
HETATM   12  C   UNL     1     -11.835  14.708  67.495  1.00  0.00    -0.375 C  
HETATM   13  C   UNL     1     -11.518  16.079  68.045  1.00  0.00    -0.199 C  
BRANCH  11  14
HETATM   14  C   UNL     1     -12.052  14.511  70.127  1.00  0.00    -0.394 A  
HETATM   15  C   UNL     1     -12.838  15.475  70.804  1.00  0.00    -0.513 A  
HETATM   16  F   UNL     1     -13.036  11.610  72.138  1.00  0.00    -0.577 F  
HETATM   17  C   UNL     1     -13.677  15.152  71.880  1.00  0.00    -0.577 A  
HETATM   18  C   UNL     1     -12.144  13.200  70.635  1.00  0.00    -0.346 A  
HETATM   19  C   UNL     1     -12.978  12.877  71.708  1.00  0.00    -0.315 A  
HETATM   20  C   UNL     1     -13.753  13.840  72.332  1.00  0.00    -0.692 A  
ENDBRANCH  11  14
BRANCH  12  21
HETATM   21  C   UNL     1     -11.061  14.107  66.359  1.00  0.00    -0.320 C  
HETATM   22  N   UNL     1     -11.412  12.802  66.097  1.00  0.00    -0.331 N  
HETATM   23  H   UNL     1     -12.223  12.421  66.585  1.00  0.00     0.000 HD 
HETATM   24  O   UNL     1     -10.223  14.782  65.778  1.00  0.00    -0.298 OA 
BRANCH  22  25
HETATM   25  C   UNL     1     -10.732  11.962  65.204  1.00  0.00    -0.291 A  
HETATM   26  N   UNL     1     -10.533  12.348  63.929  1.00  0.00    -0.413 NA 
HETATM   27  C   UNL     1      -9.871  11.502  63.105  1.00  0.00    -0.390 A  
HETATM   28  C   UNL     1      -9.391  10.272  63.505  1.00  0.00    -0.301 A  
HETATM   29  C   UNL     1      -9.580   9.883  64.821  1.00  0.00    -0.339 A  
HETATM   30  F   UNL     1      -8.760   9.468  62.643  1.00  0.00    -0.166 F  
HETATM   31  C   UNL     1     -10.252  10.745  65.690  1.00  0.00    -0.320 A  
ENDBRANCH  22  25
ENDBRANCH  12  21
ENDBRANCH  10  11
ENDBRANCH   9  10
ENDBRANCH   5   9
TORSDOF 6
ENDMDL
MODEL       22
REMARK 921   NORMALIZED FREE ENERGY PREDICTED BY IDOCK:   -6.79 KCAL/MOL
REMARK 922        TOTAL FREE ENERGY PREDICTED BY IDOCK:  -10.73 KCAL/MOL
REMARK 923 INTER-LIGAND FREE ENERGY PREDICTED BY IDOCK:   -9.58 KCAL/MOL
REMARK 924 INTRA-LIGAND FREE ENERGY PREDICTED BY IDOCK:   -1.15 KCAL/MOL
REMARK 927      BINDING AFFINITY PREDICTED BY RF-SCORE:    0.00 PKD
ROOT
HETATM    1  C   UNL     1      -8.930  10.088  62.430  1.00  0.00    -0.287 C  
HETATM    2  C   UNL     1      -9.785  10.564  63.561  1.00  0.00    -0.319 A  
HETATM    3  N   UNL     1      -9.641   9.992  64.758  1.00  0.00    -0.303 NA 
HETATM    4  C   UNL     1     -10.443  10.480  65.728  1.00  0.00    -0.143 A  
HETATM    5  C   UNL     1     -11.381  11.493  65.573  1.00  0.00    -0.083 A  
HETATM    6  C   UNL     1     -12.205  13.235  63.824  1.00  0.00    -0.508 C  
HETATM    7  C   UNL     1     -11.435  12.039  64.297  1.00  0.00    -0.361 A  
HETATM    8  N   UNL     1     -10.641  11.564  63.296  1.00  0.00    -0.364 NA 
ENDROOT
BRANCH   5   9
HETATM    9  O   UNL     1     -12.047  11.769  66.728  1.00  0.00    -0.547 OA 
BRANCH   9  10
HETATM   10  C   UNL     1     -11.735  12.971  67.423  1.00  0.00    -0.374 C  
BRANCH  10  11
HETATM   11  C   UNL     1     -10.702  12.681  68.522  1.00  0.00    -0.271 C  
HETATM   12  C   UNL     1      -9.952  13.884  69.143  1.00  0.00     0.111 C  
HETATM   13  C   UNL     1      -9.277  13.009  68.114  1.00  0.00    -0.212 C  
BRANCH  11  14
HETATM   14  C   UNL     1     -10.980  11.464  69.453  1.00  0.00    -0.260 A  
HETATM   15  C   UNL     1     -10.109  10.349  69.529  1.00  0.00    -0.246 A  
HETATM   16  F   UNL     1     -13.388  10.351  71.981  1.00  0.00    -0.482 F  
HETATM   17  C   UNL     1     -10.319   9.280  70.412  1.00  0.00    -0.291 A  
HETATM   18  C   UNL     1     -12.100  11.408  70.305  1.00  0.00    -0.459 A  
HETATM   19  C   UNL     1     -12.312  10.343  71.183  1.00  0.00    -0.400 A  
HETATM   20  C   UNL     1     -11.428   9.280  71.250  1.00  0.00    -0.418 A  
ENDBRANCH  11  14
BRANCH  12  21
HETATM   21  C   UNL     1     -10.389  15.286  68.833  1.00  0.00    -0.243 C  
HETATM   22  N   UNL     1      -9.481  15.975  68.060  1.00  0.00    -0.206 N  
HETATM   23  H   UNL     1      -8.694  15.454  67.672  1.00  0.00     0.000 HD 
HETATM   24  O   UNL     1     -11.459  15.692  69.261  1.00  0.00    -0.312 OA 
BRANCH  22  25
HETATM   25  C   UNL     1      -9.565  17.344  67.769  1.00  0.00    -0.264 A  
HETATM   26  N   UNL     1      -8.930  18.242  68.547  1.00  0.00    -0.316 NA 
HETATM   27  C   UNL     1      -9.042  19.552  68.226  1.00  0.00    -0.342 A  
HETATM   28  C   UNL     1      -9.768  20.011  67.145  1.00  0.00    -0.411 A  
HETATM   29  C   UNL     1     -10.405  19.086  66.335  1.00  0.00    -0.520 A  
HETATM   30  F   UNL     1      -9.859  21.319  66.885  1.00  0.00    -0.405 F  
HETATM   31  C   UNL     1     -10.295  17.729  66.643  1.00  0.00    -0.345 A  
ENDBRANCH  22  25
ENDBRANCH  12  21
ENDBRANCH  10  11
ENDBRANCH   9  10
ENDBRANCH   5   9
TORSDOF 6
ENDMDL
MODEL       23
REMARK 921   NORMALIZED FREE ENERGY PREDICTED BY IDOCK:   -6.79 KCAL/MOL
REMARK 922        TOTAL FREE ENERGY PREDICTED BY IDOCK:  -10.72 KCAL/MOL
REMARK 923 INTER-LIGAND FREE ENERGY PREDICTED BY IDOCK:  -10.04 KCAL/MOL
REMARK 924 INTRA-LIGAND FREE ENERGY PREDICTED BY IDOCK:   -0.69 KCAL/MOL
REMARK 927      BINDING AFFINITY PREDICTED BY RF-SCORE:    0.00 PKD
ROOT
HETATM    1  C   UNL     1     -12.609  12.170  63.380  1.00  0.00    -0.584 C  
HETATM    2  C   UNL     1     -11.689  12.919  64.290  1.00  0.00    -0.386 A  
HETATM    3  N   UNL     1     -10.862  12.226  65.077  1.00  0.00    -0.287 NA 
HETATM    4  C   UNL     1     -10.060  12.973  65.865  1.00  0.00    -0.288 A  
HETATM    5  C   UNL     1     -10.039  14.361  65.921  1.00  0.00    -0.325 A  
HETATM    6  C   UNL     1     -11.045  16.447  64.734  1.00  0.00    -0.246 C  
HETATM    7  C   UNL     1     -10.918  14.986  65.046  1.00  0.00    -0.423 A  
HETATM    8  N   UNL     1     -11.745  14.259  64.242  1.00  0.00    -0.364 NA 
ENDROOT
BRANCH   5   9
HETATM    9  O   UNL     1      -9.127  14.834  66.815  1.00  0.00    -0.239 OA 
BRANCH   9  10
HETATM   10  C   UNL     1      -9.476  14.858  68.194  1.00  0.00    -0.202 C  
BRANCH  10  11
HETATM   11  C   UNL     1     -10.144  16.197  68.537  1.00  0.00    -0.241 C  
HETATM   12  C   UNL     1     -11.182  16.213  69.686  1.00  0.00    -0.331 C  
HETATM   13  C   UNL     1     -11.634  16.223  68.245  1.00  0.00    -0.118 C  
BRANCH  11  14
HETATM   14  C   UNL     1      -9.294  17.486  68.335  1.00  0.00    -0.287 A  
HETATM   15  C   UNL     1      -7.894  17.517  68.555  1.00  0.00    -0.274 A  
HETATM   16  F   UNL     1      -9.669  20.954  67.212  1.00  0.00    -0.594 F  
HETATM   17  C   UNL     1      -7.113  18.656  68.314  1.00  0.00    -0.271 A  
HETATM   18  C   UNL     1      -9.857  18.697  67.889  1.00  0.00    -0.363 A  
HETATM   19  C   UNL     1      -9.080  19.834  67.651  1.00  0.00    -0.333 A  
HETATM   20  C   UNL     1      -7.711  19.823  67.852  1.00  0.00    -0.330 A  
ENDBRANCH  11  14
BRANCH  12  21
HETATM   21  C   UNL     1     -11.351  15.008  70.565  1.00  0.00    -0.276 C  
HETATM   22  N   UNL     1     -11.785  13.896  69.878  1.00  0.00    -0.338 N  
HETATM   23  H   UNL     1     -11.820  13.950  68.860  1.00  0.00     0.000 HD 
HETATM   24  O   UNL     1     -11.104  15.095  71.759  1.00  0.00    -0.334 OA 
BRANCH  22  25
HETATM   25  C   UNL     1     -12.179  12.695  70.483  1.00  0.00    -0.299 A  
HETATM   26  N   UNL     1     -13.030  12.711  71.528  1.00  0.00    -0.344 NA 
HETATM   27  C   UNL     1     -13.382  11.525  72.079  1.00  0.00    -0.292 A  
HETATM   28  C   UNL     1     -12.916  10.308  71.624  1.00  0.00    -0.465 A  
HETATM   29  C   UNL     1     -12.056  10.291  70.539  1.00  0.00    -0.401 A  
HETATM   30  F   UNL     1     -13.282   9.167  72.218  1.00  0.00    -0.384 F  
HETATM   31  C   UNL     1     -11.688  11.503  69.950  1.00  0.00    -0.420 A  
ENDBRANCH  22  25
ENDBRANCH  12  21
ENDBRANCH  10  11
ENDBRANCH   9  10
ENDBRANCH   5   9
TORSDOF 6
ENDMDL
MODEL       24
REMARK 921   NORMALIZED FREE ENERGY PREDICTED BY IDOCK:   -6.76 KCAL/MOL
REMARK 922        TOTAL FREE ENERGY PREDICTED BY IDOCK:  -10.68 KCAL/MOL
REMARK 923 INTER-LIGAND FREE ENERGY PREDICTED BY IDOCK:   -9.70 KCAL/MOL
REMARK 924 INTRA-LIGAND FREE ENERGY PREDICTED BY IDOCK:   -0.99 KCAL/MOL
REMARK 927      BINDING AFFINITY PREDICTED BY RF-SCORE:    0.00 PKD
ROOT
HETATM    1  C   UNL     1     -13.421   9.407  72.252  1.00  0.00    -0.539 C  
HETATM    2  C   UNL     1     -12.982  10.658  71.562  1.00  0.00    -0.461 A  
HETATM    3  N   UNL     1     -12.326  10.556  70.404  1.00  0.00    -0.319 NA 
HETATM    4  C   UNL     1     -11.969  11.729  69.841  1.00  0.00    -0.332 A  
HETATM    5  C   UNL     1     -12.217  12.992  70.365  1.00  0.00    -0.310 A  
HETATM    6  C   UNL     1     -13.494  14.157  72.309  1.00  0.00    -0.578 C  
HETATM    7  C   UNL     1     -12.927  12.990  71.559  1.00  0.00    -0.305 A  
HETATM    8  N   UNL     1     -13.297  11.822  72.155  1.00  0.00    -0.406 NA 
ENDROOT
BRANCH   5   9
HETATM    9  O   UNL     1     -11.733  13.990  69.576  1.00  0.00    -0.273 OA 
BRANCH   9  10
HETATM   10  C   UNL     1     -10.563  13.741  68.805  1.00  0.00    -0.239 C  
BRANCH  10  11
HETATM   11  C   UNL     1     -10.912  13.760  67.310  1.00  0.00    -0.302 C  
HETATM   12  C   UNL     1     -10.947  15.132  66.594  1.00  0.00    -0.318 C  
HETATM   13  C   UNL     1     -12.230  14.450  67.005  1.00  0.00    -0.274 C  
BRANCH  11  14
HETATM   14  C   UNL     1     -10.468  12.532  66.462  1.00  0.00    -0.258 A  
HETATM   15  C   UNL     1      -9.678  11.484  66.996  1.00  0.00    -0.202 A  
HETATM   16  F   UNL     1     -10.906  11.126  63.106  1.00  0.00    -0.399 F  
HETATM   17  C   UNL     1      -9.328  10.344  66.257  1.00  0.00    -0.202 A  
HETATM   18  C   UNL     1     -10.850  12.367  65.117  1.00  0.00    -0.333 A  
HETATM   19  C   UNL     1     -10.500  11.235  64.379  1.00  0.00    -0.345 A  
HETATM   20  C   UNL     1      -9.748  10.216  64.938  1.00  0.00    -0.392 A  
ENDBRANCH  11  14
BRANCH  12  21
HETATM   21  C   UNL     1     -10.439  16.359  67.293  1.00  0.00    -0.303 C  
HETATM   22  N   UNL     1      -9.169  16.717  66.900  1.00  0.00    -0.224 N  
HETATM   23  H   UNL     1      -8.758  16.221  66.109  1.00  0.00     0.000 HD 
HETATM   24  O   UNL     1     -11.150  16.923  68.112  1.00  0.00    -0.347 OA 
BRANCH  22  25
HETATM   25  C   UNL     1      -8.402  17.718  67.512  1.00  0.00    -0.226 A  
HETATM   26  N   UNL     1      -7.624  17.422  68.571  1.00  0.00    -0.244 NA 
HETATM   27  C   UNL     1      -6.902  18.423  69.129  1.00  0.00    -0.245 A  
HETATM   28  C   UNL     1      -6.923  19.723  68.667  1.00  0.00    -0.328 A  
HETATM   29  C   UNL     1      -7.709  20.024  67.567  1.00  0.00    -0.333 A  
HETATM   30  F   UNL     1      -6.203  20.677  69.268  1.00  0.00    -0.363 F  
HETATM   31  C   UNL     1      -8.454  19.004  66.972  1.00  0.00    -0.300 A  
ENDBRANCH  22  25
ENDBRANCH  12  21
ENDBRANCH  10  11
ENDBRANCH   9  10
ENDBRANCH   5   9
TORSDOF 6
ENDMDL
MODEL       25
REMARK 921   NORMALIZED FREE ENERGY PREDICTED BY IDOCK:   -6.75 KCAL/MOL
REMARK 922        TOTAL FREE ENERGY PREDICTED BY IDOCK:  -10.67 KCAL/MOL
REMARK 923 INTER-LIGAND FREE ENERGY PREDICTED BY IDOCK:   -9.53 KCAL/MOL
REMARK 924 INTRA-LIGAND FREE ENERGY PREDICTED BY IDOCK:   -1.14 KCAL/MOL
REMARK 927      BINDING AFFINITY PREDICTED BY RF-SCORE:    0.00 PKD
ROOT
HETATM    1  C   UNL     1      -5.130  18.419  70.307  1.00  0.00    -0.227 C  
HETATM    2  C   UNL     1      -5.871  17.535  69.356  1.00  0.00    -0.226 A  
HETATM    3  N   UNL     1      -6.292  16.342  69.784  1.00  0.00    -0.211 NA 
HETATM    4  C   UNL     1      -6.957  15.606  68.870  1.00  0.00    -0.130 A  
HETATM    5  C   UNL     1      -7.219  15.982  67.558  1.00  0.00    -0.169 A  
HETATM    6  C   UNL     1      -7.006  18.024  65.960  1.00  0.00    -0.340 C  
HETATM    7  C   UNL     1      -6.762  17.249  67.220  1.00  0.00    -0.158 A  
HETATM    8  N   UNL     1      -6.083  18.014  68.120  1.00  0.00    -0.174 NA 
ENDROOT
BRANCH   5   9
HETATM    9  O   UNL     1      -7.906  15.029  66.869  1.00  0.00    -0.179 OA 
BRANCH   9  10
HETATM   10  C   UNL     1      -9.118  14.530  67.422  1.00  0.00    -0.196 C  
BRANCH  10  11
HETATM   11  C   UNL     1     -10.312  15.283  66.817  1.00  0.00    -0.279 C  
HETATM   12  C   UNL     1     -11.651  14.518  66.675  1.00  0.00    -0.385 C  
HETATM   13  C   UNL     1     -10.758  14.732  65.475  1.00  0.00    -0.369 C  
BRANCH  11  14
HETATM   14  C   UNL     1     -10.398  16.813  67.093  1.00  0.00    -0.297 A  
HETATM   15  C   UNL     1     -10.268  17.362  68.392  1.00  0.00    -0.362 A  
HETATM   16  F   UNL     1     -10.756  19.979  65.282  1.00  0.00    -0.553 F  
HETATM   17  C   UNL     1     -10.281  18.742  68.639  1.00  0.00    -0.366 A  
HETATM   18  C   UNL     1     -10.579  17.755  66.061  1.00  0.00    -0.229 A  
HETATM   19  C   UNL     1     -10.595  19.130  66.306  1.00  0.00    -0.434 A  
HETATM   20  C   UNL     1     -10.439  19.634  67.585  1.00  0.00    -0.579 A  
ENDBRANCH  11  14
BRANCH  12  21
HETATM   21  C   UNL     1     -11.819  13.169  67.311  1.00  0.00    -0.367 C  
HETATM   22  N   UNL     1     -11.747  13.209  68.686  1.00  0.00    -0.307 N  
HETATM   23  H   UNL     1     -11.723  14.125  69.135  1.00  0.00     0.000 HD 
HETATM   24  O   UNL     1     -12.001  12.189  66.604  1.00  0.00    -0.616 OA 
BRANCH  22  25
HETATM   25  C   UNL     1     -11.706  12.076  69.510  1.00  0.00    -0.342 A  
HETATM   26  N   UNL     1     -10.822  11.090  69.263  1.00  0.00    -0.230 NA 
HETATM   27  C   UNL     1     -10.821  10.016  70.087  1.00  0.00    -0.311 A  
HETATM   28  C   UNL     1     -11.675   9.883  71.163  1.00  0.00    -0.396 A  
HETATM   29  C   UNL     1     -12.571  10.904  71.428  1.00  0.00    -0.508 A  
HETATM   30  F   UNL     1     -11.643   8.791  71.933  1.00  0.00    -0.338 F  
HETATM   31  C   UNL     1     -12.583  12.025  70.595  1.00  0.00    -0.255 A  
ENDBRANCH  22  25
ENDBRANCH  12  21
ENDBRANCH  10  11
ENDBRANCH   9  10
ENDBRANCH   5   9
TORSDOF 6
ENDMDL
MODEL       26
REMARK 921   NORMALIZED FREE ENERGY PREDICTED BY IDOCK:   -6.72 KCAL/MOL
REMARK 922        TOTAL FREE ENERGY PREDICTED BY IDOCK:  -10.62 KCAL/MOL
REMARK 923 INTER-LIGAND FREE ENERGY PREDICTED BY IDOCK:   -9.06 KCAL/MOL
REMARK 924 INTRA-LIGAND FREE ENERGY PREDICTED BY IDOCK:   -1.56 KCAL/MOL
REMARK 927      BINDING AFFINITY PREDICTED BY RF-SCORE:    0.00 PKD
ROOT
HETATM    1  C   UNL     1     -13.581  14.602  72.633  1.00  0.00    -0.571 C  
HETATM    2  C   UNL     1     -12.944  13.908  71.473  1.00  0.00    -0.358 A  
HETATM    3  N   UNL     1     -12.814  12.579  71.512  1.00  0.00    -0.327 NA 
HETATM    4  C   UNL     1     -12.235  12.026  70.426  1.00  0.00    -0.294 A  
HETATM    5  C   UNL     1     -11.771  12.716  69.312  1.00  0.00    -0.322 A  
HETATM    6  C   UNL     1     -11.747  15.104  68.279  1.00  0.00    -0.336 C  
HETATM    7  C   UNL     1     -11.976  14.089  69.358  1.00  0.00    -0.343 A  
HETATM    8  N   UNL     1     -12.553  14.677  70.444  1.00  0.00    -0.349 NA 
ENDROOT
BRANCH   5   9
HETATM    9  O   UNL     1     -11.228  11.890  68.376  1.00  0.00    -0.218 OA 
BRANCH   9  10
HETATM   10  C   UNL     1      -9.860  12.063  68.027  1.00  0.00    -0.199 C  
BRANCH  10  11
HETATM   11  C   UNL     1      -9.620  11.549  66.600  1.00  0.00    -0.215 C  
HETATM   12  C   UNL     1      -9.168  10.077  66.429  1.00  0.00    -0.191 C  
HETATM   13  C   UNL     1      -8.169  11.204  66.317  1.00  0.00    -0.153 C  
BRANCH  11  14
HETATM   14  C   UNL     1     -10.506  12.151  65.470  1.00  0.00    -0.300 A  
HETATM   15  C   UNL     1     -11.096  11.355  64.458  1.00  0.00    -0.302 A  
HETATM   16  F   UNL     1     -11.915  15.366  64.416  1.00  0.00    -0.426 F  
HETATM   17  C   UNL     1     -11.947  11.882  63.476  1.00  0.00    -0.567 A  
HETATM   18  C   UNL     1     -10.807  13.526  65.402  1.00  0.00    -0.299 A  
HETATM   19  C   UNL     1     -11.652  14.052  64.423  1.00  0.00    -0.369 A  
HETATM   20  C   UNL     1     -12.233  13.242  63.462  1.00  0.00    -0.513 A  
ENDBRANCH  11  14
BRANCH  12  21
HETATM   21  C   UNL     1      -9.186   9.143  67.603  1.00  0.00    -0.128 C  
HETATM   22  N   UNL     1     -10.459   8.797  67.999  1.00  0.00    -0.317 N  
HETATM   23  H   UNL     1     -11.236   9.084  67.404  1.00  0.00     0.000 HD 
HETATM   24  O   UNL     1      -8.129   8.774  68.095  1.00  0.00    -0.105 OA 
BRANCH  22  25
HETATM   25  C   UNL     1     -10.759   8.077  69.163  1.00  0.00    -0.106 A  
HETATM   26  N   UNL     1     -10.917   8.721  70.336  1.00  0.00    -0.234 NA 
HETATM   27  C   UNL     1     -11.205   7.981  71.433  1.00  0.00    -0.252 A  
HETATM   28  C   UNL     1     -11.347   6.609  71.408  1.00  0.00    -0.289 A  
HETATM   29  C   UNL     1     -11.202   5.949  70.199  1.00  0.00    -0.338 A  
HETATM   30  F   UNL     1     -11.614   5.926  72.527  1.00  0.00    -0.309 F  
HETATM   31  C   UNL     1     -10.913   6.694  69.054  1.00  0.00    -0.332 A  
ENDBRANCH  22  25
ENDBRANCH  12  21
ENDBRANCH  10  11
ENDBRANCH   9  10
ENDBRANCH   5   9
TORSDOF 6
ENDMDL
MODEL       27
REMARK 921   NORMALIZED FREE ENERGY PREDICTED BY IDOCK:   -6.62 KCAL/MOL
REMARK 922        TOTAL FREE ENERGY PREDICTED BY IDOCK:  -10.49 KCAL/MOL
REMARK 923 INTER-LIGAND FREE ENERGY PREDICTED BY IDOCK:  -10.17 KCAL/MOL
REMARK 924 INTRA-LIGAND FREE ENERGY PREDICTED BY IDOCK:   -0.32 KCAL/MOL
REMARK 927      BINDING AFFINITY PREDICTED BY RF-SCORE:    0.00 PKD
ROOT
HETATM    1  C   UNL     1      -9.386  10.563  62.488  1.00  0.00    -0.319 C  
HETATM    2  C   UNL     1     -10.135  11.130  63.650  1.00  0.00    -0.379 A  
HETATM    3  N   UNL     1      -9.902  10.635  64.868  1.00  0.00    -0.276 NA 
HETATM    4  C   UNL     1     -10.612  11.204  65.865  1.00  0.00    -0.234 A  
HETATM    5  C   UNL     1     -11.543  12.225  65.720  1.00  0.00    -0.388 A  
HETATM    6  C   UNL     1     -12.482  13.865  63.931  1.00  0.00    -0.221 C  
HETATM    7  C   UNL     1     -11.694  12.686  64.418  1.00  0.00    -0.369 A  
HETATM    8  N   UNL     1     -10.994  12.129  63.390  1.00  0.00    -0.431 NA 
ENDROOT
BRANCH   5   9
HETATM    9  O   UNL     1     -12.106  12.591  66.905  1.00  0.00    -0.537 OA 
BRANCH   9  10
HETATM   10  C   UNL     1     -11.947  13.933  67.347  1.00  0.00    -0.401 C  
BRANCH  10  11
HETATM   11  C   UNL     1     -11.208  13.951  68.694  1.00  0.00    -0.298 C  
HETATM   12  C   UNL     1      -9.850  14.690  68.762  1.00  0.00    -0.227 C  
HETATM   13  C   UNL     1      -9.899  13.183  68.676  1.00  0.00    -0.089 C  
BRANCH  11  14
HETATM   14  C   UNL     1     -12.083  13.959  69.982  1.00  0.00    -0.411 A  
HETATM   15  C   UNL     1     -12.647  15.146  70.512  1.00  0.00    -0.429 A  
HETATM   16  F   UNL     1     -13.509  11.631  72.427  1.00  0.00    -0.581 F  
HETATM   17  C   UNL     1     -13.488  15.152  71.635  1.00  0.00    -0.535 A  
HETATM   18  C   UNL     1     -12.397  12.781  70.686  1.00  0.00    -0.381 A  
HETATM   19  C   UNL     1     -13.232  12.786  71.806  1.00  0.00    -0.374 A  
HETATM   20  C   UNL     1     -13.788  13.960  72.283  1.00  0.00    -0.669 A  
ENDBRANCH  11  14
BRANCH  12  21
HETATM   21  C   UNL     1      -9.395  15.539  67.611  1.00  0.00    -0.203 C  
HETATM   22  N   UNL     1      -8.587  16.585  67.998  1.00  0.00    -0.181 N  
HETATM   23  H   UNL     1      -8.273  16.610  68.968  1.00  0.00     0.000 HD 
HETATM   24  O   UNL     1      -9.751  15.256  66.477  1.00  0.00    -0.240 OA 
BRANCH  22  25
HETATM   25  C   UNL     1      -8.165  17.617  67.149  1.00  0.00    -0.214 A  
HETATM   26  N   UNL     1      -8.909  18.733  67.018  1.00  0.00    -0.287 NA 
HETATM   27  C   UNL     1      -8.460  19.701  66.185  1.00  0.00    -0.334 A  
HETATM   28  C   UNL     1      -7.284  19.603  65.469  1.00  0.00    -0.223 A  
HETATM   29  C   UNL     1      -6.511  18.464  65.618  1.00  0.00    -0.314 A  
HETATM   30  F   UNL     1      -6.898  20.584  64.646  1.00  0.00    -0.334 F  
HETATM   31  C   UNL     1      -6.951  17.457  66.479  1.00  0.00    -0.295 A  
ENDBRANCH  22  25
ENDBRANCH  12  21
ENDBRANCH  10  11
ENDBRANCH   9  10
ENDBRANCH   5   9
TORSDOF 6
ENDMDL
MODEL       28
REMARK 921   NORMALIZED FREE ENERGY PREDICTED BY IDOCK:   -6.60 KCAL/MOL
REMARK 922        TOTAL FREE ENERGY PREDICTED BY IDOCK:  -10.46 KCAL/MOL
REMARK 923 INTER-LIGAND FREE ENERGY PREDICTED BY IDOCK:   -9.79 KCAL/MOL
REMARK 924 INTRA-LIGAND FREE ENERGY PREDICTED BY IDOCK:   -0.67 KCAL/MOL
REMARK 927      BINDING AFFINITY PREDICTED BY RF-SCORE:    0.00 PKD
ROOT
HETATM    1  C   UNL     1     -12.192  16.451  74.118  1.00  0.00    -0.537 C  
HETATM    2  C   UNL     1     -12.332  15.659  72.857  1.00  0.00    -0.447 A  
HETATM    3  N   UNL     1     -11.873  16.182  71.717  1.00  0.00    -0.503 NA 
HETATM    4  C   UNL     1     -12.030  15.405  70.625  1.00  0.00    -0.356 A  
HETATM    5  C   UNL     1     -12.622  14.148  70.599  1.00  0.00    -0.351 A  
HETATM    6  C   UNL     1     -13.570  12.328  72.199  1.00  0.00    -0.348 C  
HETATM    7  C   UNL     1     -13.043  13.684  71.839  1.00  0.00    -0.387 A  
HETATM    8  N   UNL     1     -12.902  14.448  72.959  1.00  0.00    -0.457 NA 
ENDROOT
BRANCH   5   9
HETATM    9  O   UNL     1     -12.644  13.607  69.351  1.00  0.00    -0.121 OA 
BRANCH   9  10
HETATM   10  C   UNL     1     -11.561  13.883  68.470  1.00  0.00    -0.332 C  
BRANCH  10  11
HETATM   11  C   UNL     1     -11.101  12.585  67.790  1.00  0.00    -0.291 C  
HETATM   12  C   UNL     1     -10.455  12.694  66.387  1.00  0.00    -0.267 C  
HETATM   13  C   UNL     1     -11.889  12.245  66.538  1.00  0.00    -0.378 C  
BRANCH  11  14
HETATM   14  C   UNL     1     -10.590  11.443  68.716  1.00  0.00    -0.235 A  
HETATM   15  C   UNL     1      -9.270  10.933  68.640  1.00  0.00    -0.187 A  
HETATM   16  F   UNL     1     -11.727   9.379  71.523  1.00  0.00    -0.361 F  
HETATM   17  C   UNL     1      -8.784   9.949  69.513  1.00  0.00    -0.200 A  
HETATM   18  C   UNL     1     -11.398  10.864  69.714  1.00  0.00    -0.374 A  
HETATM   19  C   UNL     1     -10.916   9.882  70.583  1.00  0.00    -0.337 A  
HETATM   20  C   UNL     1      -9.613   9.424  70.498  1.00  0.00    -0.330 A  
ENDBRANCH  11  14
BRANCH  12  21
HETATM   21  C   UNL     1     -10.097  14.039  65.825  1.00  0.00    -0.327 C  
HETATM   22  N   UNL     1      -9.392  14.823  66.710  1.00  0.00    -0.236 N  
HETATM   23  H   UNL     1      -9.073  14.392  67.578  1.00  0.00     0.000 HD 
HETATM   24  O   UNL     1     -10.435  14.324  64.686  1.00  0.00    -0.425 OA 
BRANCH  22  25
HETATM   25  C   UNL     1      -9.082  16.174  66.499  1.00  0.00    -0.277 A  
HETATM   26  N   UNL     1     -10.061  17.099  66.488  1.00  0.00    -0.299 NA 
HETATM   27  C   UNL     1      -9.712  18.391  66.280  1.00  0.00    -0.294 A  
HETATM   28  C   UNL     1      -8.409  18.804  66.083  1.00  0.00    -0.176 A  
HETATM   29  C   UNL     1      -7.401  17.855  66.112  1.00  0.00    -0.327 A  
HETATM   30  F   UNL     1      -8.123  20.091  65.864  1.00  0.00    -0.334 F  
HETATM   31  C   UNL     1      -7.739  16.518  66.334  1.00  0.00    -0.294 A  
ENDBRANCH  22  25
ENDBRANCH  12  21
ENDBRANCH  10  11
ENDBRANCH   9  10
ENDBRANCH   5   9
TORSDOF 6
ENDMDL
MODEL       29
REMARK 921   NORMALIZED FREE ENERGY PREDICTED BY IDOCK:   -6.58 KCAL/MOL
REMARK 922        TOTAL FREE ENERGY PREDICTED BY IDOCK:  -10.44 KCAL/MOL
REMARK 923 INTER-LIGAND FREE ENERGY PREDICTED BY IDOCK:   -8.82 KCAL/MOL
REMARK 924 INTRA-LIGAND FREE ENERGY PREDICTED BY IDOCK:   -1.62 KCAL/MOL
REMARK 927      BINDING AFFINITY PREDICTED BY RF-SCORE:    0.00 PKD
ROOT
HETATM    1  C   UNL     1     -11.686   6.118  72.276  1.00  0.00    -0.352 C  
HETATM    2  C   UNL     1     -11.555   7.431  71.573  1.00  0.00    -0.275 A  
HETATM    3  N   UNL     1     -10.713   7.524  70.540  1.00  0.00    -0.230 NA 
HETATM    4  C   UNL     1     -10.655   8.738  69.955  1.00  0.00    -0.224 A  
HETATM    5  C   UNL     1     -11.375   9.863  70.340  1.00  0.00    -0.307 A  
HETATM    6  C   UNL     1     -13.266  10.589  71.974  1.00  0.00    -0.483 C  
HETATM    7  C   UNL     1     -12.239   9.655  71.408  1.00  0.00    -0.385 A  
HETATM    8  N   UNL     1     -12.317   8.441  72.023  1.00  0.00    -0.339 NA 
ENDROOT
BRANCH   5   9
HETATM    9  O   UNL     1     -11.103  10.948  69.565  1.00  0.00    -0.234 OA 
BRANCH   9  10
HETATM   10  C   UNL     1     -11.564  10.955  68.219  1.00  0.00    -0.262 C  
BRANCH  10  11
HETATM   11  C   UNL     1     -10.491  11.567  67.307  1.00  0.00    -0.246 C  
HETATM   12  C   UNL     1     -10.478  13.107  67.139  1.00  0.00    -0.247 C  
HETATM   13  C   UNL     1     -11.058  12.223  66.060  1.00  0.00    -0.347 C  
BRANCH  11  14
HETATM   14  C   UNL     1      -9.117  10.838  67.241  1.00  0.00    -0.151 A  
HETATM   15  C   UNL     1      -7.930  11.400  67.773  1.00  0.00    -0.119 A  
HETATM   16  F   UNL     1      -7.675   7.655  66.136  1.00  0.00    -0.081 F  
HETATM   17  C   UNL     1      -6.703  10.721  67.773  1.00  0.00    -0.068 A  
HETATM   18  C   UNL     1      -8.972   9.556  66.676  1.00  0.00    -0.168 A  
HETATM   19  C   UNL     1      -7.749   8.880  66.674  1.00  0.00    -0.100 A  
HETATM   20  C   UNL     1      -6.613   9.447  67.225  1.00  0.00    -0.071 A  
ENDBRANCH  11  14
BRANCH  12  21
HETATM   21  C   UNL     1     -11.343  13.967  68.013  1.00  0.00    -0.288 C  
HETATM   22  N   UNL     1     -10.951  13.960  69.333  1.00  0.00    -0.407 N  
HETATM   23  H   UNL     1     -10.070  13.502  69.566  1.00  0.00     0.000 HD 
HETATM   24  O   UNL     1     -12.278  14.579  67.519  1.00  0.00    -0.318 OA 
BRANCH  22  25
HETATM   25  C   UNL     1     -11.681  14.541  70.380  1.00  0.00    -0.290 A  
HETATM   26  N   UNL     1     -11.208  15.633  71.011  1.00  0.00    -0.356 NA 
HETATM   27  C   UNL     1     -11.949  16.157  72.016  1.00  0.00    -0.526 A  
HETATM   28  C   UNL     1     -13.160  15.633  72.420  1.00  0.00    -0.460 A  
HETATM   29  C   UNL     1     -13.655  14.522  71.759  1.00  0.00    -0.474 A  
HETATM   30  F   UNL     1     -13.841  16.181  73.432  1.00  0.00    -0.656 F  
HETATM   31  C   UNL     1     -12.911  13.971  70.714  1.00  0.00    -0.355 A  
ENDBRANCH  22  25
ENDBRANCH  12  21
ENDBRANCH  10  11
ENDBRANCH   9  10
ENDBRANCH   5   9
TORSDOF 6
ENDMDL
MODEL       30
REMARK 921   NORMALIZED FREE ENERGY PREDICTED BY IDOCK:   -6.52 KCAL/MOL
REMARK 922        TOTAL FREE ENERGY PREDICTED BY IDOCK:  -10.36 KCAL/MOL
REMARK 923 INTER-LIGAND FREE ENERGY PREDICTED BY IDOCK:   -9.09 KCAL/MOL
REMARK 924 INTRA-LIGAND FREE ENERGY PREDICTED BY IDOCK:   -1.27 KCAL/MOL
REMARK 927      BINDING AFFINITY PREDICTED BY RF-SCORE:    0.00 PKD
ROOT
HETATM    1  C   UNL     1      -6.442  20.156  69.254  1.00  0.00    -0.335 C  
HETATM    2  C   UNL     1      -7.298  18.991  68.874  1.00  0.00    -0.325 A  
HETATM    3  N   UNL     1      -6.847  17.758  69.117  1.00  0.00    -0.249 NA 
HETATM    4  C   UNL     1      -7.678  16.760  68.752  1.00  0.00    -0.242 A  
HETATM    5  C   UNL     1      -8.923  16.916  68.155  1.00  0.00    -0.227 A  
HETATM    6  C   UNL     1     -10.636  18.765  67.507  1.00  0.00    -0.497 C  
HETATM    7  C   UNL     1      -9.312  18.237  67.969  1.00  0.00    -0.284 A  
HETATM    8  N   UNL     1      -8.491  19.266  68.323  1.00  0.00    -0.320 NA 
ENDROOT
BRANCH   5   9
HETATM    9  O   UNL     1      -9.532  15.726  67.896  1.00  0.00    -0.210 OA 
BRANCH   9  10
HETATM   10  C   UNL     1      -9.739  14.819  68.972  1.00  0.00    -0.190 C  
BRANCH  10  11
HETATM   11  C   UNL     1     -11.232  14.477  69.081  1.00  0.00    -0.294 C  
HETATM   12  C   UNL     1     -11.786  13.361  68.162  1.00  0.00    -0.396 C  
HETATM   13  C   UNL     1     -12.024  14.816  67.831  1.00  0.00    -0.260 C  
BRANCH  11  14
HETATM   14  C   UNL     1     -11.894  14.632  70.482  1.00  0.00    -0.367 A  
HETATM   15  C   UNL     1     -12.736  13.639  71.041  1.00  0.00    -0.408 A  
HETATM   16  F   UNL     1     -11.960  16.952  73.318  1.00  0.00    -0.546 F  
HETATM   17  C   UNL     1     -13.284  13.744  72.328  1.00  0.00    -0.563 A  
HETATM   18  C   UNL     1     -11.672  15.758  71.299  1.00  0.00    -0.496 A  
HETATM   19  C   UNL     1     -12.218  15.865  72.580  1.00  0.00    -0.502 A  
HETATM   20  C   UNL     1     -13.017  14.864  73.107  1.00  0.00    -0.627 A  
ENDBRANCH  11  14
BRANCH  12  21
HETATM   21  C   UNL     1     -10.846  12.507  67.363  1.00  0.00    -0.240 C  
HETATM   22  N   UNL     1     -10.556  11.308  67.975  1.00  0.00    -0.186 N  
HETATM   23  H   UNL     1     -11.085  11.060  68.811  1.00  0.00     0.000 HD 
HETATM   24  O   UNL     1     -10.432  12.911  66.287  1.00  0.00    -0.262 OA 
BRANCH  22  25
HETATM   25  C   UNL     1      -9.583  10.404  67.526  1.00  0.00    -0.156 A  
HETATM   26  N   UNL     1      -8.288  10.588  67.849  1.00  0.00    -0.114 NA 
HETATM   27  C   UNL     1      -7.385   9.689  67.391  1.00  0.00    -0.087 A  
HETATM   28  C   UNL     1      -7.724   8.598  66.617  1.00  0.00    -0.096 A  
HETATM   29  C   UNL     1      -9.058   8.399  66.300  1.00  0.00    -0.241 A  
HETATM   30  F   UNL     1      -6.788   7.751  66.176  1.00  0.00    -0.056 F  
HETATM   31  C   UNL     1     -10.006   9.310  66.770  1.00  0.00    -0.312 A  
ENDBRANCH  22  25
ENDBRANCH  12  21
ENDBRANCH  10  11
ENDBRANCH   9  10
ENDBRANCH   5   9
TORSDOF 6
ENDMDL
MODEL       31
REMARK 921   NORMALIZED FREE ENERGY PREDICTED BY IDOCK:   -6.50 KCAL/MOL
REMARK 922        TOTAL FREE ENERGY PREDICTED BY IDOCK:  -10.32 KCAL/MOL
REMARK 923 INTER-LIGAND FREE ENERGY PREDICTED BY IDOCK:   -8.59 KCAL/MOL
REMARK 924 INTRA-LIGAND FREE ENERGY PREDICTED BY IDOCK:   -1.73 KCAL/MOL
REMARK 927      BINDING AFFINITY PREDICTED BY RF-SCORE:    0.00 PKD
ROOT
HETATM    1  C   UNL     1     -12.222  11.718  63.643  1.00  0.00    -0.489 C  
HETATM    2  C   UNL     1     -12.060  12.740  64.722  1.00  0.00    -0.432 A  
HETATM    3  N   UNL     1     -12.275  12.374  65.989  1.00  0.00    -0.624 NA 
HETATM    4  C   UNL     1     -12.103  13.350  66.904  1.00  0.00    -0.354 A  
HETATM    5  C   UNL     1     -11.740  14.664  66.635  1.00  0.00    -0.333 A  
HETATM    6  C   UNL     1     -10.967  16.184  64.669  1.00  0.00    -0.263 C  
HETATM    7  C   UNL     1     -11.515  14.935  65.291  1.00  0.00    -0.336 A  
HETATM    8  N   UNL     1     -11.686  13.972  64.342  1.00  0.00    -0.402 NA 
ENDROOT
BRANCH   5   9
HETATM    9  O   UNL     1     -11.649  15.423  67.761  1.00  0.00    -0.322 OA 
BRANCH   9  10
HETATM   10  C   UNL     1     -10.751  15.014  68.786  1.00  0.00    -0.241 C  
BRANCH  10  11
HETATM   11  C   UNL     1      -9.357  15.603  68.519  1.00  0.00    -0.197 C  
HETATM   12  C   UNL     1      -8.245  14.637  68.041  1.00  0.00    -0.145 C  
HETATM   13  C   UNL     1      -8.293  15.099  69.478  1.00  0.00    -0.151 C  
BRANCH  11  14
HETATM   14  C   UNL     1      -9.295  17.068  67.994  1.00  0.00    -0.245 A  
HETATM   15  C   UNL     1      -8.598  17.425  66.814  1.00  0.00    -0.284 A  
HETATM   16  F   UNL     1     -10.612  20.395  68.785  1.00  0.00    -0.495 F  
HETATM   17  C   UNL     1      -8.591  18.730  66.301  1.00  0.00    -0.247 A  
HETATM   18  C   UNL     1      -9.958  18.128  68.642  1.00  0.00    -0.409 A  
HETATM   19  C   UNL     1      -9.951  19.429  68.134  1.00  0.00    -0.413 A  
HETATM   20  C   UNL     1      -9.279  19.740  66.964  1.00  0.00    -0.449 A  
ENDBRANCH  11  14
BRANCH  12  21
HETATM   21  C   UNL     1      -8.587  13.231  67.645  1.00  0.00    -0.196 C  
HETATM   22  N   UNL     1      -8.726  12.386  68.723  1.00  0.00    -0.376 N  
HETATM   23  H   UNL     1      -8.718  12.799  69.656  1.00  0.00     0.000 HD 
HETATM   24  O   UNL     1      -8.714  12.952  66.462  1.00  0.00    -0.101 OA 
BRANCH  22  25
HETATM   25  C   UNL     1      -8.877  10.996  68.626  1.00  0.00    -0.164 A  
HETATM   26  N   UNL     1      -7.826  10.221  68.294  1.00  0.00    -0.099 NA 
HETATM   27  C   UNL     1      -8.023   8.884  68.213  1.00  0.00    -0.105 A  
HETATM   28  C   UNL     1      -9.239   8.279  68.454  1.00  0.00    -0.135 A  
HETATM   29  C   UNL     1     -10.315   9.073  68.814  1.00  0.00    -0.236 A  
HETATM   30  F   UNL     1      -9.381   6.954  68.341  1.00  0.00    -0.132 F  
HETATM   31  C   UNL     1     -10.132  10.454  68.912  1.00  0.00    -0.213 A  
ENDBRANCH  22  25
ENDBRANCH  12  21
ENDBRANCH  10  11
ENDBRANCH   9  10
ENDBRANCH   5   9
TORSDOF 6
ENDMDL
MODEL       32
REMARK 921   NORMALIZED FREE ENERGY PREDICTED BY IDOCK:   -6.47 KCAL/MOL
REMARK 922        TOTAL FREE ENERGY PREDICTED BY IDOCK:  -10.29 KCAL/MOL
REMARK 923 INTER-LIGAND FREE ENERGY PREDICTED BY IDOCK:   -8.94 KCAL/MOL
REMARK 924 INTRA-LIGAND FREE ENERGY PREDICTED BY IDOCK:   -1.36 KCAL/MOL
REMARK 927      BINDING AFFINITY PREDICTED BY RF-SCORE:    0.00 PKD
ROOT
HETATM    1  C   UNL     1     -11.137  16.106  64.880  1.00  0.00    -0.336 C  
HETATM    2  C   UNL     1     -11.349  14.834  65.635  1.00  0.00    -0.343 A  
HETATM    3  N   UNL     1     -11.170  13.673  65.000  1.00  0.00    -0.310 NA 
HETATM    4  C   UNL     1     -11.375  12.571  65.750  1.00  0.00    -0.336 A  
HETATM    5  C   UNL     1     -11.754  12.555  67.087  1.00  0.00    -0.355 A  
HETATM    6  C   UNL     1     -12.127  14.161  69.100  1.00  0.00    -0.362 C  
HETATM    7  C   UNL     1     -11.889  13.813  67.662  1.00  0.00    -0.378 A  
HETATM    8  N   UNL     1     -11.693  14.945  66.929  1.00  0.00    -0.305 NA 
ENDROOT
BRANCH   5   9
HETATM    9  O   UNL     1     -11.890  11.292  67.577  1.00  0.00    -0.613 OA 
BRANCH   9  10
HETATM   10  C   UNL     1     -10.804  10.385  67.431  1.00  0.00    -0.286 C  
BRANCH  10  11
HETATM   11  C   UNL     1     -10.141  10.146  68.796  1.00  0.00    -0.198 C  
HETATM   12  C   UNL     1      -8.909  11.010  69.161  1.00  0.00    -0.003 C  
HETATM   13  C   UNL     1      -8.734   9.585  68.695  1.00  0.00    -0.127 C  
BRANCH  11  14
HETATM   14  C   UNL     1     -11.068   9.706  69.967  1.00  0.00    -0.293 A  
HETATM   15  C   UNL     1     -11.073   8.385  70.479  1.00  0.00    -0.267 A  
HETATM   16  F   UNL     1     -13.525  11.119  72.290  1.00  0.00    -0.560 F  
HETATM   17  C   UNL     1     -11.858   7.998  71.575  1.00  0.00    -0.328 A  
HETATM   18  C   UNL     1     -11.940  10.602  70.614  1.00  0.00    -0.466 A  
HETATM   19  C   UNL     1     -12.725  10.218  71.704  1.00  0.00    -0.456 A  
HETATM   20  C   UNL     1     -12.687   8.925  72.197  1.00  0.00    -0.470 A  
ENDBRANCH  11  14
BRANCH  12  21
HETATM   21  C   UNL     1      -8.529  12.181  68.303  1.00  0.00    -0.176 C  
HETATM   22  N   UNL     1      -8.595  13.383  68.970  1.00  0.00    -0.314 N  
HETATM   23  H   UNL     1      -8.757  13.360  69.977  1.00  0.00     0.000 HD 
HETATM   24  O   UNL     1      -8.203  11.993  67.140  1.00  0.00    -0.168 OA 
BRANCH  22  25
HETATM   25  C   UNL     1      -8.453  14.637  68.360  1.00  0.00    -0.160 A  
HETATM   26  N   UNL     1      -8.035  14.725  67.082  1.00  0.00    -0.201 NA 
HETATM   27  C   UNL     1      -7.914  15.958  66.537  1.00  0.00    -0.196 A  
HETATM   28  C   UNL     1      -8.198  17.123  67.221  1.00  0.00    -0.187 A  
HETATM   29  C   UNL     1      -8.645  17.032  68.528  1.00  0.00    -0.257 A  
HETATM   30  F   UNL     1      -8.042  18.317  66.638  1.00  0.00    -0.232 F  
HETATM   31  C   UNL     1      -8.785  15.769  69.107  1.00  0.00    -0.253 A  
ENDBRANCH  22  25
ENDBRANCH  12  21
ENDBRANCH  10  11
ENDBRANCH   9  10
ENDBRANCH   5   9
TORSDOF 6
ENDMDL
MODEL       33
REMARK 921   NORMALIZED FREE ENERGY PREDICTED BY IDOCK:   -6.47 KCAL/MOL
REMARK 922        TOTAL FREE ENERGY PREDICTED BY IDOCK:  -10.29 KCAL/MOL
REMARK 923 INTER-LIGAND FREE ENERGY PREDICTED BY IDOCK:   -9.11 KCAL/MOL
REMARK 924 INTRA-LIGAND FREE ENERGY PREDICTED BY IDOCK:   -1.18 KCAL/MOL
REMARK 927      BINDING AFFINITY PREDICTED BY RF-SCORE:    0.00 PKD
ROOT
HETATM    1  C   UNL     1      -8.001   7.485  65.484  1.00  0.00    -0.121 C  
HETATM    2  C   UNL     1      -8.452   8.910  65.530  1.00  0.00    -0.159 A  
HETATM    3  N   UNL     1      -8.152   9.644  66.604  1.00  0.00    -0.118 NA 
HETATM    4  C   UNL     1      -8.587  10.920  66.568  1.00  0.00    -0.156 A  
HETATM    5  C   UNL     1      -9.308  11.504  65.534  1.00  0.00    -0.185 A  
HETATM    6  C   UNL     1     -10.146  11.005  63.121  1.00  0.00    -0.350 C  
HETATM    7  C   UNL     1      -9.547  10.665  64.452  1.00  0.00    -0.295 A  
HETATM    8  N   UNL     1      -9.124   9.370  64.462  1.00  0.00    -0.198 NA 
ENDROOT
BRANCH   5   9
HETATM    9  O   UNL     1      -9.614  12.808  65.781  1.00  0.00    -0.207 OA 
BRANCH   9  10
HETATM   10  C   UNL     1      -9.428  13.312  67.098  1.00  0.00    -0.240 C  
BRANCH  10  11
HETATM   11  C   UNL     1     -10.486  14.385  67.396  1.00  0.00    -0.261 C  
HETATM   12  C   UNL     1     -11.838  13.921  67.992  1.00  0.00    -0.411 C  
HETATM   13  C   UNL     1     -11.726  14.271  66.527  1.00  0.00    -0.409 C  
BRANCH  11  14
HETATM   14  C   UNL     1      -9.969  15.790  67.827  1.00  0.00    -0.227 A  
HETATM   15  C   UNL     1      -8.680  15.990  68.380  1.00  0.00    -0.186 A  
HETATM   16  F   UNL     1     -11.019  19.301  67.802  1.00  0.00    -0.499 F  
HETATM   17  C   UNL     1      -8.184  17.259  68.711  1.00  0.00    -0.231 A  
HETATM   18  C   UNL     1     -10.738  16.958  67.663  1.00  0.00    -0.290 A  
HETATM   19  C   UNL     1     -10.247  18.223  67.994  1.00  0.00    -0.385 A  
HETATM   20  C   UNL     1      -8.973  18.387  68.510  1.00  0.00    -0.336 A  
ENDBRANCH  11  14
BRANCH  12  21
HETATM   21  C   UNL     1     -12.008  12.506  68.461  1.00  0.00    -0.219 C  
HETATM   22  N   UNL     1     -11.975  12.384  69.832  1.00  0.00    -0.326 N  
HETATM   23  H   UNL     1     -11.974  13.241  70.386  1.00  0.00     0.000 HD 
HETATM   24  O   UNL     1     -12.158  11.614  67.639  1.00  0.00    -0.615 OA 
BRANCH  22  25
HETATM   25  C   UNL     1     -11.944  11.163  70.519  1.00  0.00    -0.380 A  
HETATM   26  N   UNL     1     -10.875  10.351  70.408  1.00  0.00    -0.258 NA 
HETATM   27  C   UNL     1     -10.891   9.181  71.090  1.00  0.00    -0.311 A  
HETATM   28  C   UNL     1     -11.943   8.784  71.891  1.00  0.00    -0.365 A  
HETATM   29  C   UNL     1     -13.034   9.627  72.020  1.00  0.00    -0.518 A  
HETATM   30  F   UNL     1     -11.914   7.609  72.528  1.00  0.00    -0.317 F  
HETATM   31  C   UNL     1     -13.033  10.842  71.331  1.00  0.00    -0.535 A  
ENDBRANCH  22  25
ENDBRANCH  12  21
ENDBRANCH  10  11
ENDBRANCH   9  10
ENDBRANCH   5   9
TORSDOF 6
ENDMDL
MODEL       34
REMARK 921   NORMALIZED FREE ENERGY PREDICTED BY IDOCK:   -6.42 KCAL/MOL
REMARK 922        TOTAL FREE ENERGY PREDICTED BY IDOCK:  -10.22 KCAL/MOL
REMARK 923 INTER-LIGAND FREE ENERGY PREDICTED BY IDOCK:   -9.98 KCAL/MOL
REMARK 924 INTRA-LIGAND FREE ENERGY PREDICTED BY IDOCK:   -0.23 KCAL/MOL
REMARK 927      BINDING AFFINITY PREDICTED BY RF-SCORE:    0.00 PKD
ROOT
HETATM    1  C   UNL     1      -9.363  10.268  63.579  1.00  0.00    -0.341 C  
HETATM    2  C   UNL     1     -10.119  10.675  64.802  1.00  0.00    -0.344 A  
HETATM    3  N   UNL     1      -9.961   9.962  65.920  1.00  0.00    -0.278 NA 
HETATM    4  C   UNL     1     -10.672  10.395  66.982  1.00  0.00    -0.235 A  
HETATM    5  C   UNL     1     -11.533  11.485  66.995  1.00  0.00    -0.214 A  
HETATM    6  C   UNL     1     -12.304  13.469  65.497  1.00  0.00    -0.524 C  
HETATM    7  C   UNL     1     -11.608  12.174  65.791  1.00  0.00    -0.355 A  
HETATM    8  N   UNL     1     -10.906  11.758  64.699  1.00  0.00    -0.295 NA 
ENDROOT
BRANCH   5   9
HETATM    9  O   UNL     1     -12.116  11.677  68.210  1.00  0.00    -0.552 OA 
BRANCH   9  10
HETATM   10  C   UNL     1     -11.442  11.205  69.370  1.00  0.00    -0.298 C  
BRANCH  10  11
HETATM   11  C   UNL     1     -12.353  11.359  70.598  1.00  0.00    -0.466 C  
HETATM   12  C   UNL     1     -12.271  10.273  71.698  1.00  0.00    -0.384 C  
HETATM   13  C   UNL     1     -13.410  10.275  70.707  1.00  0.00    -0.164 C  
BRANCH  11  14
HETATM   14  C   UNL     1     -12.681  12.810  71.059  1.00  0.00    -0.331 A  
HETATM   15  C   UNL     1     -13.612  13.089  72.090  1.00  0.00    -0.618 A  
HETATM   16  F   UNL     1     -11.656  16.266  70.404  1.00  0.00    -0.342 F  
HETATM   17  C   UNL     1     -13.865  14.388  72.553  1.00  0.00    -0.559 A  
HETATM   18  C   UNL     1     -12.047  13.938  70.502  1.00  0.00    -0.426 A  
HETATM   19  C   UNL     1     -12.300  15.232  70.962  1.00  0.00    -0.367 A  
HETATM   20  C   UNL     1     -13.197  15.469  71.988  1.00  0.00    -0.549 A  
ENDBRANCH  11  14
BRANCH  12  21
HETATM   21  C   UNL     1     -11.183   9.240  71.658  1.00  0.00    -0.379 C  
HETATM   22  N   UNL     1     -11.480   8.115  72.393  1.00  0.00    -0.373 N  
HETATM   23  H   UNL     1     -12.424   8.029  72.770  1.00  0.00     0.000 HD 
HETATM   24  O   UNL     1     -10.169   9.458  71.011  1.00  0.00    -0.287 OA 
BRANCH  22  25
HETATM   25  C   UNL     1     -10.574   7.078  72.658  1.00  0.00    -0.245 A  
HETATM   26  N   UNL     1      -9.858   7.079  73.799  1.00  0.00    -0.270 NA 
HETATM   27  C   UNL     1      -8.995   6.057  74.009  1.00  0.00    -0.127 A  
HETATM   28  C   UNL     1      -8.817   5.019  73.117  1.00  0.00    -0.111 A  
HETATM   29  C   UNL     1      -9.566   5.008  71.953  1.00  0.00    -0.199 A  
HETATM   30  F   UNL     1      -7.937   4.043  73.368  1.00  0.00    -0.082 F  
HETATM   31  C   UNL     1     -10.468   6.049  71.721  1.00  0.00    -0.268 A  
ENDBRANCH  22  25
ENDBRANCH  12  21
ENDBRANCH  10  11
ENDBRANCH   9  10
ENDBRANCH   5   9
TORSDOF 6
ENDMDL
MODEL       35
REMARK 921   NORMALIZED FREE ENERGY PREDICTED BY IDOCK:   -6.41 KCAL/MOL
REMARK 922        TOTAL FREE ENERGY PREDICTED BY IDOCK:  -10.21 KCAL/MOL
REMARK 923 INTER-LIGAND FREE ENERGY PREDICTED BY IDOCK:   -9.15 KCAL/MOL
REMARK 924 INTRA-LIGAND FREE ENERGY PREDICTED BY IDOCK:   -1.06 KCAL/MOL
REMARK 927      BINDING AFFINITY PREDICTED BY RF-SCORE:    0.00 PKD
ROOT
HETATM    1  C   UNL     1     -10.389  19.347  66.052  1.00  0.00    -0.584 C  
HETATM    2  C   UNL     1     -10.016  18.002  66.589  1.00  0.00    -0.362 A  
HETATM    3  N   UNL     1      -9.064  17.304  65.965  1.00  0.00    -0.517 NA 
HETATM    4  C   UNL     1      -8.780  16.104  66.513  1.00  0.00    -0.302 A  
HETATM    5  C   UNL     1      -9.390  15.558  67.635  1.00  0.00    -0.203 A  
HETATM    6  C   UNL     1     -11.078  16.171  69.519  1.00  0.00    -0.344 C  
HETATM    7  C   UNL     1     -10.348  16.373  68.225  1.00  0.00    -0.279 A  
HETATM    8  N   UNL     1     -10.660  17.588  67.692  1.00  0.00    -0.370 NA 
ENDROOT
BRANCH   5   9
HETATM    9  O   UNL     1      -8.899  14.328  67.951  1.00  0.00    -0.164 OA 
BRANCH   9  10
HETATM   10  C   UNL     1      -9.798  13.227  67.996  1.00  0.00    -0.230 C  
BRANCH  10  11
HETATM   11  C   UNL     1      -9.564  12.316  66.782  1.00  0.00    -0.220 C  
HETATM   12  C   UNL     1      -9.072  10.872  67.047  1.00  0.00    -0.158 C  
HETATM   13  C   UNL     1      -8.108  11.937  66.581  1.00  0.00    -0.063 C  
BRANCH  11  14
HETATM   14  C   UNL     1     -10.485  12.533  65.545  1.00  0.00    -0.305 A  
HETATM   15  C   UNL     1     -10.689  11.532  64.563  1.00  0.00    -0.390 A  
HETATM   16  F   UNL     1     -12.739  15.050  64.126  1.00  0.00    -0.471 F  
HETATM   17  C   UNL     1     -11.566  11.698  63.481  1.00  0.00    -0.408 A  
HETATM   18  C   UNL     1     -11.201  13.728  65.340  1.00  0.00    -0.306 A  
HETATM   19  C   UNL     1     -12.072  13.896  64.261  1.00  0.00    -0.440 A  
HETATM   20  C   UNL     1     -12.269  12.888  63.333  1.00  0.00    -0.574 A  
ENDBRANCH  11  14
BRANCH  12  21
HETATM   21  C   UNL     1      -9.045  10.330  68.446  1.00  0.00    -0.136 C  
HETATM   22  N   UNL     1     -10.074   9.452  68.705  1.00  0.00    -0.184 N  
HETATM   23  H   UNL     1     -10.656   9.158  67.921  1.00  0.00     0.000 HD 
HETATM   24  O   UNL     1      -8.160  10.684  69.211  1.00  0.00    -0.153 OA 
BRANCH  22  25
HETATM   25  C   UNL     1     -10.375   8.936  69.973  1.00  0.00    -0.204 A  
HETATM   26  N   UNL     1      -9.632   7.939  70.492  1.00  0.00    -0.170 NA 
HETATM   27  C   UNL     1      -9.962   7.474  71.720  1.00  0.00    -0.171 A  
HETATM   28  C   UNL     1     -11.015   7.969  72.462  1.00  0.00    -0.364 A  
HETATM   29  C   UNL     1     -11.768   9.005  71.936  1.00  0.00    -0.445 A  
HETATM   30  F   UNL     1     -11.308   7.458  73.663  1.00  0.00    -0.272 F  
HETATM   31  C   UNL     1     -11.438   9.506  70.675  1.00  0.00    -0.362 A  
ENDBRANCH  22  25
ENDBRANCH  12  21
ENDBRANCH  10  11
ENDBRANCH   9  10
ENDBRANCH   5   9
TORSDOF 6
ENDMDL
MODEL       36
REMARK 921   NORMALIZED FREE ENERGY PREDICTED BY IDOCK:   -6.40 KCAL/MOL
REMARK 922        TOTAL FREE ENERGY PREDICTED BY IDOCK:  -10.20 KCAL/MOL
REMARK 923 INTER-LIGAND FREE ENERGY PREDICTED BY IDOCK:   -8.73 KCAL/MOL
REMARK 924 INTRA-LIGAND FREE ENERGY PREDICTED BY IDOCK:   -1.47 KCAL/MOL
REMARK 927      BINDING AFFINITY PREDICTED BY RF-SCORE:    0.00 PKD
ROOT
HETATM    1  C   UNL     1     -11.765  15.956  64.121  1.00  0.00    -0.028 C  
HETATM    2  C   UNL     1     -11.746  14.676  64.892  1.00  0.00    -0.403 A  
HETATM    3  N   UNL     1     -12.206  14.674  66.145  1.00  0.00    -0.229 NA 
HETATM    4  C   UNL     1     -12.161  13.481  66.772  1.00  0.00    -0.375 A  
HETATM    5  C   UNL     1     -11.678  12.295  66.231  1.00  0.00    -0.366 A  
HETATM    6  C   UNL     1     -10.821  11.302  63.984  1.00  0.00    -0.414 C  
HETATM    7  C   UNL     1     -11.247  12.397  64.914  1.00  0.00    -0.311 A  
HETATM    8  N   UNL     1     -11.276  13.590  64.256  1.00  0.00    -0.377 NA 
ENDROOT
BRANCH   5   9
HETATM    9  O   UNL     1     -11.754  11.253  67.103  1.00  0.00    -0.533 OA 
BRANCH   9  10
HETATM   10  C   UNL     1     -11.459  11.491  68.475  1.00  0.00    -0.292 C  
BRANCH  10  11
HETATM   11  C   UNL     1     -10.231  10.668  68.891  1.00  0.00    -0.216 C  
HETATM   12  C   UNL     1      -8.831  11.264  68.603  1.00  0.00    -0.141 C  
HETATM   13  C   UNL     1      -9.401  10.183  67.716  1.00  0.00    -0.153 C  
BRANCH  11  14
HETATM   14  C   UNL     1     -10.372   9.776  70.160  1.00  0.00    -0.335 A  
HETATM   15  C   UNL     1      -9.279   9.069  70.719  1.00  0.00    -0.299 A  
HETATM   16  F   UNL     1     -12.880   8.809  72.650  1.00  0.00    -0.435 F  
HETATM   17  C   UNL     1      -9.385   8.316  71.897  1.00  0.00    -0.282 A  
HETATM   18  C   UNL     1     -11.590   9.641  70.853  1.00  0.00    -0.420 A  
HETATM   19  C   UNL     1     -11.698   8.889  72.025  1.00  0.00    -0.367 A  
HETATM   20  C   UNL     1     -10.604   8.230  72.559  1.00  0.00    -0.407 A  
ENDBRANCH  11  14
BRANCH  12  21
HETATM   21  C   UNL     1      -8.698  12.686  68.140  1.00  0.00    -0.190 C  
HETATM   22  N   UNL     1      -8.838  13.600  69.160  1.00  0.00    -0.228 N  
HETATM   23  H   UNL     1      -8.882  13.245  70.115  1.00  0.00     0.000 HD 
HETATM   24  O   UNL     1      -8.485  12.916  66.959  1.00  0.00    -0.192 OA 
BRANCH  22  25
HETATM   25  C   UNL     1      -8.923  14.987  68.975  1.00  0.00    -0.205 A  
HETATM   26  N   UNL     1     -10.124  15.575  68.807  1.00  0.00    -0.204 NA 
HETATM   27  C   UNL     1     -10.154  16.917  68.631  1.00  0.00    -0.291 A  
HETATM   28  C   UNL     1      -9.023  17.708  68.618  1.00  0.00    -0.261 A  
HETATM   29  C   UNL     1      -7.791  17.106  68.809  1.00  0.00    -0.258 A  
HETATM   30  F   UNL     1      -9.111  19.028  68.421  1.00  0.00    -0.322 F  
HETATM   31  C   UNL     1      -7.738  15.724  69.001  1.00  0.00    -0.202 A  
ENDBRANCH  22  25
ENDBRANCH  12  21
ENDBRANCH  10  11
ENDBRANCH   9  10
ENDBRANCH   5   9
TORSDOF 6
ENDMDL
MODEL       37
REMARK 921   NORMALIZED FREE ENERGY PREDICTED BY IDOCK:   -6.33 KCAL/MOL
REMARK 922        TOTAL FREE ENERGY PREDICTED BY IDOCK:  -10.09 KCAL/MOL
REMARK 923 INTER-LIGAND FREE ENERGY PREDICTED BY IDOCK:   -9.42 KCAL/MOL
REMARK 924 INTRA-LIGAND FREE ENERGY PREDICTED BY IDOCK:   -0.68 KCAL/MOL
REMARK 927      BINDING AFFINITY PREDICTED BY RF-SCORE:    0.00 PKD
ROOT
HETATM    1  C   UNL     1     -11.127  15.758  64.645  1.00  0.00    -0.376 C  
HETATM    2  C   UNL     1     -11.014  14.700  65.695  1.00  0.00    -0.335 A  
HETATM    3  N   UNL     1     -12.124  14.082  66.106  1.00  0.00    -0.424 NA 
HETATM    4  C   UNL     1     -11.939  13.137  67.051  1.00  0.00    -0.355 A  
HETATM    5  C   UNL     1     -10.720  12.778  67.614  1.00  0.00    -0.219 A  
HETATM    6  C   UNL     1      -8.168  13.220  67.361  1.00  0.00    -0.185 C  
HETATM    7  C   UNL     1      -9.625  13.461  67.101  1.00  0.00    -0.241 A  
HETATM    8  N   UNL     1      -9.781  14.425  66.150  1.00  0.00    -0.311 NA 
ENDROOT
BRANCH   5   9
HETATM    9  O   UNL     1     -10.845  11.795  68.548  1.00  0.00    -0.202 OA 
BRANCH   9  10
HETATM   10  C   UNL     1     -12.148  11.315  68.860  1.00  0.00    -0.224 C  
BRANCH  10  11
HETATM   11  C   UNL     1     -12.375  11.382  70.378  1.00  0.00    -0.404 C  
HETATM   12  C   UNL     1     -11.710  10.293  71.255  1.00  0.00    -0.378 C  
HETATM   13  C   UNL     1     -13.180  10.215  70.921  1.00  0.00    -0.360 C  
BRANCH  11  14
HETATM   14  C   UNL     1     -12.538  12.796  71.009  1.00  0.00    -0.362 A  
HETATM   15  C   UNL     1     -13.419  13.051  72.088  1.00  0.00    -0.638 A  
HETATM   16  F   UNL     1     -11.154  16.177  70.725  1.00  0.00    -0.326 F  
HETATM   17  C   UNL     1     -13.524  14.307  72.703  1.00  0.00    -0.623 A  
HETATM   18  C   UNL     1     -11.793  13.907  70.568  1.00  0.00    -0.317 A  
HETATM   19  C   UNL     1     -11.898  15.160  71.178  1.00  0.00    -0.343 A  
HETATM   20  C   UNL     1     -12.751  15.370  72.247  1.00  0.00    -0.466 A  
ENDBRANCH  11  14
BRANCH  12  21
HETATM   21  C   UNL     1     -10.707   9.351  70.656  1.00  0.00    -0.290 C  
HETATM   22  N   UNL     1     -11.287   8.261  70.048  1.00  0.00    -0.452 N  
HETATM   23  H   UNL     1     -12.302   8.258  69.945  1.00  0.00     0.000 HD 
HETATM   24  O   UNL     1      -9.515   9.606  70.743  1.00  0.00    -0.219 OA 
BRANCH  22  25
HETATM   25  C   UNL     1     -10.578   7.154  69.561  1.00  0.00    -0.234 A  
HETATM   26  N   UNL     1      -9.869   7.253  68.419  1.00  0.00    -0.152 NA 
HETATM   27  C   UNL     1      -9.201   6.157  67.989  1.00  0.00    -0.116 A  
HETATM   28  C   UNL     1      -9.208   4.951  68.660  1.00  0.00    -0.120 A  
HETATM   29  C   UNL     1      -9.921   4.854  69.843  1.00  0.00    -0.317 A  
HETATM   30  F   UNL     1      -8.544   3.894  68.179  1.00  0.00    -0.092 F  
HETATM   31  C   UNL     1     -10.610   5.976  70.309  1.00  0.00    -0.338 A  
ENDBRANCH  22  25
ENDBRANCH  12  21
ENDBRANCH  10  11
ENDBRANCH   9  10
ENDBRANCH   5   9
TORSDOF 6
ENDMDL
MODEL       38
REMARK 921   NORMALIZED FREE ENERGY PREDICTED BY IDOCK:   -6.31 KCAL/MOL
REMARK 922        TOTAL FREE ENERGY PREDICTED BY IDOCK:  -10.08 KCAL/MOL
REMARK 923 INTER-LIGAND FREE ENERGY PREDICTED BY IDOCK:   -8.99 KCAL/MOL
REMARK 924 INTRA-LIGAND FREE ENERGY PREDICTED BY IDOCK:   -1.09 KCAL/MOL
REMARK 927      BINDING AFFINITY PREDICTED BY RF-SCORE:    0.00 PKD
ROOT
HETATM    1  C   UNL     1      -6.250  18.457  66.227  1.00  0.00    -0.226 C  
HETATM    2  C   UNL     1      -7.115  17.250  66.403  1.00  0.00    -0.277 A  
HETATM    3  N   UNL     1      -6.604  16.177  67.013  1.00  0.00    -0.267 NA 
HETATM    4  C   UNL     1      -7.448  15.132  67.138  1.00  0.00    -0.141 A  
HETATM    5  C   UNL     1      -8.761  15.088  66.687  1.00  0.00    -0.254 A  
HETATM    6  C   UNL     1     -10.590  16.613  65.638  1.00  0.00    -0.282 C  
HETATM    7  C   UNL     1      -9.204  16.261  66.089  1.00  0.00    -0.341 A  
HETATM    8  N   UNL     1      -8.374  17.332  65.944  1.00  0.00    -0.542 NA 
ENDROOT
BRANCH   5   9
HETATM    9  O   UNL     1      -9.364  13.896  66.950  1.00  0.00    -0.239 OA 
BRANCH   9  10
HETATM   10  C   UNL     1      -9.642  13.559  68.304  1.00  0.00    -0.218 C  
BRANCH  10  11
HETATM   11  C   UNL     1     -11.160  13.542  68.534  1.00  0.00    -0.300 C  
HETATM   12  C   UNL     1     -11.974  12.389  67.896  1.00  0.00    -0.260 C  
HETATM   13  C   UNL     1     -11.967  13.761  67.266  1.00  0.00    -0.436 C  
BRANCH  11  14
HETATM   14  C   UNL     1     -11.679  14.108  69.889  1.00  0.00    -0.372 A  
HETATM   15  C   UNL     1     -11.241  15.349  70.413  1.00  0.00    -0.345 A  
HETATM   16  F   UNL     1     -14.079  13.301  72.538  1.00  0.00    -0.609 F  
HETATM   17  C   UNL     1     -11.751  15.895  71.600  1.00  0.00    -0.563 A  
HETATM   18  C   UNL     1     -12.644  13.437  70.665  1.00  0.00    -0.325 A  
HETATM   19  C   UNL     1     -13.151  13.978  71.849  1.00  0.00    -0.386 A  
HETATM   20  C   UNL     1     -12.720  15.205  72.321  1.00  0.00    -0.421 A  
ENDBRANCH  11  14
BRANCH  12  21
HETATM   21  C   UNL     1     -11.265  11.223  67.272  1.00  0.00    -0.296 C  
HETATM   22  N   UNL     1     -11.048  10.188  68.154  1.00  0.00    -0.424 N  
HETATM   23  H   UNL     1     -11.487  10.247  69.073  1.00  0.00     0.000 HD 
HETATM   24  O   UNL     1     -10.952  11.270  66.091  1.00  0.00    -0.266 OA 
BRANCH  22  25
HETATM   25  C   UNL     1     -10.266   9.059  67.875  1.00  0.00    -0.221 A  
HETATM   26  N   UNL     1     -10.775   8.046  67.147  1.00  0.00    -0.289 NA 
HETATM   27  C   UNL     1      -9.981   6.976  66.904  1.00  0.00    -0.217 A  
HETATM   28  C   UNL     1      -8.682   6.875  67.360  1.00  0.00    -0.119 A  
HETATM   29  C   UNL     1      -8.153   7.925  68.092  1.00  0.00    -0.123 A  
HETATM   30  F   UNL     1      -7.948   5.787  67.105  1.00  0.00    -0.099 F  
HETATM   31  C   UNL     1      -8.953   9.041  68.347  1.00  0.00    -0.133 A  
ENDBRANCH  22  25
ENDBRANCH  12  21
ENDBRANCH  10  11
ENDBRANCH   9  10
ENDBRANCH   5   9
TORSDOF 6
ENDMDL
MODEL       39
REMARK 921   NORMALIZED FREE ENERGY PREDICTED BY IDOCK:   -6.22 KCAL/MOL
REMARK 922        TOTAL FREE ENERGY PREDICTED BY IDOCK:   -9.95 KCAL/MOL
REMARK 923 INTER-LIGAND FREE ENERGY PREDICTED BY IDOCK:   -8.74 KCAL/MOL
REMARK 924 INTRA-LIGAND FREE ENERGY PREDICTED BY IDOCK:   -1.21 KCAL/MOL
REMARK 927      BINDING AFFINITY PREDICTED BY RF-SCORE:    0.00 PKD
ROOT
HETATM    1  C   UNL     1      -5.336   8.049  70.156  1.00  0.00    -0.023 C  
HETATM    2  C   UNL     1      -6.156   9.070  69.435  1.00  0.00    -0.040 A  
HETATM    3  N   UNL     1      -6.273  10.290  69.965  1.00  0.00    -0.074 NA 
HETATM    4  C   UNL     1      -7.023  11.156  69.253  1.00  0.00    -0.118 A  
HETATM    5  C   UNL     1      -7.668  10.878  68.053  1.00  0.00    -0.101 A  
HETATM    6  C   UNL     1      -7.871   9.010  66.254  1.00  0.00    -0.099 C  
HETATM    7  C   UNL     1      -7.463   9.591  67.574  1.00  0.00    -0.091 A  
HETATM    8  N   UNL     1      -6.714   8.692  68.273  1.00  0.00    -0.064 NA 
ENDROOT
BRANCH   5   9
HETATM    9  O   UNL     1      -8.356  11.949  67.570  1.00  0.00    -0.143 OA 
BRANCH   9  10
HETATM   10  C   UNL     1      -9.540  12.358  68.245  1.00  0.00    -0.211 C  
BRANCH  10  11
HETATM   11  C   UNL     1     -10.765  11.716  67.578  1.00  0.00    -0.257 C  
HETATM   12  C   UNL     1     -12.014  11.459  68.456  1.00  0.00    -0.295 C  
HETATM   13  C   UNL     1     -11.081  10.326  68.100  1.00  0.00    -0.324 C  
BRANCH  11  14
HETATM   14  C   UNL     1     -11.013  12.054  66.078  1.00  0.00    -0.346 A  
HETATM   15  C   UNL     1     -10.595  11.202  65.026  1.00  0.00    -0.340 A  
HETATM   16  F   UNL     1     -12.644  14.595  64.001  1.00  0.00    -0.485 F  
HETATM   17  C   UNL     1     -10.871  11.468  63.677  1.00  0.00    -0.488 A  
HETATM   18  C   UNL     1     -11.700  13.214  65.671  1.00  0.00    -0.402 A  
HETATM   19  C   UNL     1     -11.974  13.482  64.328  1.00  0.00    -0.432 A  
HETATM   20  C   UNL     1     -11.572  12.616  63.326  1.00  0.00    -0.419 A  
ENDBRANCH  11  14
BRANCH  12  21
HETATM   21  C   UNL     1     -12.088  12.023  69.844  1.00  0.00    -0.263 C  
HETATM   22  N   UNL     1     -12.458  13.349  69.869  1.00  0.00    -0.166 N  
HETATM   23  H   UNL     1     -12.765  13.774  68.994  1.00  0.00     0.000 HD 
HETATM   24  O   UNL     1     -11.832  11.305  70.800  1.00  0.00    -0.322 OA 
BRANCH  22  25
HETATM   25  C   UNL     1     -12.440  14.156  71.015  1.00  0.00    -0.367 A  
HETATM   26  N   UNL     1     -13.108  13.775  72.121  1.00  0.00    -0.395 NA 
HETATM   27  C   UNL     1     -13.061  14.588  73.203  1.00  0.00    -0.446 A  
HETATM   28  C   UNL     1     -12.365  15.780  73.229  1.00  0.00    -0.502 A  
HETATM   29  C   UNL     1     -11.664  16.162  72.097  1.00  0.00    -0.569 A  
HETATM   30  F   UNL     1     -12.369  16.553  74.319  1.00  0.00    -0.564 F  
HETATM   31  C   UNL     1     -11.692  15.333  70.974  1.00  0.00    -0.394 A  
ENDBRANCH  22  25
ENDBRANCH  12  21
ENDBRANCH  10  11
ENDBRANCH   9  10
ENDBRANCH   5   9
TORSDOF 6
ENDMDL
MODEL       40
REMARK 921   NORMALIZED FREE ENERGY PREDICTED BY IDOCK:   -6.20 KCAL/MOL
REMARK 922        TOTAL FREE ENERGY PREDICTED BY IDOCK:   -9.93 KCAL/MOL
REMARK 923 INTER-LIGAND FREE ENERGY PREDICTED BY IDOCK:   -8.65 KCAL/MOL
REMARK 924 INTRA-LIGAND FREE ENERGY PREDICTED BY IDOCK:   -1.28 KCAL/MOL
REMARK 927      BINDING AFFINITY PREDICTED BY RF-SCORE:    0.00 PKD
ROOT
HETATM    1  C   UNL     1     -10.144   6.997  73.744  1.00  0.00    -0.390 C  
HETATM    2  C   UNL     1     -10.301   7.971  72.620  1.00  0.00    -0.329 A  
HETATM    3  N   UNL     1      -9.242   8.241  71.852  1.00  0.00    -0.185 NA 
HETATM    4  C   UNL     1      -9.465   9.124  70.857  1.00  0.00    -0.276 A  
HETATM    5  C   UNL     1     -10.672   9.758  70.588  1.00  0.00    -0.326 A  
HETATM    6  C   UNL     1     -13.167   9.751  71.326  1.00  0.00    -0.452 C  
HETATM    7  C   UNL     1     -11.716   9.390  71.427  1.00  0.00    -0.378 A  
HETATM    8  N   UNL     1     -11.520   8.505  72.444  1.00  0.00    -0.370 NA 
ENDROOT
BRANCH   5   9
HETATM    9  O   UNL     1     -10.593  10.602  69.522  1.00  0.00    -0.227 OA 
BRANCH   9  10
HETATM   10  C   UNL     1     -11.409  10.343  68.387  1.00  0.00    -0.227 C  
BRANCH  10  11
HETATM   11  C   UNL     1     -10.561  10.425  67.109  1.00  0.00    -0.319 C  
HETATM   12  C   UNL     1      -9.872   9.129  66.615  1.00  0.00    -0.307 C  
HETATM   13  C   UNL     1      -9.081  10.186  67.348  1.00  0.00    -0.149 C  
BRANCH  11  14
HETATM   14  C   UNL     1     -11.015  11.443  66.021  1.00  0.00    -0.286 A  
HETATM   15  C   UNL     1     -10.600  11.349  64.670  1.00  0.00    -0.380 A  
HETATM   16  F   UNL     1     -13.197  14.362  65.639  1.00  0.00    -0.496 F  
HETATM   17  C   UNL     1     -11.055  12.224  63.673  1.00  0.00    -0.537 A  
HETATM   18  C   UNL     1     -11.895  12.505  66.304  1.00  0.00    -0.453 A  
HETATM   19  C   UNL     1     -12.348  13.379  65.313  1.00  0.00    -0.469 A  
HETATM   20  C   UNL     1     -11.943  13.244  63.996  1.00  0.00    -0.525 A  
ENDBRANCH  11  14
BRANCH  12  21
HETATM   21  C   UNL     1     -10.211   7.809  67.244  1.00  0.00    -0.273 C  
HETATM   22  N   UNL     1      -9.249   7.369  68.125  1.00  0.00    -0.134 N  
HETATM   23  H   UNL     1      -8.493   8.012  68.364  1.00  0.00     0.000 HD 
HETATM   24  O   UNL     1     -11.258   7.252  66.948  1.00  0.00    -0.176 OA 
BRANCH  22  25
HETATM   25  C   UNL     1      -9.238   6.099  68.717  1.00  0.00    -0.124 A  
HETATM   26  N   UNL     1     -10.055   5.828  69.754  1.00  0.00    -0.191 NA 
HETATM   27  C   UNL     1     -10.008   4.586  70.292  1.00  0.00    -0.218 A  
HETATM   28  C   UNL     1      -9.170   3.590  69.832  1.00  0.00    -0.147 A  
HETATM   29  C   UNL     1      -8.344   3.863  68.756  1.00  0.00    -0.087 A  
HETATM   30  F   UNL     1      -9.152   2.386  70.414  1.00  0.00    -0.124 F  
HETATM   31  C   UNL     1      -8.383   5.135  68.180  1.00  0.00    -0.097 A  
ENDBRANCH  22  25
ENDBRANCH  12  21
ENDBRANCH  10  11
ENDBRANCH   9  10
ENDBRANCH   5   9
TORSDOF 6
ENDMDL
MODEL       41
REMARK 921   NORMALIZED FREE ENERGY PREDICTED BY IDOCK:   -6.17 KCAL/MOL
REMARK 922        TOTAL FREE ENERGY PREDICTED BY IDOCK:   -9.88 KCAL/MOL
REMARK 923 INTER-LIGAND FREE ENERGY PREDICTED BY IDOCK:   -8.81 KCAL/MOL
REMARK 924 INTRA-LIGAND FREE ENERGY PREDICTED BY IDOCK:   -1.08 KCAL/MOL
REMARK 927      BINDING AFFINITY PREDICTED BY RF-SCORE:    0.00 PKD
ROOT
HETATM    1  C   UNL     1     -11.143  15.818  64.494  1.00  0.00    -0.293 C  
HETATM    2  C   UNL     1     -10.845  14.425  64.944  1.00  0.00    -0.416 A  
HETATM    3  N   UNL     1     -10.847  14.159  66.252  1.00  0.00    -0.297 NA 
HETATM    4  C   UNL     1     -10.575  12.878  66.578  1.00  0.00    -0.259 A  
HETATM    5  C   UNL     1     -10.293  11.853  65.683  1.00  0.00    -0.247 A  
HETATM    6  C   UNL     1     -10.246  11.356  63.130  1.00  0.00    -0.380 C  
HETATM    7  C   UNL     1     -10.341  12.227  64.346  1.00  0.00    -0.331 A  
HETATM    8  N   UNL     1     -10.608  13.514  63.986  1.00  0.00    -0.188 NA 
ENDROOT
BRANCH   5   9
HETATM    9  O   UNL     1     -10.053  10.667  66.306  1.00  0.00    -0.220 OA 
BRANCH   9  10
HETATM   10  C   UNL     1      -9.490  10.686  67.613  1.00  0.00    -0.153 C  
BRANCH  10  11
HETATM   11  C   UNL     1      -9.902   9.417  68.374  1.00  0.00    -0.177 C  
HETATM   12  C   UNL     1     -11.033   9.540  69.424  1.00  0.00    -0.192 C  
HETATM   13  C   UNL     1      -9.588   9.472  69.858  1.00  0.00    -0.250 C  
BRANCH  11  14
HETATM   14  C   UNL     1      -9.793   8.065  67.608  1.00  0.00    -0.214 A  
HETATM   15  C   UNL     1     -10.717   7.008  67.794  1.00  0.00    -0.300 A  
HETATM   16  F   UNL     1      -7.753   6.455  65.024  1.00  0.00    -0.075 F  
HETATM   17  C   UNL     1     -10.662   5.813  67.062  1.00  0.00    -0.369 A  
HETATM   18  C   UNL     1      -8.784   7.818  66.656  1.00  0.00    -0.151 A  
HETATM   19  C   UNL     1      -8.726   6.628  65.928  1.00  0.00    -0.137 A  
HETATM   20  C   UNL     1      -9.661   5.624  66.116  1.00  0.00    -0.142 A  
ENDBRANCH  11  14
BRANCH  12  21
HETATM   21  C   UNL     1     -11.834  10.805  69.524  1.00  0.00    -0.308 C  
HETATM   22  N   UNL     1     -11.564  11.526  70.665  1.00  0.00    -0.391 N  
HETATM   23  H   UNL     1     -10.783  11.222  71.246  1.00  0.00     0.000 HD 
HETATM   24  O   UNL     1     -12.623  11.089  68.634  1.00  0.00    -0.304 OA 
BRANCH  22  25
HETATM   25  C   UNL     1     -12.289  12.651  71.081  1.00  0.00    -0.145 A  
HETATM   26  N   UNL     1     -13.179  12.550  72.088  1.00  0.00    -0.467 NA 
HETATM   27  C   UNL     1     -13.855  13.664  72.453  1.00  0.00    -0.589 A  
HETATM   28  C   UNL     1     -13.676  14.893  71.851  1.00  0.00    -0.429 A  
HETATM   29  C   UNL     1     -12.747  15.002  70.830  1.00  0.00    -0.438 A  
HETATM   30  F   UNL     1     -14.384  15.958  72.241  1.00  0.00    -0.552 F  
HETATM   31  C   UNL     1     -12.033  13.866  70.443  1.00  0.00    -0.393 A  
ENDBRANCH  22  25
ENDBRANCH  12  21
ENDBRANCH  10  11
ENDBRANCH   9  10
ENDBRANCH   5   9
TORSDOF 6
ENDMDL
MODEL       42
REMARK 921   NORMALIZED FREE ENERGY PREDICTED BY IDOCK:   -6.16 KCAL/MOL
REMARK 922        TOTAL FREE ENERGY PREDICTED BY IDOCK:   -9.87 KCAL/MOL
REMARK 923 INTER-LIGAND FREE ENERGY PREDICTED BY IDOCK:   -8.53 KCAL/MOL
REMARK 924 INTRA-LIGAND FREE ENERGY PREDICTED BY IDOCK:   -1.33 KCAL/MOL
REMARK 927      BINDING AFFINITY PREDICTED BY RF-SCORE:    0.00 PKD
ROOT
HETATM    1  C   UNL     1      -8.440   6.560  65.700  1.00  0.00    -0.146 C  
HETATM    2  C   UNL     1      -9.241   7.634  66.362  1.00  0.00    -0.175 A  
HETATM    3  N   UNL     1      -9.645   7.450  67.622  1.00  0.00    -0.135 NA 
HETATM    4  C   UNL     1     -10.357   8.467  68.151  1.00  0.00    -0.204 A  
HETATM    5  C   UNL     1     -10.697   9.647  67.501  1.00  0.00    -0.256 A  
HETATM    6  C   UNL     1     -10.249  10.933  65.283  1.00  0.00    -0.351 C  
HETATM    7  C   UNL     1     -10.208   9.751  66.204  1.00  0.00    -0.208 A  
HETATM    8  N   UNL     1      -9.490   8.739  65.641  1.00  0.00    -0.163 NA 
ENDROOT
BRANCH   5   9
HETATM    9  O   UNL     1     -11.426  10.485  68.287  1.00  0.00    -0.296 OA 
BRANCH   9  10
HETATM   10  C   UNL     1     -10.964  10.757  69.604  1.00  0.00    -0.264 C  
BRANCH  10  11
HETATM   11  C   UNL     1     -12.162  10.989  70.537  1.00  0.00    -0.472 C  
HETATM   12  C   UNL     1     -12.470   9.907  71.600  1.00  0.00    -0.507 C  
HETATM   13  C   UNL     1     -13.289   9.992  70.334  1.00  0.00     0.165 C  
BRANCH  11  14
HETATM   14  C   UNL     1     -12.492  12.464  70.913  1.00  0.00    -0.367 A  
HETATM   15  C   UNL     1     -13.287  12.804  72.035  1.00  0.00    -0.565 A  
HETATM   16  F   UNL     1     -11.728  15.880  69.828  1.00  0.00    -0.295 F  
HETATM   17  C   UNL     1     -13.535  14.130  72.416  1.00  0.00    -0.616 A  
HETATM   18  C   UNL     1     -11.994  13.557  70.179  1.00  0.00    -0.399 A  
HETATM   19  C   UNL     1     -12.242  14.879  70.556  1.00  0.00    -0.329 A  
HETATM   20  C   UNL     1     -13.002  15.177  71.673  1.00  0.00    -0.454 A  
ENDBRANCH  11  14
BRANCH  12  21
HETATM   21  C   UNL     1     -11.495   8.792  71.845  1.00  0.00    -0.358 C  
HETATM   22  N   UNL     1     -11.961   7.567  71.423  1.00  0.00    -0.297 N  
HETATM   23  H   UNL     1     -12.827   7.547  70.884  1.00  0.00     0.000 HD 
HETATM   24  O   UNL     1     -10.419   9.038  72.368  1.00  0.00    -0.180 OA 
BRANCH  22  25
HETATM   25  C   UNL     1     -11.324   6.345  71.682  1.00  0.00    -0.289 A  
HETATM   26  N   UNL     1     -11.590   5.670  72.817  1.00  0.00    -0.280 NA 
HETATM   27  C   UNL     1     -10.949   4.495  73.023  1.00  0.00    -0.226 A  
HETATM   28  C   UNL     1     -10.045   3.956  72.130  1.00  0.00    -0.155 A  
HETATM   29  C   UNL     1      -9.786   4.641  70.954  1.00  0.00    -0.272 A  
HETATM   30  F   UNL     1      -9.427   2.800  72.393  1.00  0.00    -0.125 F  
HETATM   31  C   UNL     1     -10.443   5.851  70.719  1.00  0.00    -0.311 A  
ENDBRANCH  22  25
ENDBRANCH  12  21
ENDBRANCH  10  11
ENDBRANCH   9  10
ENDBRANCH   5   9
TORSDOF 6
ENDMDL
MODEL       43
REMARK 921   NORMALIZED FREE ENERGY PREDICTED BY IDOCK:   -6.15 KCAL/MOL
REMARK 922        TOTAL FREE ENERGY PREDICTED BY IDOCK:   -9.86 KCAL/MOL
REMARK 923 INTER-LIGAND FREE ENERGY PREDICTED BY IDOCK:   -9.03 KCAL/MOL
REMARK 924 INTRA-LIGAND FREE ENERGY PREDICTED BY IDOCK:   -0.83 KCAL/MOL
REMARK 927      BINDING AFFINITY PREDICTED BY RF-SCORE:    0.00 PKD
ROOT
HETATM    1  C   UNL     1      -9.369  10.125  62.755  1.00  0.00    -0.323 C  
HETATM    2  C   UNL     1      -9.800  11.179  63.724  1.00  0.00    -0.331 A  
HETATM    3  N   UNL     1     -10.726  12.062  63.341  1.00  0.00    -0.429 NA 
HETATM    4  C   UNL     1     -11.066  12.977  64.273  1.00  0.00    -0.385 A  
HETATM    5  C   UNL     1     -10.536  13.070  65.554  1.00  0.00    -0.285 A  
HETATM    6  C   UNL     1      -8.953  11.799  67.182  1.00  0.00    -0.177 C  
HETATM    7  C   UNL     1      -9.600  12.090  65.862  1.00  0.00    -0.223 A  
HETATM    8  N   UNL     1      -9.232  11.156  64.940  1.00  0.00    -0.191 NA 
ENDROOT
BRANCH   5   9
HETATM    9  O   UNL     1     -11.070  14.099  66.267  1.00  0.00    -0.310 OA 
BRANCH   9  10
HETATM   10  C   UNL     1     -12.038  13.804  67.267  1.00  0.00    -0.357 C  
BRANCH  10  11
HETATM   11  C   UNL     1     -11.531  14.281  68.636  1.00  0.00    -0.328 C  
HETATM   12  C   UNL     1     -11.472  13.245  69.785  1.00  0.00    -0.228 C  
HETATM   13  C   UNL     1     -12.595  14.252  69.719  1.00  0.00    -0.152 C  
BRANCH  11  14
HETATM   14  C   UNL     1     -10.453  15.404  68.641  1.00  0.00    -0.237 A  
HETATM   15  C   UNL     1      -9.070  15.131  68.781  1.00  0.00    -0.200 A  
HETATM   16  F   UNL     1     -10.175  19.036  68.237  1.00  0.00    -0.374 F  
HETATM   17  C   UNL     1      -8.088  16.131  68.723  1.00  0.00    -0.218 A  
HETATM   18  C   UNL     1     -10.781  16.763  68.471  1.00  0.00    -0.358 A  
HETATM   19  C   UNL     1      -9.804  17.761  68.415  1.00  0.00    -0.347 A  
HETATM   20  C   UNL     1      -8.459  17.457  68.531  1.00  0.00    -0.274 A  
ENDBRANCH  11  14
BRANCH  12  21
HETATM   21  C   UNL     1     -11.691  11.788  69.498  1.00  0.00    -0.343 C  
HETATM   22  N   UNL     1     -11.254  10.966  70.513  1.00  0.00    -0.436 N  
HETATM   23  H   UNL     1     -10.959  11.404  71.385  1.00  0.00     0.000 HD 
HETATM   24  O   UNL     1     -12.214  11.454  68.445  1.00  0.00    -0.571 OA 
BRANCH  22  25
HETATM   25  C   UNL     1     -11.188   9.569  70.428  1.00  0.00    -0.270 A  
HETATM   26  N   UNL     1     -11.996   8.806  71.190  1.00  0.00    -0.292 NA 
HETATM   27  C   UNL     1     -11.894   7.460  71.074  1.00  0.00    -0.307 A  
HETATM   28  C   UNL     1     -11.012   6.837  70.215  1.00  0.00    -0.291 A  
HETATM   29  C   UNL     1     -10.195   7.621  69.419  1.00  0.00    -0.206 A  
HETATM   30  F   UNL     1     -10.941   5.503  70.154  1.00  0.00    -0.372 F  
HETATM   31  C   UNL     1     -10.290   9.011  69.518  1.00  0.00    -0.211 A  
ENDBRANCH  22  25
ENDBRANCH  12  21
ENDBRANCH  10  11
ENDBRANCH   9  10
ENDBRANCH   5   9
TORSDOF 6
ENDMDL
MODEL       44
REMARK 921   NORMALIZED FREE ENERGY PREDICTED BY IDOCK:   -6.14 KCAL/MOL
REMARK 922        TOTAL FREE ENERGY PREDICTED BY IDOCK:   -9.85 KCAL/MOL
REMARK 923 INTER-LIGAND FREE ENERGY PREDICTED BY IDOCK:   -8.59 KCAL/MOL
REMARK 924 INTRA-LIGAND FREE ENERGY PREDICTED BY IDOCK:   -1.26 KCAL/MOL
REMARK 927      BINDING AFFINITY PREDICTED BY RF-SCORE:    0.00 PKD
ROOT
HETATM    1  C   UNL     1      -8.070   8.840  67.678  1.00  0.00    -0.106 C  
HETATM    2  C   UNL     1      -8.253  10.323  67.634  1.00  0.00    -0.114 A  
HETATM    3  N   UNL     1      -9.258  10.825  66.912  1.00  0.00    -0.155 NA 
HETATM    4  C   UNL     1      -9.360  12.170  66.927  1.00  0.00    -0.203 A  
HETATM    5  C   UNL     1      -8.520  13.042  67.608  1.00  0.00    -0.187 A  
HETATM    6  C   UNL     1      -6.555  13.036  69.314  1.00  0.00    -0.089 C  
HETATM    7  C   UNL     1      -7.523  12.420  68.349  1.00  0.00    -0.123 A  
HETATM    8  N   UNL     1      -7.391  11.064  68.350  1.00  0.00    -0.090 NA 
ENDROOT
BRANCH   5   9
HETATM    9  O   UNL     1      -8.867  14.347  67.431  1.00  0.00    -0.182 OA 
BRANCH   9  10
HETATM   10  C   UNL     1      -9.294  15.096  68.562  1.00  0.00    -0.192 C  
BRANCH  10  11
HETATM   11  C   UNL     1     -10.599  15.836  68.231  1.00  0.00    -0.271 C  
HETATM   12  C   UNL     1     -11.909  15.308  68.865  1.00  0.00    -0.344 C  
HETATM   13  C   UNL     1     -11.578  15.004  67.423  1.00  0.00    -0.304 C  
BRANCH  11  14
HETATM   14  C   UNL     1     -10.501  17.371  67.986  1.00  0.00    -0.383 A  
HETATM   15  C   UNL     1     -10.064  18.275  68.986  1.00  0.00    -0.283 A  
HETATM   16  F   UNL     1     -10.955  19.823  65.301  1.00  0.00    -0.581 F  
HETATM   17  C   UNL     1      -9.913  19.650  68.753  1.00  0.00    -0.542 A  
HETATM   18  C   UNL     1     -10.809  17.956  66.743  1.00  0.00    -0.025 A  
HETATM   19  C   UNL     1     -10.661  19.325  66.510  1.00  0.00    -0.446 A  
HETATM   20  C   UNL     1     -10.208  20.178  67.501  1.00  0.00    -0.520 A  
ENDBRANCH  11  14
BRANCH  12  21
HETATM   21  C   UNL     1     -11.859  14.254  69.932  1.00  0.00    -0.322 C  
HETATM   22  N   UNL     1     -11.971  12.975  69.433  1.00  0.00    -0.303 N  
HETATM   23  H   UNL     1     -11.944  12.856  68.421  1.00  0.00     0.000 HD 
HETATM   24  O   UNL     1     -11.726  14.587  71.100  1.00  0.00    -0.314 OA 
BRANCH  22  25
HETATM   25  C   UNL     1     -12.121  11.827  70.223  1.00  0.00    -0.342 A  
HETATM   26  N   UNL     1     -13.054  11.789  71.194  1.00  0.00    -0.166 NA 
HETATM   27  C   UNL     1     -13.159  10.658  71.931  1.00  0.00    -0.458 A  
HETATM   28  C   UNL     1     -12.364   9.547  71.734  1.00  0.00    -0.394 A  
HETATM   29  C   UNL     1     -11.417   9.579  70.724  1.00  0.00    -0.378 A  
HETATM   30  F   UNL     1     -12.499   8.462  72.504  1.00  0.00    -0.384 F  
HETATM   31  C   UNL     1     -11.298  10.733  69.947  1.00  0.00    -0.385 A  
ENDBRANCH  22  25
ENDBRANCH  12  21
ENDBRANCH  10  11
ENDBRANCH   9  10
ENDBRANCH   5   9
TORSDOF 6
ENDMDL
MODEL       45
REMARK 921   NORMALIZED FREE ENERGY PREDICTED BY IDOCK:   -6.12 KCAL/MOL
REMARK 922        TOTAL FREE ENERGY PREDICTED BY IDOCK:   -9.81 KCAL/MOL
REMARK 923 INTER-LIGAND FREE ENERGY PREDICTED BY IDOCK:   -8.41 KCAL/MOL
REMARK 924 INTRA-LIGAND FREE ENERGY PREDICTED BY IDOCK:   -1.40 KCAL/MOL
REMARK 927      BINDING AFFINITY PREDICTED BY RF-SCORE:    0.00 PKD
ROOT
HETATM    1  C   UNL     1     -13.947   8.755  72.583  1.00  0.00    -0.337 C  
HETATM    2  C   UNL     1     -12.892   9.357  71.711  1.00  0.00    -0.399 A  
HETATM    3  N   UNL     1     -13.241  10.323  70.857  1.00  0.00    -0.362 NA 
HETATM    4  C   UNL     1     -12.233  10.819  70.110  1.00  0.00    -0.346 A  
HETATM    5  C   UNL     1     -10.907  10.408  70.156  1.00  0.00    -0.271 A  
HETATM    6  C   UNL     1      -9.318   8.860  71.517  1.00  0.00    -0.335 C  
HETATM    7  C   UNL     1     -10.643   9.417  71.095  1.00  0.00    -0.333 A  
HETATM    8  N   UNL     1     -11.641   8.892  71.860  1.00  0.00    -0.354 NA 
ENDROOT
BRANCH   5   9
HETATM    9  O   UNL     1     -10.117  11.088  69.281  1.00  0.00    -0.189 OA 
BRANCH   9  10
HETATM   10  C   UNL     1     -10.555  11.225  67.934  1.00  0.00    -0.194 C  
BRANCH  10  11
HETATM   11  C   UNL     1      -9.560  12.093  67.151  1.00  0.00    -0.195 C  
HETATM   12  C   UNL     1      -9.846  13.612  67.054  1.00  0.00    -0.251 C  
HETATM   13  C   UNL     1     -10.147  12.699  65.889  1.00  0.00    -0.276 C  
BRANCH  11  14
HETATM   14  C   UNL     1      -8.065  11.656  67.176  1.00  0.00    -0.166 A  
HETATM   15  C   UNL     1      -7.022  12.533  67.562  1.00  0.00    -0.149 A  
HETATM   16  F   UNL     1      -5.996   8.683  66.620  1.00  0.00    -0.048 F  
HETATM   17  C   UNL     1      -5.682  12.128  67.649  1.00  0.00    -0.101 A  
HETATM   18  C   UNL     1      -7.658  10.349  66.848  1.00  0.00    -0.107 A  
HETATM   19  C   UNL     1      -6.323   9.944  66.931  1.00  0.00    -0.065 A  
HETATM   20  C   UNL     1      -5.331  10.820  67.336  1.00  0.00    -0.040 A  
ENDBRANCH  11  14
BRANCH  12  21
HETATM   21  C   UNL     1     -10.934  14.227  67.884  1.00  0.00    -0.267 C  
HETATM   22  N   UNL     1     -10.592  14.356  69.212  1.00  0.00    -0.364 N  
HETATM   23  H   UNL     1      -9.627  14.157  69.476  1.00  0.00     0.000 HD 
HETATM   24  O   UNL     1     -11.985  14.554  67.353  1.00  0.00    -0.394 OA 
BRANCH  22  25
HETATM   25  C   UNL     1     -11.480  14.743  70.225  1.00  0.00    -0.260 A  
HETATM   26  N   UNL     1     -12.564  13.991  70.499  1.00  0.00    -0.341 NA 
HETATM   27  C   UNL     1     -13.392  14.407  71.487  1.00  0.00    -0.355 A  
HETATM   28  C   UNL     1     -13.181  15.555  72.223  1.00  0.00    -0.448 A  
HETATM   29  C   UNL     1     -12.057  16.318  71.953  1.00  0.00    -0.447 A  
HETATM   30  F   UNL     1     -14.042  15.928  73.175  1.00  0.00    -0.628 F  
HETATM   31  C   UNL     1     -11.185  15.902  70.945  1.00  0.00    -0.389 A  
ENDBRANCH  22  25
ENDBRANCH  12  21
ENDBRANCH  10  11
ENDBRANCH   9  10
ENDBRANCH   5   9
TORSDOF 6
ENDMDL
MODEL       46
REMARK 921   NORMALIZED FREE ENERGY PREDICTED BY IDOCK:   -6.10 KCAL/MOL
REMARK 922        TOTAL FREE ENERGY PREDICTED BY IDOCK:   -9.79 KCAL/MOL
REMARK 923 INTER-LIGAND FREE ENERGY PREDICTED BY IDOCK:   -8.79 KCAL/MOL
REMARK 924 INTRA-LIGAND FREE ENERGY PREDICTED BY IDOCK:   -1.00 KCAL/MOL
REMARK 927      BINDING AFFINITY PREDICTED BY RF-SCORE:    0.00 PKD
ROOT
HETATM    1  C   UNL     1     -11.274  16.201  68.846  1.00  0.00    -0.351 C  
HETATM    2  C   UNL     1     -10.741  14.812  68.693  1.00  0.00    -0.253 A  
HETATM    3  N   UNL     1      -9.527  14.646  68.163  1.00  0.00    -0.206 NA 
HETATM    4  C   UNL     1      -9.114  13.365  68.064  1.00  0.00    -0.205 A  
HETATM    5  C   UNL     1      -9.839  12.245  68.450  1.00  0.00    -0.199 A  
HETATM    6  C   UNL     1     -12.040  11.585  69.672  1.00  0.00    -0.363 C  
HETATM    7  C   UNL     1     -11.079  12.526  69.012  1.00  0.00    -0.234 A  
HETATM    8  N   UNL     1     -11.525  13.810  69.121  1.00  0.00    -0.279 NA 
ENDROOT
BRANCH   5   9
HETATM    9  O   UNL     1      -9.167  11.083  68.223  1.00  0.00    -0.152 OA 
BRANCH   9  10
HETATM   10  C   UNL     1      -8.496  10.917  66.979  1.00  0.00    -0.134 C  
BRANCH  10  11
HETATM   11  C   UNL     1      -9.418  10.196  65.985  1.00  0.00    -0.248 C  
HETATM   12  C   UNL     1      -9.906   8.774  66.353  1.00  0.00    -0.352 C  
HETATM   13  C   UNL     1      -8.788   8.967  65.357  1.00  0.00    -0.234 C  
BRANCH  11  14
HETATM   14  C   UNL     1     -10.389  11.082  65.149  1.00  0.00    -0.346 A  
HETATM   15  C   UNL     1     -10.345  11.132  63.734  1.00  0.00    -0.447 A  
HETATM   16  F   UNL     1     -13.250  13.325  65.610  1.00  0.00    -0.377 F  
HETATM   17  C   UNL     1     -11.257  11.878  62.971  1.00  0.00    -0.060 A  
HETATM   18  C   UNL     1     -11.396  11.865  65.745  1.00  0.00    -0.354 A  
HETATM   19  C   UNL     1     -12.303  12.610  64.988  1.00  0.00    -0.497 A  
HETATM   20  C   UNL     1     -12.249  12.618  63.605  1.00  0.00    -0.624 A  
ENDBRANCH  11  14
BRANCH  12  21
HETATM   21  C   UNL     1      -9.661   8.226  67.728  1.00  0.00    -0.148 C  
HETATM   22  N   UNL     1     -10.748   8.356  68.563  1.00  0.00    -0.415 N  
HETATM   23  H   UNL     1     -11.626   8.675  68.154  1.00  0.00     0.000 HD 
HETATM   24  O   UNL     1      -8.576   7.728  67.993  1.00  0.00    -0.123 OA 
BRANCH  22  25
HETATM   25  C   UNL     1     -10.729   8.081  69.937  1.00  0.00    -0.242 A  
HETATM   26  N   UNL     1     -11.423   7.035  70.428  1.00  0.00    -0.311 NA 
HETATM   27  C   UNL     1     -11.375   6.810  71.762  1.00  0.00    -0.269 A  
HETATM   28  C   UNL     1     -10.651   7.592  72.639  1.00  0.00    -0.299 A  
HETATM   29  C   UNL     1      -9.923   8.656  72.133  1.00  0.00    -0.386 A  
HETATM   30  F   UNL     1     -10.654   7.334  73.951  1.00  0.00    -0.402 F  
HETATM   31  C   UNL     1      -9.953   8.900  70.758  1.00  0.00    -0.282 A  
ENDBRANCH  22  25
ENDBRANCH  12  21
ENDBRANCH  10  11
ENDBRANCH   9  10
ENDBRANCH   5   9
TORSDOF 6
ENDMDL
MODEL       47
REMARK 921   NORMALIZED FREE ENERGY PREDICTED BY IDOCK:   -6.08 KCAL/MOL
REMARK 922        TOTAL FREE ENERGY PREDICTED BY IDOCK:   -9.75 KCAL/MOL
REMARK 923 INTER-LIGAND FREE ENERGY PREDICTED BY IDOCK:   -8.40 KCAL/MOL
REMARK 924 INTRA-LIGAND FREE ENERGY PREDICTED BY IDOCK:   -1.36 KCAL/MOL
REMARK 927      BINDING AFFINITY PREDICTED BY RF-SCORE:    0.00 PKD
ROOT
HETATM    1  C   UNL     1     -10.369   6.704  73.898  1.00  0.00    -0.385 C  
HETATM    2  C   UNL     1     -10.624   7.729  72.840  1.00  0.00    -0.366 A  
HETATM    3  N   UNL     1      -9.600   8.148  72.092  1.00  0.00    -0.216 NA 
HETATM    4  C   UNL     1      -9.911   9.068  71.156  1.00  0.00    -0.295 A  
HETATM    5  C   UNL     1     -11.175   9.600  70.927  1.00  0.00    -0.352 A  
HETATM    6  C   UNL     1     -13.654   9.307  71.661  1.00  0.00    -0.448 C  
HETATM    7  C   UNL     1     -12.174   9.081  71.740  1.00  0.00    -0.364 A  
HETATM    8  N   UNL     1     -11.890   8.154  72.698  1.00  0.00    -0.381 NA 
ENDROOT
BRANCH   5   9
HETATM    9  O   UNL     1     -11.181  10.515  69.919  1.00  0.00    -0.263 OA 
BRANCH   9  10
HETATM   10  C   UNL     1     -11.205  10.047  68.576  1.00  0.00    -0.123 C  
BRANCH  10  11
HETATM   11  C   UNL     1     -10.398  10.998  67.681  1.00  0.00    -0.223 C  
HETATM   12  C   UNL     1      -9.100  10.455  67.035  1.00  0.00    -0.153 C  
HETATM   13  C   UNL     1      -9.035  11.353  68.248  1.00  0.00    -0.175 C  
BRANCH  11  14
HETATM   14  C   UNL     1     -11.199  12.060  66.870  1.00  0.00    -0.375 A  
HETATM   15  C   UNL     1     -11.619  13.290  67.434  1.00  0.00    -0.396 A  
HETATM   16  F   UNL     1     -12.469  12.639  63.482  1.00  0.00    -0.516 F  
HETATM   17  C   UNL     1     -12.285  14.277  66.693  1.00  0.00    -0.411 A  
HETATM   18  C   UNL     1     -11.529  11.879  65.513  1.00  0.00    -0.311 A  
HETATM   19  C   UNL     1     -12.194  12.861  64.774  1.00  0.00    -0.445 A  
HETATM   20  C   UNL     1     -12.569  14.063  65.349  1.00  0.00    -0.529 A  
ENDBRANCH  11  14
BRANCH  12  21
HETATM   21  C   UNL     1      -8.776   8.992  67.110  1.00  0.00    -0.116 C  
HETATM   22  N   UNL     1      -9.428   8.245  66.154  1.00  0.00    -0.354 N  
HETATM   23  H   UNL     1      -9.942   8.746  65.429  1.00  0.00     0.000 HD 
HETATM   24  O   UNL     1      -7.999   8.590  67.964  1.00  0.00    -0.109 OA 
BRANCH  22  25
HETATM   25  C   UNL     1      -9.432   6.845  66.109  1.00  0.00     0.001 A  
HETATM   26  N   UNL     1      -8.436   6.184  65.487  1.00  0.00    -0.150 NA 
HETATM   27  C   UNL     1      -8.485   4.831  65.470  1.00  0.00    -0.127 A  
HETATM   28  C   UNL     1      -9.498   4.099  66.058  1.00  0.00    -0.180 A  
HETATM   29  C   UNL     1     -10.511   4.778  66.713  1.00  0.00    -0.180 A  
HETATM   30  F   UNL     1      -9.505   2.764  65.995  1.00  0.00    -0.140 F  
HETATM   31  C   UNL     1     -10.475   6.174  66.750  1.00  0.00    -0.316 A  
ENDBRANCH  22  25
ENDBRANCH  12  21
ENDBRANCH  10  11
ENDBRANCH   9  10
ENDBRANCH   5   9
TORSDOF 6
ENDMDL
MODEL       48
REMARK 921   NORMALIZED FREE ENERGY PREDICTED BY IDOCK:   -6.07 KCAL/MOL
REMARK 922        TOTAL FREE ENERGY PREDICTED BY IDOCK:   -9.75 KCAL/MOL
REMARK 923 INTER-LIGAND FREE ENERGY PREDICTED BY IDOCK:   -8.61 KCAL/MOL
REMARK 924 INTRA-LIGAND FREE ENERGY PREDICTED BY IDOCK:   -1.14 KCAL/MOL
REMARK 927      BINDING AFFINITY PREDICTED BY RF-SCORE:    0.00 PKD
ROOT
HETATM    1  C   UNL     1      -8.145   8.699  64.509  1.00  0.00    -0.162 C  
HETATM    2  C   UNL     1      -8.763   9.462  65.637  1.00  0.00    -0.154 A  
HETATM    3  N   UNL     1      -9.827   8.943  66.255  1.00  0.00    -0.282 NA 
HETATM    4  C   UNL     1     -10.323   9.688  67.265  1.00  0.00    -0.249 A  
HETATM    5  C   UNL     1      -9.831  10.917  67.688  1.00  0.00    -0.171 A  
HETATM    6  C   UNL     1      -7.838  12.542  67.287  1.00  0.00    -0.160 C  
HETATM    7  C   UNL     1      -8.709  11.356  66.997  1.00  0.00    -0.160 A  
HETATM    8  N   UNL     1      -8.187  10.629  65.969  1.00  0.00    -0.154 NA 
ENDROOT
BRANCH   5   9
HETATM    9  O   UNL     1     -10.542  11.435  68.727  1.00  0.00    -0.191 OA 
BRANCH   9  10
HETATM   10  C   UNL     1     -11.893  11.024  68.899  1.00  0.00    -0.308 C  
BRANCH  10  11
HETATM   11  C   UNL     1     -12.349  11.330  70.334  1.00  0.00    -0.415 C  
HETATM   12  C   UNL     1     -11.986  10.308  71.439  1.00  0.00    -0.419 C  
HETATM   13  C   UNL     1     -13.381  10.350  70.862  1.00  0.00    -0.199 C  
BRANCH  11  14
HETATM   14  C   UNL     1     -12.419  12.828  70.751  1.00  0.00    -0.357 A  
HETATM   15  C   UNL     1     -12.142  13.884  69.848  1.00  0.00    -0.406 A  
HETATM   16  F   UNL     1     -13.290  14.902  73.644  1.00  0.00    -0.498 F  
HETATM   17  C   UNL     1     -12.265  15.236  70.200  1.00  0.00    -0.402 A  
HETATM   18  C   UNL     1     -12.794  13.232  72.048  1.00  0.00    -0.313 A  
HETATM   19  C   UNL     1     -12.915  14.578  72.400  1.00  0.00    -0.386 A  
HETATM   20  C   UNL     1     -12.661  15.586  71.486  1.00  0.00    -0.501 A  
ENDBRANCH  11  14
BRANCH  12  21
HETATM   21  C   UNL     1     -11.036   9.184  71.144  1.00  0.00    -0.320 C  
HETATM   22  N   UNL     1     -11.673   8.026  70.759  1.00  0.00    -0.405 N  
HETATM   23  H   UNL     1     -12.677   8.072  70.584  1.00  0.00     0.000 HD 
HETATM   24  O   UNL     1      -9.833   9.368  71.258  1.00  0.00    -0.275 OA 
BRANCH  22  25
HETATM   25  C   UNL     1     -11.036   6.790  70.588  1.00  0.00    -0.291 A  
HETATM   26  N   UNL     1     -10.733   6.031  71.659  1.00  0.00    -0.243 NA 
HETATM   27  C   UNL     1     -10.117   4.845  71.443  1.00  0.00    -0.198 A  
HETATM   28  C   UNL     1      -9.789   4.376  70.187  1.00  0.00    -0.217 A  
HETATM   29  C   UNL     1     -10.117   5.148  69.085  1.00  0.00    -0.274 A  
HETATM   30  F   UNL     1      -9.163   3.204  70.034  1.00  0.00    -0.155 F  
HETATM   31  C   UNL     1     -10.761   6.371  69.286  1.00  0.00    -0.349 A  
ENDBRANCH  22  25
ENDBRANCH  12  21
ENDBRANCH  10  11
ENDBRANCH   9  10
ENDBRANCH   5   9
TORSDOF 6
ENDMDL
MODEL       49
REMARK 921   NORMALIZED FREE ENERGY PREDICTED BY IDOCK:   -6.07 KCAL/MOL
REMARK 922        TOTAL FREE ENERGY PREDICTED BY IDOCK:   -9.74 KCAL/MOL
REMARK 923 INTER-LIGAND FREE ENERGY PREDICTED BY IDOCK:   -8.12 KCAL/MOL
REMARK 924 INTRA-LIGAND FREE ENERGY PREDICTED BY IDOCK:   -1.63 KCAL/MOL
REMARK 927      BINDING AFFINITY PREDICTED BY RF-SCORE:    0.00 PKD
ROOT
HETATM    1  C   UNL     1     -12.280  15.567  69.940  1.00  0.00    -0.351 C  
HETATM    2  C   UNL     1     -12.052  14.233  69.305  1.00  0.00    -0.313 A  
HETATM    3  N   UNL     1     -11.835  13.177  70.093  1.00  0.00    -0.295 NA 
HETATM    4  C   UNL     1     -11.645  12.008  69.446  1.00  0.00    -0.330 A  
HETATM    5  C   UNL     1     -11.648  11.831  68.068  1.00  0.00    -0.316 A  
HETATM    6  C   UNL     1     -12.137  13.127  65.865  1.00  0.00    -0.501 C  
HETATM    7  C   UNL     1     -11.907  12.986  67.340  1.00  0.00    -0.357 A  
HETATM    8  N   UNL     1     -12.099  14.182  67.964  1.00  0.00    -0.327 NA 
ENDROOT
BRANCH   5   9
HETATM    9  O   UNL     1     -11.421  10.538  67.707  1.00  0.00    -0.443 OA 
BRANCH   9  10
HETATM   10  C   UNL     1     -10.168  10.205  67.121  1.00  0.00    -0.225 C  
BRANCH  10  11
HETATM   11  C   UNL     1      -9.207   9.699  68.207  1.00  0.00    -0.131 C  
HETATM   12  C   UNL     1      -7.940  10.540  68.499  1.00  0.00    -0.118 C  
HETATM   13  C   UNL     1      -7.850   9.282  67.668  1.00  0.00    -0.096 C  
BRANCH  11  14
HETATM   14  C   UNL     1      -9.835   8.927  69.405  1.00  0.00    -0.183 A  
HETATM   15  C   UNL     1      -9.808   9.426  70.730  1.00  0.00    -0.348 A  
HETATM   16  F   UNL     1     -11.744   5.876  70.092  1.00  0.00    -0.378 F  
HETATM   17  C   UNL     1     -10.427   8.767  71.803  1.00  0.00    -0.417 A  
HETATM   18  C   UNL     1     -10.499   7.696  69.242  1.00  0.00    -0.220 A  
HETATM   19  C   UNL     1     -11.113   7.037  70.310  1.00  0.00    -0.285 A  
HETATM   20  C   UNL     1     -11.091   7.565  71.589  1.00  0.00    -0.270 A  
ENDBRANCH  11  14
BRANCH  12  21
HETATM   21  C   UNL     1      -7.786  11.905  67.895  1.00  0.00    -0.138 C  
HETATM   22  N   UNL     1      -8.362  12.899  68.655  1.00  0.00    -0.344 N  
HETATM   23  H   UNL     1      -8.706  12.649  69.582  1.00  0.00     0.000 HD 
HETATM   24  O   UNL     1      -7.192  12.030  66.834  1.00  0.00    -0.125 OA 
BRANCH  22  25
HETATM   25  C   UNL     1      -8.506  14.230  68.241  1.00  0.00    -0.167 A  
HETATM   26  N   UNL     1      -8.843  14.510  66.967  1.00  0.00    -0.227 NA 
HETATM   27  C   UNL     1      -8.970  15.811  66.615  1.00  0.00    -0.280 A  
HETATM   28  C   UNL     1      -8.773  16.859  67.492  1.00  0.00    -0.208 A  
HETATM   29  C   UNL     1      -8.444  16.570  68.806  1.00  0.00    -0.248 A  
HETATM   30  F   UNL     1      -8.894  18.127  67.085  1.00  0.00    -0.243 F  
HETATM   31  C   UNL     1      -8.318  15.234  69.192  1.00  0.00    -0.233 A  
ENDBRANCH  22  25
ENDBRANCH  12  21
ENDBRANCH  10  11
ENDBRANCH   9  10
ENDBRANCH   5   9
TORSDOF 6
ENDMDL
MODEL       50
REMARK 921   NORMALIZED FREE ENERGY PREDICTED BY IDOCK:   -6.04 KCAL/MOL
REMARK 922        TOTAL FREE ENERGY PREDICTED BY IDOCK:   -9.71 KCAL/MOL
REMARK 923 INTER-LIGAND FREE ENERGY PREDICTED BY IDOCK:   -9.15 KCAL/MOL
REMARK 924 INTRA-LIGAND FREE ENERGY PREDICTED BY IDOCK:   -0.56 KCAL/MOL
REMARK 927      BINDING AFFINITY PREDICTED BY RF-SCORE:    0.00 PKD
ROOT
HETATM    1  C   UNL     1     -10.308  10.711  65.283  1.00  0.00    -0.321 C  
HETATM    2  C   UNL     1      -9.796  12.011  65.813  1.00  0.00    -0.242 A  
HETATM    3  N   UNL     1     -10.302  13.147  65.327  1.00  0.00    -0.301 NA 
HETATM    4  C   UNL     1      -9.793  14.277  65.859  1.00  0.00    -0.298 A  
HETATM    5  C   UNL     1      -8.808  14.344  66.837  1.00  0.00    -0.223 A  
HETATM    6  C   UNL     1      -7.441  12.812  68.436  1.00  0.00    -0.124 C  
HETATM    7  C   UNL     1      -8.366  13.108  67.294  1.00  0.00    -0.179 A  
HETATM    8  N   UNL     1      -8.857  11.949  66.772  1.00  0.00    -0.190 NA 
ENDROOT
BRANCH   5   9
HETATM    9  O   UNL     1      -8.492  15.624  67.174  1.00  0.00    -0.175 OA 
BRANCH   9  10
HETATM   10  C   UNL     1      -9.245  16.685  66.599  1.00  0.00    -0.253 C  
BRANCH  10  11
HETATM   11  C   UNL     1      -9.209  17.908  67.527  1.00  0.00    -0.249 C  
HETATM   12  C   UNL     1     -10.273  17.995  68.649  1.00  0.00    -0.385 C  
HETATM   13  C   UNL     1     -10.422  18.811  67.387  1.00  0.00    -0.490 C  
BRANCH  11  14
HETATM   14  C   UNL     1      -7.813  18.530  67.827  1.00  0.00    -0.257 A  
HETATM   15  C   UNL     1      -6.748  18.497  66.894  1.00  0.00    -0.205 A  
HETATM   16  F   UNL     1      -6.087  20.434  70.439  1.00  0.00    -0.366 F  
HETATM   17  C   UNL     1      -5.509  19.109  67.132  1.00  0.00    -0.160 A  
HETATM   18  C   UNL     1      -7.529  19.194  69.036  1.00  0.00    -0.353 A  
HETATM   19  C   UNL     1      -6.295  19.803  69.276  1.00  0.00    -0.326 A  
HETATM   20  C   UNL     1      -5.283  19.774  68.332  1.00  0.00    -0.204 A  
ENDBRANCH  11  14
BRANCH  12  21
HETATM   21  C   UNL     1     -11.154  16.817  68.944  1.00  0.00    -0.194 C  
HETATM   22  N   UNL     1     -11.288  16.567  70.292  1.00  0.00    -0.463 N  
HETATM   23  H   UNL     1     -10.905  17.253  70.943  1.00  0.00     0.000 HD 
HETATM   24  O   UNL     1     -11.664  16.200  68.020  1.00  0.00    -0.164 OA 
BRANCH  22  25
HETATM   25  C   UNL     1     -11.915  15.435  70.829  1.00  0.00    -0.359 A  
HETATM   26  N   UNL     1     -11.665  14.214  70.317  1.00  0.00    -0.276 NA 
HETATM   27  C   UNL     1     -12.295  13.151  70.870  1.00  0.00    -0.307 A  
HETATM   28  C   UNL     1     -13.174  13.256  71.929  1.00  0.00    -0.431 A  
HETATM   29  C   UNL     1     -13.416  14.508  72.468  1.00  0.00    -0.580 A  
HETATM   30  F   UNL     1     -13.783  12.173  72.425  1.00  0.00    -0.561 F  
HETATM   31  C   UNL     1     -12.770  15.617  71.918  1.00  0.00    -0.513 A  
ENDBRANCH  22  25
ENDBRANCH  12  21
ENDBRANCH  10  11
ENDBRANCH   9  10
ENDBRANCH   5   9
TORSDOF 6
ENDMDL
MODEL       51
REMARK 921   NORMALIZED FREE ENERGY PREDICTED BY IDOCK:   -6.04 KCAL/MOL
REMARK 922        TOTAL FREE ENERGY PREDICTED BY IDOCK:   -9.71 KCAL/MOL
REMARK 923 INTER-LIGAND FREE ENERGY PREDICTED BY IDOCK:   -9.05 KCAL/MOL
REMARK 924 INTRA-LIGAND FREE ENERGY PREDICTED BY IDOCK:   -0.66 KCAL/MOL
REMARK 927      BINDING AFFINITY PREDICTED BY RF-SCORE:    0.00 PKD
ROOT
HETATM    1  C   UNL     1     -13.975  13.584  72.331  1.00  0.00    -0.638 C  
HETATM    2  C   UNL     1     -12.882  13.952  71.380  1.00  0.00    -0.361 A  
HETATM    3  N   UNL     1     -12.330  15.164  71.476  1.00  0.00    -0.317 NA 
HETATM    4  C   UNL     1     -11.347  15.419  70.588  1.00  0.00    -0.332 A  
HETATM    5  C   UNL     1     -10.888  14.546  69.609  1.00  0.00    -0.151 A  
HETATM    6  C   UNL     1     -11.162  12.085  68.808  1.00  0.00    -0.316 C  
HETATM    7  C   UNL     1     -11.510  13.303  69.609  1.00  0.00    -0.198 A  
HETATM    8  N   UNL     1     -12.509  13.018  70.491  1.00  0.00    -0.276 NA 
ENDROOT
BRANCH   5   9
HETATM    9  O   UNL     1      -9.890  15.083  68.856  1.00  0.00    -0.219 OA 
BRANCH   9  10
HETATM   10  C   UNL     1      -9.508  14.417  67.657  1.00  0.00    -0.214 C  
BRANCH  10  11
HETATM   11  C   UNL     1     -10.373  14.916  66.490  1.00  0.00    -0.295 C  
HETATM   12  C   UNL     1     -10.066  16.320  65.913  1.00  0.00    -0.381 C  
HETATM   13  C   UNL     1     -11.236  16.113  66.844  1.00  0.00     0.128 C  
BRANCH  11  14
HETATM   14  C   UNL     1     -10.907  13.844  65.494  1.00  0.00    -0.306 A  
HETATM   15  C   UNL     1     -11.662  14.182  64.344  1.00  0.00    -0.409 A  
HETATM   16  F   UNL     1     -10.781  10.226  64.927  1.00  0.00    -0.290 F  
HETATM   17  C   UNL     1     -12.091  13.228  63.410  1.00  0.00    -0.508 A  
HETATM   18  C   UNL     1     -10.644  12.470  65.656  1.00  0.00    -0.298 A  
HETATM   19  C   UNL     1     -11.073  11.518  64.728  1.00  0.00    -0.233 A  
HETATM   20  C   UNL     1     -11.788  11.885  63.601  1.00  0.00    -0.573 A  
ENDBRANCH  11  14
BRANCH  12  21
HETATM   21  C   UNL     1      -8.830  17.056  66.339  1.00  0.00    -0.278 C  
HETATM   22  N   UNL     1      -9.027  17.843  67.452  1.00  0.00    -0.243 N  
HETATM   23  H   UNL     1      -9.916  17.756  67.944  1.00  0.00     0.000 HD 
HETATM   24  O   UNL     1      -7.794  16.910  65.707  1.00  0.00    -0.328 OA 
BRANCH  22  25
HETATM   25  C   UNL     1      -8.089  18.756  67.953  1.00  0.00    -0.261 A  
HETATM   26  N   UNL     1      -7.972  19.979  67.401  1.00  0.00    -0.294 NA 
HETATM   27  C   UNL     1      -7.051  20.825  67.920  1.00  0.00    -0.209 A  
HETATM   28  C   UNL     1      -6.234  20.499  68.984  1.00  0.00    -0.295 A  
HETATM   29  C   UNL     1      -6.367  19.248  69.563  1.00  0.00    -0.339 A  
HETATM   30  F   UNL     1      -5.328  21.368  69.445  1.00  0.00    -0.386 F  
HETATM   31  C   UNL     1      -7.317  18.364  69.048  1.00  0.00    -0.228 A  
ENDBRANCH  22  25
ENDBRANCH  12  21
ENDBRANCH  10  11
ENDBRANCH   9  10
ENDBRANCH   5   9
TORSDOF 6
ENDMDL
MODEL       52
REMARK 921   NORMALIZED FREE ENERGY PREDICTED BY IDOCK:   -6.01 KCAL/MOL
REMARK 922        TOTAL FREE ENERGY PREDICTED BY IDOCK:   -9.66 KCAL/MOL
REMARK 923 INTER-LIGAND FREE ENERGY PREDICTED BY IDOCK:   -8.32 KCAL/MOL
REMARK 924 INTRA-LIGAND FREE ENERGY PREDICTED BY IDOCK:   -1.34 KCAL/MOL
REMARK 927      BINDING AFFINITY PREDICTED BY RF-SCORE:    0.00 PKD
ROOT
HETATM    1  C   UNL     1      -9.045   6.727  67.632  1.00  0.00    -0.117 C  
HETATM    2  C   UNL     1      -8.963   8.211  67.475  1.00  0.00    -0.137 A  
HETATM    3  N   UNL     1      -9.700   8.798  66.529  1.00  0.00    -0.237 NA 
HETATM    4  C   UNL     1      -9.576  10.139  66.455  1.00  0.00    -0.191 A  
HETATM    5  C   UNL     1      -8.758  10.927  67.256  1.00  0.00    -0.131 A  
HETATM    6  C   UNL     1      -7.212  10.762  69.343  1.00  0.00    -0.132 C  
HETATM    7  C   UNL     1      -8.052  10.224  68.225  1.00  0.00    -0.107 A  
HETATM    8  N   UNL     1      -8.153   8.868  68.322  1.00  0.00    -0.109 NA 
ENDROOT
BRANCH   5   9
HETATM    9  O   UNL     1      -8.837  12.249  66.944  1.00  0.00    -0.198 OA 
BRANCH   9  10
HETATM   10  C   UNL     1     -10.056  12.750  66.408  1.00  0.00    -0.259 C  
BRANCH  10  11
HETATM   11  C   UNL     1     -10.521  13.965  67.224  1.00  0.00    -0.271 C  
HETATM   12  C   UNL     1     -11.545  13.722  68.360  1.00  0.00    -0.369 C  
HETATM   13  C   UNL     1     -11.991  14.295  67.035  1.00  0.00    -0.463 C  
BRANCH  11  14
HETATM   14  C   UNL     1      -9.491  15.114  67.436  1.00  0.00    -0.204 A  
HETATM   15  C   UNL     1      -8.995  15.466  68.715  1.00  0.00    -0.196 A  
HETATM   16  F   UNL     1      -7.512  17.507  65.490  1.00  0.00    -0.228 F  
HETATM   17  C   UNL     1      -8.020  16.456  68.905  1.00  0.00    -0.236 A  
HETATM   18  C   UNL     1      -8.960  15.856  66.362  1.00  0.00    -0.361 A  
HETATM   19  C   UNL     1      -7.991  16.844  66.551  1.00  0.00    -0.294 A  
HETATM   20  C   UNL     1      -7.509  17.147  67.812  1.00  0.00    -0.183 A  
ENDBRANCH  11  14
BRANCH  12  21
HETATM   21  C   UNL     1     -11.889  12.322  68.778  1.00  0.00    -0.306 C  
HETATM   22  N   UNL     1     -11.719  12.105  70.127  1.00  0.00    -0.525 N  
HETATM   23  H   UNL     1     -11.515  12.912  70.716  1.00  0.00     0.000 HD 
HETATM   24  O   UNL     1     -12.276  11.522  67.939  1.00  0.00    -0.586 OA 
BRANCH  22  25
HETATM   25  C   UNL     1     -11.809  10.850  70.745  1.00  0.00    -0.319 A  
HETATM   26  N   UNL     1     -12.855  10.562  71.543  1.00  0.00    -0.427 NA 
HETATM   27  C   UNL     1     -12.897   9.336  72.118  1.00  0.00    -0.408 A  
HETATM   28  C   UNL     1     -11.927   8.373  71.925  1.00  0.00    -0.338 A  
HETATM   29  C   UNL     1     -10.861   8.664  71.090  1.00  0.00    -0.320 A  
HETATM   30  F   UNL     1     -12.009   7.185  72.533  1.00  0.00    -0.280 F  
HETATM   31  C   UNL     1     -10.804   9.919  70.480  1.00  0.00    -0.391 A  
ENDBRANCH  22  25
ENDBRANCH  12  21
ENDBRANCH  10  11
ENDBRANCH   9  10
ENDBRANCH   5   9
TORSDOF 6
ENDMDL
MODEL       53
REMARK 921   NORMALIZED FREE ENERGY PREDICTED BY IDOCK:   -6.00 KCAL/MOL
REMARK 922        TOTAL FREE ENERGY PREDICTED BY IDOCK:   -9.65 KCAL/MOL
REMARK 923 INTER-LIGAND FREE ENERGY PREDICTED BY IDOCK:   -8.15 KCAL/MOL
REMARK 924 INTRA-LIGAND FREE ENERGY PREDICTED BY IDOCK:   -1.50 KCAL/MOL
REMARK 927      BINDING AFFINITY PREDICTED BY RF-SCORE:    0.00 PKD
ROOT
HETATM    1  C   UNL     1     -10.011   7.431  73.544  1.00  0.00    -0.377 C  
HETATM    2  C   UNL     1     -10.216   8.366  72.396  1.00  0.00    -0.329 A  
HETATM    3  N   UNL     1      -9.184   8.627  71.589  1.00  0.00    -0.234 NA 
HETATM    4  C   UNL     1      -9.450   9.475  70.574  1.00  0.00    -0.246 A  
HETATM    5  C   UNL     1     -10.674  10.083  70.320  1.00  0.00    -0.309 A  
HETATM    6  C   UNL     1     -13.146  10.063  71.132  1.00  0.00    -0.472 C  
HETATM    7  C   UNL     1     -11.687   9.726  71.201  1.00  0.00    -0.385 A  
HETATM    8  N   UNL     1     -11.448   8.876  72.239  1.00  0.00    -0.311 NA 
ENDROOT
BRANCH   5   9
HETATM    9  O   UNL     1     -10.638  10.894  69.228  1.00  0.00    -0.213 OA 
BRANCH   9  10
HETATM   10  C   UNL     1      -9.372  11.276  68.704  1.00  0.00    -0.164 C  
BRANCH  10  11
HETATM   11  C   UNL     1      -9.440  11.332  67.171  1.00  0.00    -0.183 C  
HETATM   12  C   UNL     1      -8.968  10.086  66.382  1.00  0.00    -0.164 C  
HETATM   13  C   UNL     1      -8.077  11.299  66.503  1.00  0.00    -0.160 C  
BRANCH  11  14
HETATM   14  C   UNL     1     -10.590  12.173  66.543  1.00  0.00    -0.269 A  
HETATM   15  C   UNL     1     -10.961  13.446  67.039  1.00  0.00    -0.298 A  
HETATM   16  F   UNL     1     -12.951  12.056  63.742  1.00  0.00    -0.579 F  
HETATM   17  C   UNL     1     -11.952  14.237  66.439  1.00  0.00    -0.438 A  
HETATM   18  C   UNL     1     -11.315  11.734  65.418  1.00  0.00    -0.284 A  
HETATM   19  C   UNL     1     -12.305  12.519  64.821  1.00  0.00    -0.474 A  
HETATM   20  C   UNL     1     -12.626  13.771  65.316  1.00  0.00    -0.510 A  
ENDBRANCH  11  14
BRANCH  12  21
HETATM   21  C   UNL     1      -8.670   8.805  67.104  1.00  0.00    -0.120 C  
HETATM   22  N   UNL     1      -9.715   7.909  67.065  1.00  0.00    -0.188 N  
HETATM   23  H   UNL     1     -10.509   8.129  66.464  1.00  0.00     0.000 HD 
HETATM   24  O   UNL     1      -7.583   8.655  67.641  1.00  0.00    -0.095 OA 
BRANCH  22  25
HETATM   25  C   UNL     1      -9.761   6.714  67.796  1.00  0.00    -0.123 A  
HETATM   26  N   UNL     1      -9.122   5.618  67.343  1.00  0.00    -0.111 NA 
HETATM   27  C   UNL     1      -9.196   4.487  68.084  1.00  0.00    -0.132 A  
HETATM   28  C   UNL     1      -9.889   4.403  69.275  1.00  0.00    -0.148 A  
HETATM   29  C   UNL     1     -10.531   5.534  69.750  1.00  0.00    -0.389 A  
HETATM   30  F   UNL     1      -9.944   3.254  69.957  1.00  0.00    -0.207 F  
HETATM   31  C   UNL     1     -10.459   6.713  69.005  1.00  0.00    -0.243 A  
ENDBRANCH  22  25
ENDBRANCH  12  21
ENDBRANCH  10  11
ENDBRANCH   9  10
ENDBRANCH   5   9
TORSDOF 6
ENDMDL
MODEL       54
REMARK 921   NORMALIZED FREE ENERGY PREDICTED BY IDOCK:   -5.99 KCAL/MOL
REMARK 922        TOTAL FREE ENERGY PREDICTED BY IDOCK:   -9.64 KCAL/MOL
REMARK 923 INTER-LIGAND FREE ENERGY PREDICTED BY IDOCK:   -8.56 KCAL/MOL
REMARK 924 INTRA-LIGAND FREE ENERGY PREDICTED BY IDOCK:   -1.08 KCAL/MOL
REMARK 927      BINDING AFFINITY PREDICTED BY RF-SCORE:    0.00 PKD
ROOT
HETATM    1  C   UNL     1      -9.331   8.024  72.634  1.00  0.00    -0.314 C  
HETATM    2  C   UNL     1      -9.883   8.925  71.577  1.00  0.00    -0.314 A  
HETATM    3  N   UNL     1      -9.117   9.225  70.525  1.00  0.00    -0.242 NA 
HETATM    4  C   UNL     1      -9.688  10.037  69.612  1.00  0.00    -0.229 A  
HETATM    5  C   UNL     1     -10.968  10.573  69.687  1.00  0.00    -0.283 A  
HETATM    6  C   UNL     1     -13.134  10.437  71.123  1.00  0.00    -0.474 C  
HETATM    7  C   UNL     1     -11.692  10.180  70.806  1.00  0.00    -0.357 A  
HETATM    8  N   UNL     1     -11.140   9.364  71.749  1.00  0.00    -0.342 NA 
ENDROOT
BRANCH   5   9
HETATM    9  O   UNL     1     -11.268  11.363  68.620  1.00  0.00    -0.201 OA 
BRANCH   9  10
HETATM   10  C   UNL     1     -10.236  12.163  68.054  1.00  0.00    -0.201 C  
BRANCH  10  11
HETATM   11  C   UNL     1     -10.258  12.031  66.524  1.00  0.00    -0.232 C  
HETATM   12  C   UNL     1     -10.857  13.202  65.707  1.00  0.00    -0.289 C  
HETATM   13  C   UNL     1     -11.658  11.945  65.944  1.00  0.00    -0.291 C  
BRANCH  11  14
HETATM   14  C   UNL     1      -9.096  11.231  65.865  1.00  0.00    -0.217 A  
HETATM   15  C   UNL     1      -7.815  11.121  66.458  1.00  0.00    -0.151 A  
HETATM   16  F   UNL     1      -8.443   9.118  62.943  1.00  0.00    -0.164 F  
HETATM   17  C   UNL     1      -6.784  10.349  65.902  1.00  0.00    -0.127 A  
HETATM   18  C   UNL     1      -9.255  10.536  64.650  1.00  0.00    -0.274 A  
HETATM   19  C   UNL     1      -8.229   9.769  64.094  1.00  0.00    -0.158 A  
HETATM   20  C   UNL     1      -6.996   9.662  64.712  1.00  0.00    -0.111 A  
ENDBRANCH  11  14
BRANCH  12  21
HETATM   21  C   UNL     1     -11.192  14.499  66.384  1.00  0.00    -0.341 C  
HETATM   22  N   UNL     1     -10.252  15.481  66.164  1.00  0.00    -0.286 N  
HETATM   23  H   UNL     1      -9.517  15.291  65.484  1.00  0.00     0.000 HD 
HETATM   24  O   UNL     1     -12.218  14.587  67.042  1.00  0.00    -0.362 OA 
BRANCH  22  25
HETATM   25  C   UNL     1     -10.238  16.724  66.812  1.00  0.00    -0.304 A  
HETATM   26  N   UNL     1      -9.813  16.818  68.087  1.00  0.00    -0.256 NA 
HETATM   27  C   UNL     1      -9.819  18.040  68.670  1.00  0.00    -0.378 A  
HETATM   28  C   UNL     1     -10.233  19.188  68.025  1.00  0.00    -0.401 A  
HETATM   29  C   UNL     1     -10.653  19.094  66.709  1.00  0.00    -0.528 A  
HETATM   30  F   UNL     1     -10.235  20.367  68.656  1.00  0.00    -0.490 F  
HETATM   31  C   UNL     1     -10.646  17.844  66.086  1.00  0.00    -0.243 A  
ENDBRANCH  22  25
ENDBRANCH  12  21
ENDBRANCH  10  11
ENDBRANCH   9  10
ENDBRANCH   5   9
TORSDOF 6
ENDMDL
MODEL       55
REMARK 921   NORMALIZED FREE ENERGY PREDICTED BY IDOCK:   -5.98 KCAL/MOL
REMARK 922        TOTAL FREE ENERGY PREDICTED BY IDOCK:   -9.63 KCAL/MOL
REMARK 923 INTER-LIGAND FREE ENERGY PREDICTED BY IDOCK:   -8.81 KCAL/MOL
REMARK 924 INTRA-LIGAND FREE ENERGY PREDICTED BY IDOCK:   -0.82 KCAL/MOL
REMARK 927      BINDING AFFINITY PREDICTED BY RF-SCORE:    0.00 PKD
ROOT
HETATM    1  C   UNL     1     -11.009  15.387  64.728  1.00  0.00    -0.411 C  
HETATM    2  C   UNL     1     -11.266  14.211  65.615  1.00  0.00    -0.308 A  
HETATM    3  N   UNL     1     -12.058  14.371  66.678  1.00  0.00    -0.407 NA 
HETATM    4  C   UNL     1     -12.246  13.264  67.425  1.00  0.00    -0.186 A  
HETATM    5  C   UNL     1     -11.689  12.014  67.183  1.00  0.00    -0.273 A  
HETATM    6  C   UNL     1     -10.285  10.739  65.401  1.00  0.00    -0.341 C  
HETATM    7  C   UNL     1     -10.902  11.947  66.040  1.00  0.00    -0.299 A  
HETATM    8  N   UNL     1     -10.689  13.050  65.268  1.00  0.00    -0.292 NA 
ENDROOT
BRANCH   5   9
HETATM    9  O   UNL     1     -12.055  11.089  68.112  1.00  0.00    -0.610 OA 
BRANCH   9  10
HETATM   10  C   UNL     1     -11.316  11.015  69.326  1.00  0.00    -0.282 C  
BRANCH  10  11
HETATM   11  C   UNL     1     -12.274  11.120  70.522  1.00  0.00    -0.475 C  
HETATM   12  C   UNL     1     -12.274   9.962  71.550  1.00  0.00    -0.505 C  
HETATM   13  C   UNL     1     -13.369  10.068  70.515  1.00  0.00     0.034 C  
BRANCH  11  14
HETATM   14  C   UNL     1     -12.575  12.547  71.066  1.00  0.00    -0.350 A  
HETATM   15  C   UNL     1     -13.595  12.801  72.016  1.00  0.00    -0.460 A  
HETATM   16  F   UNL     1     -11.312  15.978  70.808  1.00  0.00    -0.313 F  
HETATM   17  C   UNL     1     -13.829  14.073  72.558  1.00  0.00    -0.610 A  
HETATM   18  C   UNL     1     -11.829  13.676  70.673  1.00  0.00    -0.232 A  
HETATM   19  C   UNL     1     -12.063  14.944  71.209  1.00  0.00    -0.330 A  
HETATM   20  C   UNL     1     -13.052  15.153  72.155  1.00  0.00    -0.454 A  
ENDBRANCH  11  14
BRANCH  12  21
HETATM   21  C   UNL     1     -11.219   8.896  71.485  1.00  0.00    -0.326 C  
HETATM   22  N   UNL     1     -10.329   8.954  72.534  1.00  0.00    -0.042 N  
HETATM   23  H   UNL     1     -10.535   9.599  73.298  1.00  0.00     0.000 HD 
HETATM   24  O   UNL     1     -11.226   8.097  70.561  1.00  0.00    -0.264 OA 
BRANCH  22  25
HETATM   25  C   UNL     1      -9.160   8.187  72.625  1.00  0.00    -0.250 A  
HETATM   26  N   UNL     1      -7.957   8.759  72.425  1.00  0.00    -0.378 NA 
HETATM   27  C   UNL     1      -6.856   7.977  72.523  1.00  0.00    -0.081 A  
HETATM   28  C   UNL     1      -6.906   6.629  72.818  1.00  0.00    -0.068 A  
HETATM   29  C   UNL     1      -8.141   6.045  73.041  1.00  0.00    -0.113 A  
HETATM   30  F   UNL     1      -5.788   5.899  72.884  1.00  0.00    -0.032 F  
HETATM   31  C   UNL     1      -9.288   6.837  72.954  1.00  0.00    -0.151 A  
ENDBRANCH  22  25
ENDBRANCH  12  21
ENDBRANCH  10  11
ENDBRANCH   9  10
ENDBRANCH   5   9
TORSDOF 6
ENDMDL
MODEL       56
REMARK 921   NORMALIZED FREE ENERGY PREDICTED BY IDOCK:   -5.98 KCAL/MOL
REMARK 922        TOTAL FREE ENERGY PREDICTED BY IDOCK:   -9.63 KCAL/MOL
REMARK 923 INTER-LIGAND FREE ENERGY PREDICTED BY IDOCK:   -8.92 KCAL/MOL
REMARK 924 INTRA-LIGAND FREE ENERGY PREDICTED BY IDOCK:   -0.71 KCAL/MOL
REMARK 927      BINDING AFFINITY PREDICTED BY RF-SCORE:    0.00 PKD
ROOT
HETATM    1  C   UNL     1     -11.917  16.105  71.910  1.00  0.00    -0.583 C  
HETATM    2  C   UNL     1     -11.958  15.025  70.878  1.00  0.00    -0.319 A  
HETATM    3  N   UNL     1     -11.628  15.327  69.620  1.00  0.00    -0.298 NA 
HETATM    4  C   UNL     1     -11.684  14.298  68.749  1.00  0.00    -0.343 A  
HETATM    5  C   UNL     1     -12.056  12.994  69.052  1.00  0.00    -0.177 A  
HETATM    6  C   UNL     1     -12.637  11.481  71.088  1.00  0.00    -0.463 C  
HETATM    7  C   UNL     1     -12.356  12.778  70.392  1.00  0.00    -0.247 A  
HETATM    8  N   UNL     1     -12.313  13.799  71.294  1.00  0.00    -0.345 NA 
ENDROOT
BRANCH   5   9
HETATM    9  O   UNL     1     -12.023  12.175  67.966  1.00  0.00    -0.465 OA 
BRANCH   9  10
HETATM   10  C   UNL     1     -11.401  10.902  68.093  1.00  0.00    -0.315 C  
BRANCH  10  11
HETATM   11  C   UNL     1      -9.997  10.947  67.472  1.00  0.00    -0.201 C  
HETATM   12  C   UNL     1      -8.834  10.306  68.268  1.00  0.00    -0.126 C  
HETATM   13  C   UNL     1      -9.018  11.805  68.252  1.00  0.00    -0.180 C  
BRANCH  11  14
HETATM   14  C   UNL     1      -9.907  10.887  65.918  1.00  0.00    -0.285 A  
HETATM   15  C   UNL     1      -9.185   9.877  65.236  1.00  0.00    -0.280 A  
HETATM   16  F   UNL     1     -11.191  12.626  62.959  1.00  0.00    -0.481 F  
HETATM   17  C   UNL     1      -9.152   9.780  63.837  1.00  0.00    -0.275 A  
HETATM   18  C   UNL     1     -10.566  11.816  65.089  1.00  0.00    -0.332 A  
HETATM   19  C   UNL     1     -10.532  11.722  63.696  1.00  0.00    -0.439 A  
HETATM   20  C   UNL     1      -9.838  10.707  63.061  1.00  0.00    -0.318 A  
ENDBRANCH  11  14
BRANCH  12  21
HETATM   21  C   UNL     1      -9.122   9.483  69.490  1.00  0.00    -0.185 C  
HETATM   22  N   UNL     1      -9.908   8.383  69.226  1.00  0.00    -0.182 N  
HETATM   23  H   UNL     1     -10.103   8.161  68.250  1.00  0.00     0.000 HD 
HETATM   24  O   UNL     1      -8.661   9.826  70.569  1.00  0.00    -0.171 OA 
BRANCH  22  25
HETATM   25  C   UNL     1     -10.457   7.548  70.209  1.00  0.00    -0.222 A  
HETATM   26  N   UNL     1      -9.898   6.351  70.470  1.00  0.00    -0.182 NA 
HETATM   27  C   UNL     1     -10.465   5.580  71.427  1.00  0.00    -0.240 A  
HETATM   28  C   UNL     1     -11.580   5.959  72.147  1.00  0.00    -0.256 A  
HETATM   29  C   UNL     1     -12.143   7.198  71.892  1.00  0.00    -0.357 A  
HETATM   30  F   UNL     1     -12.109   5.149  73.070  1.00  0.00    -0.371 F  
HETATM   31  C   UNL     1     -11.568   8.013  70.914  1.00  0.00    -0.284 A  
ENDBRANCH  22  25
ENDBRANCH  12  21
ENDBRANCH  10  11
ENDBRANCH   9  10
ENDBRANCH   5   9
TORSDOF 6
ENDMDL
MODEL       57
REMARK 921   NORMALIZED FREE ENERGY PREDICTED BY IDOCK:   -5.96 KCAL/MOL
REMARK 922        TOTAL FREE ENERGY PREDICTED BY IDOCK:   -9.60 KCAL/MOL
REMARK 923 INTER-LIGAND FREE ENERGY PREDICTED BY IDOCK:   -8.17 KCAL/MOL
REMARK 924 INTRA-LIGAND FREE ENERGY PREDICTED BY IDOCK:   -1.43 KCAL/MOL
REMARK 927      BINDING AFFINITY PREDICTED BY RF-SCORE:    0.00 PKD
ROOT
HETATM    1  C   UNL     1     -12.549  12.361  64.523  1.00  0.00    -0.477 C  
HETATM    2  C   UNL     1     -12.051  13.227  65.636  1.00  0.00    -0.441 A  
HETATM    3  N   UNL     1     -11.533  14.420  65.337  1.00  0.00    -0.335 NA 
HETATM    4  C   UNL     1     -11.112  15.144  66.395  1.00  0.00    -0.312 A  
HETATM    5  C   UNL     1     -11.167  14.749  67.725  1.00  0.00    -0.313 A  
HETATM    6  C   UNL     1     -12.105  12.843  69.229  1.00  0.00    -0.234 C  
HETATM    7  C   UNL     1     -11.746  13.503  67.932  1.00  0.00    -0.357 A  
HETATM    8  N   UNL     1     -12.177  12.746  66.883  1.00  0.00    -0.439 NA 
ENDROOT
BRANCH   5   9
HETATM    9  O   UNL     1     -10.662  15.688  68.572  1.00  0.00    -0.245 OA 
BRANCH   9  10
HETATM   10  C   UNL     1      -9.507  15.364  69.336  1.00  0.00    -0.267 C  
BRANCH  10  11
HETATM   11  C   UNL     1      -8.256  15.933  68.651  1.00  0.00    -0.182 C  
HETATM   12  C   UNL     1      -7.201  14.930  68.124  1.00  0.00    -0.124 C  
HETATM   13  C   UNL     1      -6.973  15.672  69.419  1.00  0.00    -0.196 C  
BRANCH  11  14
HETATM   14  C   UNL     1      -8.425  17.262  67.857  1.00  0.00    -0.218 A  
HETATM   15  C   UNL     1      -7.804  17.485  66.604  1.00  0.00    -0.285 A  
HETATM   16  F   UNL     1     -10.228  20.446  68.059  1.00  0.00    -0.517 F  
HETATM   17  C   UNL     1      -8.003  18.654  65.854  1.00  0.00    -0.041 A  
HETATM   18  C   UNL     1      -9.236  18.317  68.320  1.00  0.00    -0.322 A  
HETATM   19  C   UNL     1      -9.433  19.482  67.575  1.00  0.00    -0.320 A  
HETATM   20  C   UNL     1      -8.831  19.658  66.342  1.00  0.00    -0.419 A  
ENDBRANCH  11  14
BRANCH  12  21
HETATM   21  C   UNL     1      -7.508  13.461  68.091  1.00  0.00    -0.133 C  
HETATM   22  N   UNL     1      -8.270  13.093  67.005  1.00  0.00    -0.371 N  
HETATM   23  H   UNL     1      -8.436  13.793  66.281  1.00  0.00     0.000 HD 
HETATM   24  O   UNL     1      -7.083  12.737  68.980  1.00  0.00    -0.093 OA 
BRANCH  22  25
HETATM   25  C   UNL     1      -8.833  11.822  66.825  1.00  0.00    -0.191 A  
HETATM   26  N   UNL     1      -9.204  11.089  67.893  1.00  0.00    -0.151 NA 
HETATM   27  C   UNL     1      -9.742   9.867  67.668  1.00  0.00    -0.155 A  
HETATM   28  C   UNL     1      -9.931   9.340  66.407  1.00  0.00    -0.286 A  
HETATM   29  C   UNL     1      -9.566  10.101  65.309  1.00  0.00    -0.338 A  
HETATM   30  F   UNL     1     -10.451   8.119  66.244  1.00  0.00    -0.312 F  
HETATM   31  C   UNL     1      -9.017  11.368  65.519  1.00  0.00    -0.096 A  
ENDBRANCH  22  25
ENDBRANCH  12  21
ENDBRANCH  10  11
ENDBRANCH   9  10
ENDBRANCH   5   9
TORSDOF 6
ENDMDL
MODEL       58
REMARK 921   NORMALIZED FREE ENERGY PREDICTED BY IDOCK:   -5.95 KCAL/MOL
REMARK 922        TOTAL FREE ENERGY PREDICTED BY IDOCK:   -9.58 KCAL/MOL
REMARK 923 INTER-LIGAND FREE ENERGY PREDICTED BY IDOCK:   -8.48 KCAL/MOL
REMARK 924 INTRA-LIGAND FREE ENERGY PREDICTED BY IDOCK:   -1.10 KCAL/MOL
REMARK 927      BINDING AFFINITY PREDICTED BY RF-SCORE:    0.00 PKD
ROOT
HETATM    1  C   UNL     1     -10.052   7.122  73.461  1.00  0.00    -0.374 C  
HETATM    2  C   UNL     1     -10.447   8.149  72.450  1.00  0.00    -0.319 A  
HETATM    3  N   UNL     1      -9.523   8.599  71.597  1.00  0.00    -0.244 NA 
HETATM    4  C   UNL     1      -9.958   9.519  70.712  1.00  0.00    -0.264 A  
HETATM    5  C   UNL     1     -11.251  10.023  70.631  1.00  0.00    -0.350 A  
HETATM    6  C   UNL     1     -13.625   9.665  71.634  1.00  0.00    -0.402 C  
HETATM    7  C   UNL     1     -12.141   9.473  71.545  1.00  0.00    -0.389 A  
HETATM    8  N   UNL     1     -11.730   8.545  72.454  1.00  0.00    -0.377 NA 
ENDROOT
BRANCH   5   9
HETATM    9  O   UNL     1     -11.391  10.946  69.640  1.00  0.00    -0.245 OA 
BRANCH   9  10
HETATM   10  C   UNL     1     -10.225  11.403  68.966  1.00  0.00    -0.117 C  
BRANCH  10  11
HETATM   11  C   UNL     1     -10.307  11.030  67.478  1.00  0.00    -0.233 C  
HETATM   12  C   UNL     1     -10.151  12.168  66.439  1.00  0.00    -0.242 C  
HETATM   13  C   UNL     1     -11.517  11.617  66.773  1.00  0.00    -0.299 C  
BRANCH  11  14
HETATM   14  C   UNL     1      -9.780   9.623  67.070  1.00  0.00    -0.232 A  
HETATM   15  C   UNL     1     -10.509   8.435  67.321  1.00  0.00    -0.373 A  
HETATM   16  F   UNL     1      -6.953   8.078  65.323  1.00  0.00    -0.059 F  
HETATM   17  C   UNL     1     -10.070   7.171  66.900  1.00  0.00    -0.308 A  
HETATM   18  C   UNL     1      -8.558   9.444  66.394  1.00  0.00    -0.144 A  
HETATM   19  C   UNL     1      -8.118   8.186  65.976  1.00  0.00    -0.112 A  
HETATM   20  C   UNL     1      -8.867   7.047  66.215  1.00  0.00    -0.164 A  
ENDBRANCH  11  14
BRANCH  12  21
HETATM   21  C   UNL     1      -9.715  13.535  66.878  1.00  0.00    -0.261 C  
HETATM   22  N   UNL     1     -10.750  14.443  66.921  1.00  0.00    -0.289 N  
HETATM   23  H   UNL     1     -11.698  14.090  66.788  1.00  0.00     0.000 HD 
HETATM   24  O   UNL     1      -8.541  13.733  67.154  1.00  0.00    -0.206 OA 
BRANCH  22  25
HETATM   25  C   UNL     1     -10.588  15.818  67.136  1.00  0.00    -0.313 A  
HETATM   26  N   UNL     1     -10.648  16.321  68.384  1.00  0.00    -0.285 NA 
HETATM   27  C   UNL     1     -10.486  17.656  68.540  1.00  0.00    -0.337 A  
HETATM   28  C   UNL     1     -10.262  18.522  67.490  1.00  0.00    -0.385 A  
HETATM   29  C   UNL     1     -10.183  18.004  66.208  1.00  0.00    -0.381 A  
HETATM   30  F   UNL     1     -10.128  19.836  67.700  1.00  0.00    -0.426 F  
HETATM   31  C   UNL     1     -10.338  16.628  66.026  1.00  0.00    -0.352 A  
ENDBRANCH  22  25
ENDBRANCH  12  21
ENDBRANCH  10  11
ENDBRANCH   9  10
ENDBRANCH   5   9
TORSDOF 6
ENDMDL
MODEL       59
REMARK 921   NORMALIZED FREE ENERGY PREDICTED BY IDOCK:   -5.94 KCAL/MOL
REMARK 922        TOTAL FREE ENERGY PREDICTED BY IDOCK:   -9.57 KCAL/MOL
REMARK 923 INTER-LIGAND FREE ENERGY PREDICTED BY IDOCK:   -8.44 KCAL/MOL
REMARK 924 INTRA-LIGAND FREE ENERGY PREDICTED BY IDOCK:   -1.13 KCAL/MOL
REMARK 927      BINDING AFFINITY PREDICTED BY RF-SCORE:    0.00 PKD
ROOT
HETATM    1  C   UNL     1      -5.775  18.177  65.734  1.00  0.00    -0.238 C  
HETATM    2  C   UNL     1      -6.859  17.236  66.151  1.00  0.00    -0.192 A  
HETATM    3  N   UNL     1      -6.520  16.090  66.745  1.00  0.00    -0.233 NA 
HETATM    4  C   UNL     1      -7.555  15.298  67.096  1.00  0.00    -0.189 A  
HETATM    5  C   UNL     1      -8.900  15.574  66.884  1.00  0.00    -0.255 A  
HETATM    6  C   UNL     1     -10.464  17.480  66.051  1.00  0.00    -0.274 C  
HETATM    7  C   UNL     1      -9.147  16.802  66.282  1.00  0.00    -0.285 A  
HETATM    8  N   UNL     1      -8.123  17.621  65.911  1.00  0.00    -0.554 NA 
ENDROOT
BRANCH   5   9
HETATM    9  O   UNL     1      -9.715  14.584  67.340  1.00  0.00    -0.218 OA 
BRANCH   9  10
HETATM   10  C   UNL     1      -9.748  14.321  68.738  1.00  0.00    -0.173 C  
BRANCH  10  11
HETATM   11  C   UNL     1     -11.111  13.726  69.121  1.00  0.00    -0.282 C  
HETATM   12  C   UNL     1     -11.384  12.247  68.750  1.00  0.00    -0.337 C  
HETATM   13  C   UNL     1     -11.973  13.366  67.924  1.00  0.00    -0.360 C  
BRANCH  11  14
HETATM   14  C   UNL     1     -11.778  14.262  70.422  1.00  0.00    -0.329 A  
HETATM   15  C   UNL     1     -12.755  13.525  71.137  1.00  0.00    -0.425 A  
HETATM   16  F   UNL     1     -11.604  17.133  72.692  1.00  0.00    -0.476 F  
HETATM   17  C   UNL     1     -13.313  13.974  72.343  1.00  0.00    -0.617 A  
HETATM   18  C   UNL     1     -11.429  15.502  70.991  1.00  0.00    -0.426 A  
HETATM   19  C   UNL     1     -11.986  15.951  72.191  1.00  0.00    -0.518 A  
HETATM   20  C   UNL     1     -12.919  15.195  72.878  1.00  0.00    -0.561 A  
ENDBRANCH  11  14
BRANCH  12  21
HETATM   21  C   UNL     1     -10.271  11.382  68.237  1.00  0.00    -0.193 C  
HETATM   22  N   UNL     1     -10.395  11.078  66.900  1.00  0.00    -0.225 N  
HETATM   23  H   UNL     1     -11.124  11.556  66.369  1.00  0.00     0.000 HD 
HETATM   24  O   UNL     1      -9.382  11.030  68.999  1.00  0.00    -0.173 OA 
BRANCH  22  25
HETATM   25  C   UNL     1      -9.589  10.157  66.218  1.00  0.00    -0.193 A  
HETATM   26  N   UNL     1      -9.928   8.853  66.185  1.00  0.00    -0.278 NA 
HETATM   27  C   UNL     1      -9.116   8.002  65.514  1.00  0.00     0.068 A  
HETATM   28  C   UNL     1      -7.967   8.403  64.863  1.00  0.00    -0.136 A  
HETATM   29  C   UNL     1      -7.628   9.745  64.882  1.00  0.00    -0.128 A  
HETATM   30  F   UNL     1      -7.192   7.515  64.231  1.00  0.00    -0.063 F  
HETATM   31  C   UNL     1      -8.456  10.641  65.561  1.00  0.00    -0.177 A  
ENDBRANCH  22  25
ENDBRANCH  12  21
ENDBRANCH  10  11
ENDBRANCH   9  10
ENDBRANCH   5   9
TORSDOF 6
ENDMDL
MODEL       60
REMARK 921   NORMALIZED FREE ENERGY PREDICTED BY IDOCK:   -5.90 KCAL/MOL
REMARK 922        TOTAL FREE ENERGY PREDICTED BY IDOCK:   -9.53 KCAL/MOL
REMARK 923 INTER-LIGAND FREE ENERGY PREDICTED BY IDOCK:   -7.49 KCAL/MOL
REMARK 924 INTRA-LIGAND FREE ENERGY PREDICTED BY IDOCK:   -2.04 KCAL/MOL
REMARK 927      BINDING AFFINITY PREDICTED BY RF-SCORE:    0.00 PKD
ROOT
HETATM    1  C   UNL     1     -12.372  14.057  64.998  1.00  0.00    -0.458 C  
HETATM    2  C   UNL     1     -11.646  12.880  65.566  1.00  0.00    -0.358 A  
HETATM    3  N   UNL     1     -10.661  12.330  64.852  1.00  0.00    -0.282 NA 
HETATM    4  C   UNL     1     -10.050  11.277  65.434  1.00  0.00    -0.264 A  
HETATM    5  C   UNL     1     -10.367  10.736  66.674  1.00  0.00    -0.241 A  
HETATM    6  C   UNL     1     -11.873  11.184  68.749  1.00  0.00    -0.388 C  
HETATM    7  C   UNL     1     -11.389  11.396  67.346  1.00  0.00    -0.288 A  
HETATM    8  N   UNL     1     -12.028  12.459  66.782  1.00  0.00    -0.588 NA 
ENDROOT
BRANCH   5   9
HETATM    9  O   UNL     1      -9.582   9.671  66.997  1.00  0.00    -0.160 OA 
BRANCH   9  10
HETATM   10  C   UNL     1      -8.175   9.865  67.082  1.00  0.00    -0.121 C  
BRANCH  10  11
HETATM   11  C   UNL     1      -7.749   9.922  68.557  1.00  0.00    -0.081 C  
HETATM   12  C   UNL     1      -7.312  11.292  69.129  1.00  0.00    -0.104 C  
HETATM   13  C   UNL     1      -6.281  10.256  68.750  1.00  0.00    -0.047 C  
BRANCH  11  14
HETATM   14  C   UNL     1      -8.454   8.939  69.537  1.00  0.00    -0.128 A  
HETATM   15  C   UNL     1      -8.191   7.547  69.540  1.00  0.00    -0.130 A  
HETATM   16  F   UNL     1     -10.820   8.975  72.336  1.00  0.00    -0.396 F  
HETATM   17  C   UNL     1      -8.775   6.665  70.462  1.00  0.00    -0.144 A  
HETATM   18  C   UNL     1      -9.377   9.376  70.508  1.00  0.00    -0.319 A  
HETATM   19  C   UNL     1      -9.960   8.499  71.425  1.00  0.00    -0.233 A  
HETATM   20  C   UNL     1      -9.662   7.148  71.417  1.00  0.00    -0.170 A  
ENDBRANCH  11  14
BRANCH  12  21
HETATM   21  C   UNL     1      -7.515  12.544  68.326  1.00  0.00    -0.122 C  
HETATM   22  N   UNL     1      -8.669  13.218  68.661  1.00  0.00    -0.367 N  
HETATM   23  H   UNL     1      -9.188  12.896  69.478  1.00  0.00     0.000 HD 
HETATM   24  O   UNL     1      -6.688  12.859  67.483  1.00  0.00    -0.142 OA 
BRANCH  22  25
HETATM   25  C   UNL     1      -9.177  14.317  67.955  1.00  0.00    -0.192 A  
HETATM   26  N   UNL     1      -8.676  14.636  66.746  1.00  0.00    -0.229 NA 
HETATM   27  C   UNL     1      -9.200  15.706  66.103  1.00  0.00    -0.343 A  
HETATM   28  C   UNL     1     -10.218  16.481  66.623  1.00  0.00    -0.300 A  
HETATM   29  C   UNL     1     -10.745  16.142  67.858  1.00  0.00    -0.321 A  
HETATM   30  F   UNL     1     -10.685  17.539  65.952  1.00  0.00    -0.348 F  
HETATM   31  C   UNL     1     -10.225  15.036  68.533  1.00  0.00    -0.227 A  
ENDBRANCH  22  25
ENDBRANCH  12  21
ENDBRANCH  10  11
ENDBRANCH   9  10
ENDBRANCH   5   9
TORSDOF 6
ENDMDL
MODEL       61
REMARK 921   NORMALIZED FREE ENERGY PREDICTED BY IDOCK:   -5.88 KCAL/MOL
REMARK 922        TOTAL FREE ENERGY PREDICTED BY IDOCK:   -9.49 KCAL/MOL
REMARK 923 INTER-LIGAND FREE ENERGY PREDICTED BY IDOCK:   -8.24 KCAL/MOL
REMARK 924 INTRA-LIGAND FREE ENERGY PREDICTED BY IDOCK:   -1.25 KCAL/MOL
REMARK 927      BINDING AFFINITY PREDICTED BY RF-SCORE:    0.00 PKD
ROOT
HETATM    1  C   UNL     1      -6.734  17.887  66.470  1.00  0.00    -0.252 C  
HETATM    2  C   UNL     1      -7.540  16.632  66.575  1.00  0.00    -0.292 A  
HETATM    3  N   UNL     1      -7.052  15.614  67.289  1.00  0.00    -0.210 NA 
HETATM    4  C   UNL     1      -7.840  14.520  67.341  1.00  0.00    -0.199 A  
HETATM    5  C   UNL     1      -9.074  14.376  66.720  1.00  0.00    -0.257 A  
HETATM    6  C   UNL     1     -10.833  15.747  65.379  1.00  0.00    -0.376 C  
HETATM    7  C   UNL     1      -9.503  15.500  66.024  1.00  0.00    -0.352 A  
HETATM    8  N   UNL     1      -8.727  16.618  65.949  1.00  0.00    -0.492 NA 
ENDROOT
BRANCH   5   9
HETATM    9  O   UNL     1      -9.635  13.157  66.947  1.00  0.00    -0.233 OA 
BRANCH   9  10
HETATM   10  C   UNL     1      -9.648  12.650  68.277  1.00  0.00    -0.208 C  
BRANCH  10  11
HETATM   11  C   UNL     1     -11.098  12.507  68.762  1.00  0.00    -0.314 C  
HETATM   12  C   UNL     1     -11.645  11.076  68.989  1.00  0.00    -0.392 C  
HETATM   13  C   UNL     1     -12.014  11.850  67.745  1.00  0.00    -0.149 C  
BRANCH  11  14
HETATM   14  C   UNL     1     -11.650  13.629  69.690  1.00  0.00    -0.342 A  
HETATM   15  C   UNL     1     -12.692  13.403  70.622  1.00  0.00    -0.246 A  
HETATM   16  F   UNL     1     -11.033  17.144  70.521  1.00  0.00    -0.165 F  
HETATM   17  C   UNL     1     -13.150  14.392  71.505  1.00  0.00    -0.411 A  
HETATM   18  C   UNL     1     -11.124  14.936  69.685  1.00  0.00    -0.298 A  
HETATM   19  C   UNL     1     -11.581  15.923  70.561  1.00  0.00    -0.381 A  
HETATM   20  C   UNL     1     -12.584  15.662  71.478  1.00  0.00    -0.511 A  
ENDBRANCH  11  14
BRANCH  12  21
HETATM   21  C   UNL     1     -10.715   9.899  68.946  1.00  0.00    -0.221 C  
HETATM   22  N   UNL     1     -10.892   9.112  67.830  1.00  0.00    -0.477 N  
HETATM   23  H   UNL     1     -11.515   9.456  67.099  1.00  0.00     0.000 HD 
HETATM   24  O   UNL     1      -9.912   9.733  69.852  1.00  0.00    -0.217 OA 
BRANCH  22  25
HETATM   25  C   UNL     1     -10.274   7.870  67.630  1.00  0.00    -0.226 A  
HETATM   26  N   UNL     1      -8.990   7.810  67.226  1.00  0.00    -0.126 NA 
HETATM   27  C   UNL     1      -8.437   6.587  67.046  1.00  0.00    -0.113 A  
HETATM   28  C   UNL     1      -9.119   5.406  67.258  1.00  0.00    -0.111 A  
HETATM   29  C   UNL     1     -10.433   5.468  67.690  1.00  0.00    -0.256 A  
HETATM   30  F   UNL     1      -8.528   4.225  67.046  1.00  0.00    -0.103 F  
HETATM   31  C   UNL     1     -11.019   6.719  67.891  1.00  0.00    -0.309 A  
ENDBRANCH  22  25
ENDBRANCH  12  21
ENDBRANCH  10  11
ENDBRANCH   9  10
ENDBRANCH   5   9
TORSDOF 6
ENDMDL
MODEL       62
REMARK 921   NORMALIZED FREE ENERGY PREDICTED BY IDOCK:   -5.86 KCAL/MOL
REMARK 922        TOTAL FREE ENERGY PREDICTED BY IDOCK:   -9.46 KCAL/MOL
REMARK 923 INTER-LIGAND FREE ENERGY PREDICTED BY IDOCK:   -8.58 KCAL/MOL
REMARK 924 INTRA-LIGAND FREE ENERGY PREDICTED BY IDOCK:   -0.88 KCAL/MOL
REMARK 927      BINDING AFFINITY PREDICTED BY RF-SCORE:    0.00 PKD
ROOT
HETATM    1  C   UNL     1      -9.617   2.954  64.361  1.00  0.00    -0.151 C  
HETATM    2  C   UNL     1      -9.624   4.242  65.121  1.00  0.00    -0.183 A  
HETATM    3  N   UNL     1     -10.641   4.493  65.949  1.00  0.00    -0.245 NA 
HETATM    4  C   UNL     1     -10.572   5.671  66.602  1.00  0.00    -0.295 A  
HETATM    5  C   UNL     1      -9.559   6.613  66.475  1.00  0.00    -0.140 A  
HETATM    6  C   UNL     1      -7.231   6.940  65.359  1.00  0.00    -0.073 C  
HETATM    7  C   UNL     1      -8.536   6.246  65.610  1.00  0.00    -0.148 A  
HETATM    8  N   UNL     1      -8.580   5.065  64.931  1.00  0.00    -0.147 NA 
ENDROOT
BRANCH   5   9
HETATM    9  O   UNL     1      -9.763   7.709  67.257  1.00  0.00    -0.148 OA 
BRANCH   9  10
HETATM   10  C   UNL     1     -10.638   7.595  68.373  1.00  0.00    -0.122 C  
BRANCH  10  11
HETATM   11  C   UNL     1     -10.127   8.474  69.524  1.00  0.00    -0.200 C  
HETATM   12  C   UNL     1     -10.329  10.005  69.407  1.00  0.00    -0.245 C  
HETATM   13  C   UNL     1      -8.980   9.386  69.126  1.00  0.00    -0.147 C  
BRANCH  11  14
HETATM   14  C   UNL     1     -10.168   7.863  70.956  1.00  0.00    -0.217 A  
HETATM   15  C   UNL     1      -9.355   8.343  72.012  1.00  0.00    -0.332 A  
HETATM   16  F   UNL     1     -11.981   5.322  72.875  1.00  0.00    -0.365 F  
HETATM   17  C   UNL     1      -9.433   7.840  73.319  1.00  0.00    -0.344 A  
HETATM   18  C   UNL     1     -11.042   6.814  71.301  1.00  0.00    -0.303 A  
HETATM   19  C   UNL     1     -11.119   6.310  72.602  1.00  0.00    -0.263 A  
HETATM   20  C   UNL     1     -10.328   6.819  73.618  1.00  0.00    -0.372 A  
ENDBRANCH  11  14
BRANCH  12  21
HETATM   21  C   UNL     1     -11.189  10.570  68.315  1.00  0.00    -0.291 C  
HETATM   22  N   UNL     1     -10.497  10.794  67.146  1.00  0.00    -0.224 N  
HETATM   23  H   UNL     1      -9.540  10.447  67.085  1.00  0.00     0.000 HD 
HETATM   24  O   UNL     1     -12.374  10.777  68.528  1.00  0.00    -0.417 OA 
BRANCH  22  25
HETATM   25  C   UNL     1     -11.019  11.467  66.032  1.00  0.00    -0.259 A  
HETATM   26  N   UNL     1     -12.087  12.277  66.170  1.00  0.00    -0.627 NA 
HETATM   27  C   UNL     1     -12.556  12.904  65.065  1.00  0.00    -0.472 A  
HETATM   28  C   UNL     1     -11.994  12.758  63.813  1.00  0.00    -0.510 A  
HETATM   29  C   UNL     1     -10.885  11.940  63.675  1.00  0.00    -0.510 A  
HETATM   30  F   UNL     1     -12.510  13.388  62.752  1.00  0.00    -0.462 F  
HETATM   31  C   UNL     1     -10.381  11.291  64.804  1.00  0.00    -0.366 A  
ENDBRANCH  22  25
ENDBRANCH  12  21
ENDBRANCH  10  11
ENDBRANCH   9  10
ENDBRANCH   5   9
TORSDOF 6
ENDMDL
MODEL       63
REMARK 921   NORMALIZED FREE ENERGY PREDICTED BY IDOCK:   -5.85 KCAL/MOL
REMARK 922        TOTAL FREE ENERGY PREDICTED BY IDOCK:   -9.46 KCAL/MOL
REMARK 923 INTER-LIGAND FREE ENERGY PREDICTED BY IDOCK:   -8.38 KCAL/MOL
REMARK 924 INTRA-LIGAND FREE ENERGY PREDICTED BY IDOCK:   -1.08 KCAL/MOL
REMARK 927      BINDING AFFINITY PREDICTED BY RF-SCORE:    0.00 PKD
ROOT
HETATM    1  C   UNL     1      -9.506   7.958  72.217  1.00  0.00    -0.248 C  
HETATM    2  C   UNL     1     -10.051   8.994  71.287  1.00  0.00    -0.314 A  
HETATM    3  N   UNL     1      -9.372   9.277  70.173  1.00  0.00    -0.209 NA 
HETATM    4  C   UNL     1      -9.931  10.217  69.383  1.00  0.00    -0.233 A  
HETATM    5  C   UNL     1     -11.116  10.895  69.640  1.00  0.00    -0.266 A  
HETATM    6  C   UNL     1     -13.114  10.913  71.308  1.00  0.00    -0.405 C  
HETATM    7  C   UNL     1     -11.759  10.510  70.810  1.00  0.00    -0.356 A  
HETATM    8  N   UNL     1     -11.216   9.567  71.631  1.00  0.00    -0.366 NA 
ENDROOT
BRANCH   5   9
HETATM    9  O   UNL     1     -11.427  11.792  68.664  1.00  0.00    -0.236 OA 
BRANCH   9  10
HETATM   10  C   UNL     1     -10.391  12.613  68.139  1.00  0.00    -0.234 C  
BRANCH  10  11
HETATM   11  C   UNL     1     -10.778  13.103  66.736  1.00  0.00    -0.274 C  
HETATM   12  C   UNL     1     -10.737  14.626  66.466  1.00  0.00    -0.312 C  
HETATM   13  C   UNL     1     -12.052  13.927  66.713  1.00  0.00    -0.476 C  
BRANCH  11  14
HETATM   14  C   UNL     1     -10.442  12.164  65.539  1.00  0.00    -0.300 A  
HETATM   15  C   UNL     1     -10.574  12.573  64.190  1.00  0.00    -0.425 A  
HETATM   16  F   UNL     1      -9.122   8.809  64.884  1.00  0.00    -0.215 F  
HETATM   17  C   UNL     1     -10.213  11.755  63.109  1.00  0.00    -0.376 A  
HETATM   18  C   UNL     1      -9.954  10.856  65.723  1.00  0.00    -0.299 A  
HETATM   19  C   UNL     1      -9.596  10.039  64.648  1.00  0.00    -0.297 A  
HETATM   20  C   UNL     1      -9.713  10.479  63.341  1.00  0.00    -0.368 A  
ENDBRANCH  11  14
BRANCH  12  21
HETATM   21  C   UNL     1     -10.127  15.554  67.475  1.00  0.00    -0.241 C  
HETATM   22  N   UNL     1      -8.873  15.995  67.115  1.00  0.00    -0.195 N  
HETATM   23  H   UNL     1      -8.542  15.771  66.177  1.00  0.00     0.000 HD 
HETATM   24  O   UNL     1     -10.752  15.839  68.486  1.00  0.00    -0.251 OA 
BRANCH  22  25
HETATM   25  C   UNL     1      -8.021  16.730  67.950  1.00  0.00    -0.177 A  
HETATM   26  N   UNL     1      -8.111  18.074  67.995  1.00  0.00    -0.250 NA 
HETATM   27  C   UNL     1      -7.266  18.740  68.817  1.00  0.00    -0.308 A  
HETATM   28  C   UNL     1      -6.325  18.114  69.608  1.00  0.00    -0.179 A  
HETATM   29  C   UNL     1      -6.245  16.732  69.576  1.00  0.00    -0.227 A  
HETATM   30  F   UNL     1      -5.503  18.824  70.389  1.00  0.00    -0.193 F  
HETATM   31  C   UNL     1      -7.113  16.025  68.742  1.00  0.00    -0.146 A  
ENDBRANCH  22  25
ENDBRANCH  12  21
ENDBRANCH  10  11
ENDBRANCH   9  10
ENDBRANCH   5   9
TORSDOF 6
ENDMDL
MODEL       64
REMARK 921   NORMALIZED FREE ENERGY PREDICTED BY IDOCK:   -5.84 KCAL/MOL
REMARK 922        TOTAL FREE ENERGY PREDICTED BY IDOCK:   -9.43 KCAL/MOL
REMARK 923 INTER-LIGAND FREE ENERGY PREDICTED BY IDOCK:   -8.05 KCAL/MOL
REMARK 924 INTRA-LIGAND FREE ENERGY PREDICTED BY IDOCK:   -1.38 KCAL/MOL
REMARK 927      BINDING AFFINITY PREDICTED BY RF-SCORE:    0.00 PKD
ROOT
HETATM    1  C   UNL     1     -13.390   9.577  72.048  1.00  0.00    -0.535 C  
HETATM    2  C   UNL     1     -12.878  10.635  71.124  1.00  0.00    -0.420 A  
HETATM    3  N   UNL     1     -12.432  10.273  69.919  1.00  0.00    -0.067 NA 
HETATM    4  C   UNL     1     -11.993  11.285  69.142  1.00  0.00    -0.336 A  
HETATM    5  C   UNL     1     -11.963  12.628  69.495  1.00  0.00    -0.270 A  
HETATM    6  C   UNL     1     -12.735  14.237  71.390  1.00  0.00    -0.424 C  
HETATM    7  C   UNL     1     -12.473  12.903  70.759  1.00  0.00    -0.286 A  
HETATM    8  N   UNL     1     -12.919  11.901  71.568  1.00  0.00    -0.387 NA 
ENDROOT
BRANCH   5   9
HETATM    9  O   UNL     1     -11.461  13.418  68.507  1.00  0.00    -0.267 OA 
BRANCH   9  10
HETATM   10  C   UNL     1     -10.095  13.811  68.578  1.00  0.00    -0.225 C  
BRANCH  10  11
HETATM   11  C   UNL     1      -9.411  13.551  67.227  1.00  0.00    -0.233 C  
HETATM   12  C   UNL     1      -8.089  12.746  67.231  1.00  0.00    -0.172 C  
HETATM   13  C   UNL     1      -8.070  14.249  67.084  1.00  0.00    -0.154 C  
BRANCH  11  14
HETATM   14  C   UNL     1     -10.335  13.388  65.984  1.00  0.00    -0.297 A  
HETATM   15  C   UNL     1     -10.573  12.132  65.373  1.00  0.00    -0.309 A  
HETATM   16  F   UNL     1     -12.532  15.382  63.833  1.00  0.00    -0.427 F  
HETATM   17  C   UNL     1     -11.454  11.968  64.293  1.00  0.00    -0.435 A  
HETATM   18  C   UNL     1     -11.020  14.474  65.408  1.00  0.00    -0.346 A  
HETATM   19  C   UNL     1     -11.895  14.313  64.331  1.00  0.00    -0.426 A  
HETATM   20  C   UNL     1     -12.126  13.068  63.772  1.00  0.00    -0.574 A  
ENDBRANCH  11  14
BRANCH  12  21
HETATM   21  C   UNL     1      -7.626  12.063  68.484  1.00  0.00    -0.126 C  
HETATM   22  N   UNL     1      -8.073  10.764  68.588  1.00  0.00    -0.128 N  
HETATM   23  H   UNL     1      -8.543  10.357  67.779  1.00  0.00     0.000 HD 
HETATM   24  O   UNL     1      -6.923  12.672  69.277  1.00  0.00    -0.063 OA 
BRANCH  22  25
HETATM   25  C   UNL     1      -7.926   9.964  69.729  1.00  0.00    -0.174 A  
HETATM   26  N   UNL     1      -6.696   9.630  70.168  1.00  0.00    -0.075 NA 
HETATM   27  C   UNL     1      -6.605   8.854  71.274  1.00  0.00    -0.080 A  
HETATM   28  C   UNL     1      -7.704   8.395  71.972  1.00  0.00    -0.123 A  
HETATM   29  C   UNL     1      -8.967   8.753  71.532  1.00  0.00    -0.306 A  
HETATM   30  F   UNL     1      -7.556   7.616  73.049  1.00  0.00    -0.088 F  
HETATM   31  C   UNL     1      -9.082   9.560  70.397  1.00  0.00    -0.296 A  
ENDBRANCH  22  25
ENDBRANCH  12  21
ENDBRANCH  10  11
ENDBRANCH   9  10
ENDBRANCH   5   9
TORSDOF 6
ENDMDL
MODEL       65
REMARK 921   NORMALIZED FREE ENERGY PREDICTED BY IDOCK:   -5.83 KCAL/MOL
REMARK 922        TOTAL FREE ENERGY PREDICTED BY IDOCK:   -9.43 KCAL/MOL
REMARK 923 INTER-LIGAND FREE ENERGY PREDICTED BY IDOCK:   -7.80 KCAL/MOL
REMARK 924 INTRA-LIGAND FREE ENERGY PREDICTED BY IDOCK:   -1.63 KCAL/MOL
REMARK 927      BINDING AFFINITY PREDICTED BY RF-SCORE:    0.00 PKD
ROOT
HETATM    1  C   UNL     1     -12.280  15.474  70.414  1.00  0.00    -0.443 C  
HETATM    2  C   UNL     1     -12.091  14.334  69.466  1.00  0.00    -0.330 A  
HETATM    3  N   UNL     1     -11.822  13.124  69.962  1.00  0.00    -0.315 NA 
HETATM    4  C   UNL     1     -11.671  12.147  69.044  1.00  0.00    -0.322 A  
HETATM    5  C   UNL     1     -11.763  12.305  67.666  1.00  0.00    -0.334 A  
HETATM    6  C   UNL     1     -12.395  14.081  65.873  1.00  0.00    -0.515 C  
HETATM    7  C   UNL     1     -12.070  13.595  67.253  1.00  0.00    -0.345 A  
HETATM    8  N   UNL     1     -12.224  14.604  68.157  1.00  0.00    -0.150 NA 
ENDROOT
BRANCH   5   9
HETATM    9  O   UNL     1     -11.558  11.140  66.992  1.00  0.00    -0.463 OA 
BRANCH   9  10
HETATM   10  C   UNL     1     -10.856  10.090  67.646  1.00  0.00    -0.278 C  
BRANCH  10  11
HETATM   11  C   UNL     1      -9.789   9.513  66.703  1.00  0.00    -0.293 C  
HETATM   12  C   UNL     1      -8.443  10.268  66.588  1.00  0.00    -0.124 C  
HETATM   13  C   UNL     1      -9.492  10.402  65.510  1.00  0.00    -0.267 C  
BRANCH  11  14
HETATM   14  C   UNL     1      -9.747   7.964  66.544  1.00  0.00    -0.279 A  
HETATM   15  C   UNL     1     -10.732   7.114  67.104  1.00  0.00    -0.422 A  
HETATM   16  F   UNL     1      -7.771   5.362  64.884  1.00  0.00    -0.075 F  
HETATM   17  C   UNL     1     -10.735   5.725  66.911  1.00  0.00    -0.381 A  
HETATM   18  C   UNL     1      -8.743   7.311  65.803  1.00  0.00    -0.129 A  
HETATM   19  C   UNL     1      -8.744   5.927  65.611  1.00  0.00    -0.146 A  
HETATM   20  C   UNL     1      -9.735   5.127  66.152  1.00  0.00    -0.192 A  
ENDBRANCH  11  14
BRANCH  12  21
HETATM   21  C   UNL     1      -8.125  11.390  67.533  1.00  0.00    -0.127 C  
HETATM   22  N   UNL     1      -8.242  12.633  66.953  1.00  0.00    -0.373 N  
HETATM   23  H   UNL     1      -8.647  12.686  66.018  1.00  0.00     0.000 HD 
HETATM   24  O   UNL     1      -7.805  11.134  68.684  1.00  0.00    -0.123 OA 
BRANCH  22  25
HETATM   25  C   UNL     1      -7.844  13.832  67.561  1.00  0.00    -0.179 A  
HETATM   26  N   UNL     1      -6.660  14.390  67.246  1.00  0.00    -0.227 NA 
HETATM   27  C   UNL     1      -6.320  15.548  67.861  1.00  0.00    -0.152 A  
HETATM   28  C   UNL     1      -7.124  16.181  68.786  1.00  0.00    -0.155 A  
HETATM   29  C   UNL     1      -8.349  15.617  69.096  1.00  0.00    -0.251 A  
HETATM   30  F   UNL     1      -6.729  17.315  69.376  1.00  0.00    -0.226 F  
HETATM   31  C   UNL     1      -8.723  14.427  68.467  1.00  0.00    -0.180 A  
ENDBRANCH  22  25
ENDBRANCH  12  21
ENDBRANCH  10  11
ENDBRANCH   9  10
ENDBRANCH   5   9
TORSDOF 6
ENDMDL
MODEL       66
REMARK 921   NORMALIZED FREE ENERGY PREDICTED BY IDOCK:   -5.78 KCAL/MOL
REMARK 922        TOTAL FREE ENERGY PREDICTED BY IDOCK:   -9.36 KCAL/MOL
REMARK 923 INTER-LIGAND FREE ENERGY PREDICTED BY IDOCK:   -7.94 KCAL/MOL
REMARK 924 INTRA-LIGAND FREE ENERGY PREDICTED BY IDOCK:   -1.42 KCAL/MOL
REMARK 927      BINDING AFFINITY PREDICTED BY RF-SCORE:    0.00 PKD
ROOT
HETATM    1  C   UNL     1      -5.646   8.429  68.242  1.00  0.00    -0.034 C  
HETATM    2  C   UNL     1      -6.448   9.690  68.283  1.00  0.00    -0.056 A  
HETATM    3  N   UNL     1      -7.636   9.716  67.674  1.00  0.00    -0.091 NA 
HETATM    4  C   UNL     1      -8.301  10.886  67.762  1.00  0.00    -0.117 A  
HETATM    5  C   UNL     1      -7.852  12.031  68.409  1.00  0.00    -0.147 A  
HETATM    6  C   UNL     1      -5.917  12.859  69.940  1.00  0.00    -0.135 C  
HETATM    7  C   UNL     1      -6.618  11.893  69.033  1.00  0.00    -0.091 A  
HETATM    8  N   UNL     1      -5.920  10.725  68.958  1.00  0.00    -0.040 NA 
ENDROOT
BRANCH   5   9
HETATM    9  O   UNL     1      -8.738  13.061  68.325  1.00  0.00    -0.186 OA 
BRANCH   9  10
HETATM   10  C   UNL     1      -9.225  13.437  67.042  1.00  0.00    -0.242 C  
BRANCH  10  11
HETATM   11  C   UNL     1     -10.332  14.490  67.196  1.00  0.00    -0.265 C  
HETATM   12  C   UNL     1     -11.716  14.014  67.702  1.00  0.00    -0.412 C  
HETATM   13  C   UNL     1     -11.491  14.295  66.235  1.00  0.00    -0.360 C  
BRANCH  11  14
HETATM   14  C   UNL     1      -9.891  15.929  67.594  1.00  0.00    -0.233 A  
HETATM   15  C   UNL     1     -10.782  16.866  68.174  1.00  0.00    -0.375 A  
HETATM   16  F   UNL     1      -6.885  18.023  67.685  1.00  0.00    -0.180 F  
HETATM   17  C   UNL     1     -10.376  18.141  68.594  1.00  0.00    -0.315 A  
HETATM   18  C   UNL     1      -8.567  16.382  67.434  1.00  0.00    -0.193 A  
HETATM   19  C   UNL     1      -8.162  17.653  67.849  1.00  0.00    -0.234 A  
HETATM   20  C   UNL     1      -9.052  18.535  68.436  1.00  0.00    -0.345 A  
ENDBRANCH  11  14
BRANCH  12  21
HETATM   21  C   UNL     1     -11.887  12.619  68.228  1.00  0.00    -0.306 C  
HETATM   22  N   UNL     1     -11.771  12.541  69.597  1.00  0.00    -0.377 N  
HETATM   23  H   UNL     1     -11.716  13.415  70.121  1.00  0.00     0.000 HD 
HETATM   24  O   UNL     1     -12.108  11.704  67.447  1.00  0.00    -0.605 OA 
BRANCH  22  25
HETATM   25  C   UNL     1     -11.723  11.342  70.321  1.00  0.00    -0.324 A  
HETATM   26  N   UNL     1     -10.662  10.519  70.200  1.00  0.00    -0.237 NA 
HETATM   27  C   UNL     1     -10.662   9.372  70.919  1.00  0.00    -0.323 A  
HETATM   28  C   UNL     1     -11.688   9.008  71.769  1.00  0.00    -0.369 A  
HETATM   29  C   UNL     1     -12.768   9.862  71.908  1.00  0.00    -0.501 A  
HETATM   30  F   UNL     1     -11.643   7.853  72.442  1.00  0.00    -0.319 F  
HETATM   31  C   UNL     1     -12.784  11.055  71.181  1.00  0.00    -0.521 A  
ENDBRANCH  22  25
ENDBRANCH  12  21
ENDBRANCH  10  11
ENDBRANCH   9  10
ENDBRANCH   5   9
TORSDOF 6
ENDMDL
MODEL       67
REMARK 921   NORMALIZED FREE ENERGY PREDICTED BY IDOCK:   -5.78 KCAL/MOL
REMARK 922        TOTAL FREE ENERGY PREDICTED BY IDOCK:   -9.36 KCAL/MOL
REMARK 923 INTER-LIGAND FREE ENERGY PREDICTED BY IDOCK:   -7.70 KCAL/MOL
REMARK 924 INTRA-LIGAND FREE ENERGY PREDICTED BY IDOCK:   -1.66 KCAL/MOL
REMARK 927      BINDING AFFINITY PREDICTED BY RF-SCORE:    0.00 PKD
ROOT
HETATM    1  C   UNL     1     -12.239  13.874  63.853  1.00  0.00    -0.375 C  
HETATM    2  C   UNL     1     -11.623  12.768  64.648  1.00  0.00    -0.338 A  
HETATM    3  N   UNL     1     -11.967  12.631  65.931  1.00  0.00    -0.495 NA 
HETATM    4  C   UNL     1     -11.374  11.606  66.578  1.00  0.00    -0.263 A  
HETATM    5  C   UNL     1     -10.456  10.720  66.028  1.00  0.00    -0.208 A  
HETATM    6  C   UNL     1      -9.378  10.082  63.747  1.00  0.00    -0.307 C  
HETATM    7  C   UNL     1     -10.185  10.931  64.682  1.00  0.00    -0.345 A  
HETATM    8  N   UNL     1     -10.765  11.961  64.003  1.00  0.00    -0.337 NA 
ENDROOT
BRANCH   5   9
HETATM    9  O   UNL     1     -10.024   9.792  66.926  1.00  0.00    -0.189 OA 
BRANCH   9  10
HETATM   10  C   UNL     1      -8.639   9.749  67.247  1.00  0.00    -0.128 C  
BRANCH  10  11
HETATM   11  C   UNL     1      -8.246   8.323  67.661  1.00  0.00    -0.127 C  
HETATM   12  C   UNL     1      -8.411   7.933  69.151  1.00  0.00    -0.133 C  
HETATM   13  C   UNL     1      -7.049   8.271  68.592  1.00  0.00    -0.072 C  
BRANCH  11  14
HETATM   14  C   UNL     1      -8.458   7.196  66.608  1.00  0.00    -0.121 A  
HETATM   15  C   UNL     1      -7.659   7.082  65.444  1.00  0.00    -0.097 A  
HETATM   16  F   UNL     1     -10.522   4.219  66.052  1.00  0.00    -0.244 F  
HETATM   17  C   UNL     1      -7.801   6.033  64.524  1.00  0.00    -0.113 A  
HETATM   18  C   UNL     1      -9.437   6.195  66.762  1.00  0.00    -0.164 A  
HETATM   19  C   UNL     1      -9.582   5.151  65.845  1.00  0.00    -0.148 A  
HETATM   20  C   UNL     1      -8.768   5.056  64.730  1.00  0.00    -0.149 A  
ENDBRANCH  11  14
BRANCH  12  21
HETATM   21  C   UNL     1      -9.134   8.849  70.094  1.00  0.00    -0.176 C  
HETATM   22  N   UNL     1     -10.471   8.984  69.796  1.00  0.00    -0.213 N  
HETATM   23  H   UNL     1     -10.862   8.374  69.078  1.00  0.00     0.000 HD 
HETATM   24  O   UNL     1      -8.520   9.376  71.010  1.00  0.00    -0.285 OA 
BRANCH  22  25
HETATM   25  C   UNL     1     -11.332   9.902  70.413  1.00  0.00    -0.307 A  
HETATM   26  N   UNL     1     -11.284  11.206  70.076  1.00  0.00    -0.231 NA 
HETATM   27  C   UNL     1     -12.135  12.055  70.700  1.00  0.00    -0.274 A  
HETATM   28  C   UNL     1     -13.045  11.651  71.656  1.00  0.00    -0.351 A  
HETATM   29  C   UNL     1     -13.107  10.309  71.989  1.00  0.00    -0.529 A  
HETATM   30  F   UNL     1     -13.850  12.536  72.254  1.00  0.00    -0.540 F  
HETATM   31  C   UNL     1     -12.244   9.415  71.350  1.00  0.00    -0.438 A  
ENDBRANCH  22  25
ENDBRANCH  12  21
ENDBRANCH  10  11
ENDBRANCH   9  10
ENDBRANCH   5   9
TORSDOF 6
ENDMDL
MODEL       68
REMARK 921   NORMALIZED FREE ENERGY PREDICTED BY IDOCK:   -5.78 KCAL/MOL
REMARK 922        TOTAL FREE ENERGY PREDICTED BY IDOCK:   -9.35 KCAL/MOL
REMARK 923 INTER-LIGAND FREE ENERGY PREDICTED BY IDOCK:   -8.15 KCAL/MOL
REMARK 924 INTRA-LIGAND FREE ENERGY PREDICTED BY IDOCK:   -1.21 KCAL/MOL
REMARK 927      BINDING AFFINITY PREDICTED BY RF-SCORE:    0.00 PKD
ROOT
HETATM    1  C   UNL     1      -7.003  17.327  66.435  1.00  0.00    -0.310 C  
HETATM    2  C   UNL     1      -7.650  16.083  66.955  1.00  0.00    -0.233 A  
HETATM    3  N   UNL     1      -6.902  14.988  67.110  1.00  0.00    -0.233 NA 
HETATM    4  C   UNL     1      -7.556  13.909  67.589  1.00  0.00    -0.178 A  
HETATM    5  C   UNL     1      -8.907  13.855  67.912  1.00  0.00    -0.184 A  
HETATM    6  C   UNL     1     -10.996  15.390  68.132  1.00  0.00    -0.297 C  
HETATM    7  C   UNL     1      -9.590  15.052  67.739  1.00  0.00    -0.203 A  
HETATM    8  N   UNL     1      -8.957  16.157  67.253  1.00  0.00    -0.193 NA 
ENDROOT
BRANCH   5   9
HETATM    9  O   UNL     1      -9.286  12.629  68.367  1.00  0.00    -0.195 OA 
BRANCH   9  10
HETATM   10  C   UNL     1      -8.859  11.476  67.651  1.00  0.00    -0.152 C  
BRANCH  10  11
HETATM   11  C   UNL     1     -10.051  10.860  66.902  1.00  0.00    -0.253 C  
HETATM   12  C   UNL     1     -10.939   9.849  67.667  1.00  0.00    -0.263 C  
HETATM   13  C   UNL     1      -9.913   9.367  66.669  1.00  0.00    -0.326 C  
BRANCH  11  14
HETATM   14  C   UNL     1     -10.752  11.750  65.833  1.00  0.00    -0.328 A  
HETATM   15  C   UNL     1     -10.360  11.755  64.472  1.00  0.00    -0.340 A  
HETATM   16  F   UNL     1     -13.552  14.094  65.524  1.00  0.00    -0.386 F  
HETATM   17  C   UNL     1     -11.027  12.505  63.492  1.00  0.00    -0.472 A  
HETATM   18  C   UNL     1     -11.844  12.582  66.145  1.00  0.00    -0.459 A  
HETATM   19  C   UNL     1     -12.508  13.331  65.171  1.00  0.00    -0.470 A  
HETATM   20  C   UNL     1     -12.116  13.295  63.845  1.00  0.00    -0.531 A  
ENDBRANCH  11  14
BRANCH  12  21
HETATM   21  C   UNL     1     -10.763   9.657  69.145  1.00  0.00    -0.217 C  
HETATM   22  N   UNL     1     -10.152   8.466  69.465  1.00  0.00    -0.195 N  
HETATM   23  H   UNL     1      -9.770   7.907  68.703  1.00  0.00     0.000 HD 
HETATM   24  O   UNL     1     -11.150  10.525  69.914  1.00  0.00    -0.267 OA 
BRANCH  22  25
HETATM   25  C   UNL     1     -10.020   7.969  70.769  1.00  0.00    -0.188 A  
HETATM   26  N   UNL     1      -8.867   8.139  71.445  1.00  0.00    -0.139 NA 
HETATM   27  C   UNL     1      -8.788   7.640  72.702  1.00  0.00    -0.149 A  
HETATM   28  C   UNL     1      -9.825   6.973  73.321  1.00  0.00    -0.214 A  
HETATM   29  C   UNL     1     -11.016   6.814  72.633  1.00  0.00    -0.291 A  
HETATM   30  F   UNL     1      -9.685   6.485  74.558  1.00  0.00    -0.214 F  
HETATM   31  C   UNL     1     -11.122   7.329  71.339  1.00  0.00    -0.268 A  
ENDBRANCH  22  25
ENDBRANCH  12  21
ENDBRANCH  10  11
ENDBRANCH   9  10
ENDBRANCH   5   9
TORSDOF 6
ENDMDL
MODEL       69
REMARK 921   NORMALIZED FREE ENERGY PREDICTED BY IDOCK:   -5.78 KCAL/MOL
REMARK 922        TOTAL FREE ENERGY PREDICTED BY IDOCK:   -9.35 KCAL/MOL
REMARK 923 INTER-LIGAND FREE ENERGY PREDICTED BY IDOCK:   -7.87 KCAL/MOL
REMARK 924 INTRA-LIGAND FREE ENERGY PREDICTED BY IDOCK:   -1.48 KCAL/MOL
REMARK 927      BINDING AFFINITY PREDICTED BY RF-SCORE:    0.00 PKD
ROOT
HETATM    1  C   UNL     1     -13.383   7.889  71.997  1.00  0.00    -0.251 C  
HETATM    2  C   UNL     1     -12.719   9.000  71.249  1.00  0.00    -0.262 A  
HETATM    3  N   UNL     1     -13.447  10.064  70.902  1.00  0.00    -0.261 NA 
HETATM    4  C   UNL     1     -12.776  11.026  70.235  1.00  0.00    -0.183 A  
HETATM    5  C   UNL     1     -11.431  10.988  69.887  1.00  0.00    -0.320 A  
HETATM    6  C   UNL     1      -9.290   9.556  70.254  1.00  0.00    -0.305 C  
HETATM    7  C   UNL     1     -10.758   9.851  70.316  1.00  0.00    -0.310 A  
HETATM    8  N   UNL     1     -11.410   8.860  70.987  1.00  0.00    -0.276 NA 
ENDROOT
BRANCH   5   9
HETATM    9  O   UNL     1     -11.034  12.101  69.212  1.00  0.00    -0.200 OA 
BRANCH   9  10
HETATM   10  C   UNL     1     -11.259  12.162  67.809  1.00  0.00    -0.275 C  
BRANCH  10  11
HETATM   11  C   UNL     1     -10.024  12.752  67.111  1.00  0.00    -0.218 C  
HETATM   12  C   UNL     1      -9.159  11.802  66.247  1.00  0.00    -0.209 C  
HETATM   13  C   UNL     1      -8.711  12.199  67.634  1.00  0.00    -0.172 C  
BRANCH  11  14
HETATM   14  C   UNL     1     -10.111  14.239  66.656  1.00  0.00    -0.274 A  
HETATM   15  C   UNL     1      -9.452  15.286  67.346  1.00  0.00    -0.200 A  
HETATM   16  F   UNL     1     -11.531  16.274  63.959  1.00  0.00    -0.471 F  
HETATM   17  C   UNL     1      -9.474  16.618  66.905  1.00  0.00    -0.248 A  
HETATM   18  C   UNL     1     -10.824  14.634  65.507  1.00  0.00    -0.352 A  
HETATM   19  C   UNL     1     -10.848  15.960  65.068  1.00  0.00    -0.426 A  
HETATM   20  C   UNL     1     -10.173  16.956  65.752  1.00  0.00    -0.287 A  
ENDBRANCH  11  14
BRANCH  12  21
HETATM   21  C   UNL     1      -9.645  10.417  65.934  1.00  0.00    -0.206 C  
HETATM   22  N   UNL     1      -9.337   9.502  66.916  1.00  0.00    -0.142 N  
HETATM   23  H   UNL     1      -8.945   9.855  67.789  1.00  0.00     0.000 HD 
HETATM   24  O   UNL     1     -10.248  10.213  64.891  1.00  0.00    -0.300 OA 
BRANCH  22  25
HETATM   25  C   UNL     1      -9.527   8.119  66.797  1.00  0.00    -0.198 A  
HETATM   26  N   UNL     1      -8.642   7.370  66.111  1.00  0.00    -0.140 NA 
HETATM   27  C   UNL     1      -8.869   6.038  66.024  1.00  0.00    -0.153 A  
HETATM   28  C   UNL     1      -9.954   5.413  66.603  1.00  0.00    -0.195 A  
HETATM   29  C   UNL     1     -10.854   6.180  67.324  1.00  0.00    -0.438 A  
HETATM   30  F   UNL     1     -10.139   4.095  66.470  1.00  0.00    -0.230 F  
HETATM   31  C   UNL     1     -10.634   7.554  67.433  1.00  0.00    -0.364 A  
ENDBRANCH  22  25
ENDBRANCH  12  21
ENDBRANCH  10  11
ENDBRANCH   9  10
ENDBRANCH   5   9
TORSDOF 6
ENDMDL
MODEL       70
REMARK 921   NORMALIZED FREE ENERGY PREDICTED BY IDOCK:   -5.77 KCAL/MOL
REMARK 922        TOTAL FREE ENERGY PREDICTED BY IDOCK:   -9.34 KCAL/MOL
REMARK 923 INTER-LIGAND FREE ENERGY PREDICTED BY IDOCK:   -8.16 KCAL/MOL
REMARK 924 INTRA-LIGAND FREE ENERGY PREDICTED BY IDOCK:   -1.18 KCAL/MOL
REMARK 927      BINDING AFFINITY PREDICTED BY RF-SCORE:    0.00 PKD
ROOT
HETATM    1  C   UNL     1      -8.879  11.044  62.883  1.00  0.00    -0.255 C  
HETATM    2  C   UNL     1      -8.855  10.289  64.173  1.00  0.00    -0.222 A  
HETATM    3  N   UNL     1     -10.013   9.901  64.712  1.00  0.00    -0.201 NA 
HETATM    4  C   UNL     1      -9.908   9.220  65.871  1.00  0.00    -0.265 A  
HETATM    5  C   UNL     1      -8.723   8.911  66.528  1.00  0.00    -0.130 A  
HETATM    6  C   UNL     1      -6.144   9.040  66.211  1.00  0.00    -0.063 C  
HETATM    7  C   UNL     1      -7.574   9.336  65.874  1.00  0.00    -0.098 A  
HETATM    8  N   UNL     1      -7.648  10.031  64.703  1.00  0.00    -0.140 NA 
ENDROOT
BRANCH   5   9
HETATM    9  O   UNL     1      -8.931   8.219  67.682  1.00  0.00    -0.135 OA 
BRANCH   9  10
HETATM   10  C   UNL     1     -10.214   8.283  68.293  1.00  0.00    -0.208 C  
BRANCH  10  11
HETATM   11  C   UNL     1     -10.091   8.901  69.694  1.00  0.00    -0.202 C  
HETATM   12  C   UNL     1     -10.596  10.351  69.890  1.00  0.00    -0.299 C  
HETATM   13  C   UNL     1      -9.119  10.064  69.760  1.00  0.00    -0.219 C  
BRANCH  11  14
HETATM   14  C   UNL     1     -10.226   7.935  70.908  1.00  0.00    -0.213 A  
HETATM   15  C   UNL     1     -10.428   8.399  72.231  1.00  0.00    -0.407 A  
HETATM   16  F   UNL     1     -10.342   4.347  71.647  1.00  0.00    -0.254 F  
HETATM   17  C   UNL     1     -10.614   7.534  73.320  1.00  0.00    -0.438 A  
HETATM   18  C   UNL     1     -10.190   6.534  70.764  1.00  0.00    -0.218 A  
HETATM   19  C   UNL     1     -10.372   5.672  71.847  1.00  0.00    -0.215 A  
HETATM   20  C   UNL     1     -10.592   6.158  73.124  1.00  0.00    -0.269 A  
ENDBRANCH  11  14
BRANCH  12  21
HETATM   21  C   UNL     1     -11.373  11.032  68.802  1.00  0.00    -0.283 C  
HETATM   22  N   UNL     1     -10.587  11.812  67.984  1.00  0.00    -0.199 N  
HETATM   23  H   UNL     1      -9.575  11.753  68.100  1.00  0.00     0.000 HD 
HETATM   24  O   UNL     1     -12.580  10.855  68.723  1.00  0.00    -0.317 OA 
BRANCH  22  25
HETATM   25  C   UNL     1     -11.082  12.680  67.001  1.00  0.00    -0.281 A  
HETATM   26  N   UNL     1     -12.051  12.269  66.160  1.00  0.00    -0.627 NA 
HETATM   27  C   UNL     1     -12.496  13.144  65.228  1.00  0.00    -0.495 A  
HETATM   28  C   UNL     1     -12.011  14.429  65.099  1.00  0.00    -0.391 A  
HETATM   29  C   UNL     1     -11.028  14.858  65.975  1.00  0.00    -0.334 A  
HETATM   30  F   UNL     1     -12.475  15.246  64.147  1.00  0.00    -0.499 F  
HETATM   31  C   UNL     1     -10.561  13.974  66.950  1.00  0.00    -0.280 A  
ENDBRANCH  22  25
ENDBRANCH  12  21
ENDBRANCH  10  11
ENDBRANCH   9  10
ENDBRANCH   5   9
TORSDOF 6
ENDMDL
MODEL       71
REMARK 921   NORMALIZED FREE ENERGY PREDICTED BY IDOCK:   -5.77 KCAL/MOL
REMARK 922        TOTAL FREE ENERGY PREDICTED BY IDOCK:   -9.34 KCAL/MOL
REMARK 923 INTER-LIGAND FREE ENERGY PREDICTED BY IDOCK:   -8.40 KCAL/MOL
REMARK 924 INTRA-LIGAND FREE ENERGY PREDICTED BY IDOCK:   -0.94 KCAL/MOL
REMARK 927      BINDING AFFINITY PREDICTED BY RF-SCORE:    0.00 PKD
ROOT
HETATM    1  C   UNL     1      -6.729  18.044  68.993  1.00  0.00    -0.252 C  
HETATM    2  C   UNL     1      -7.614  16.839  68.964  1.00  0.00    -0.218 A  
HETATM    3  N   UNL     1      -7.061  15.633  69.115  1.00  0.00    -0.154 NA 
HETATM    4  C   UNL     1      -7.925  14.598  69.084  1.00  0.00    -0.097 A  
HETATM    5  C   UNL     1      -9.300  14.690  68.902  1.00  0.00    -0.160 A  
HETATM    6  C   UNL     1     -11.201  16.459  68.731  1.00  0.00    -0.313 C  
HETATM    7  C   UNL     1      -9.778  15.989  68.780  1.00  0.00    -0.226 A  
HETATM    8  N   UNL     1      -8.929  17.055  68.803  1.00  0.00    -0.267 NA 
ENDROOT
BRANCH   5   9
HETATM    9  O   UNL     1      -9.911  13.474  68.910  1.00  0.00    -0.126 OA 
BRANCH   9  10
HETATM   10  C   UNL     1      -9.322  12.412  68.170  1.00  0.00    -0.209 C  
BRANCH  10  11
HETATM   11  C   UNL     1     -10.369  11.787  67.236  1.00  0.00    -0.231 C  
HETATM   12  C   UNL     1     -11.256  10.652  67.802  1.00  0.00    -0.383 C  
HETATM   13  C   UNL     1     -10.089  10.334  66.898  1.00  0.00    -0.274 C  
BRANCH  11  14
HETATM   14  C   UNL     1     -11.012  12.720  66.167  1.00  0.00    -0.310 A  
HETATM   15  C   UNL     1     -12.154  12.345  65.418  1.00  0.00    -0.428 A  
HETATM   16  F   UNL     1     -10.630  16.092  64.785  1.00  0.00    -0.396 F  
HETATM   17  C   UNL     1     -12.776  13.205  64.500  1.00  0.00    -0.270 A  
HETATM   18  C   UNL     1     -10.519  14.012  65.901  1.00  0.00    -0.314 A  
HETATM   19  C   UNL     1     -11.136  14.868  64.986  1.00  0.00    -0.414 A  
HETATM   20  C   UNL     1     -12.266  14.480  64.288  1.00  0.00    -0.441 A  
ENDBRANCH  11  14
BRANCH  12  21
HETATM   21  C   UNL     1     -11.234  10.339  69.270  1.00  0.00    -0.228 C  
HETATM   22  N   UNL     1     -10.494   9.218  69.572  1.00  0.00    -0.214 N  
HETATM   23  H   UNL     1      -9.941   8.797  68.824  1.00  0.00     0.000 HD 
HETATM   24  O   UNL     1     -11.837  11.063  70.049  1.00  0.00    -0.290 OA 
BRANCH  22  25
HETATM   25  C   UNL     1     -10.447   8.615  70.836  1.00  0.00    -0.214 A  
HETATM   26  N   UNL     1     -11.499   7.905  71.287  1.00  0.00    -0.261 NA 
HETATM   27  C   UNL     1     -11.407   7.343  72.515  1.00  0.00    -0.313 A  
HETATM   28  C   UNL     1     -10.293   7.458  73.322  1.00  0.00    -0.355 A  
HETATM   29  C   UNL     1      -9.205   8.173  72.851  1.00  0.00    -0.343 A  
HETATM   30  F   UNL     1     -10.263   6.897  74.535  1.00  0.00    -0.363 F  
HETATM   31  C   UNL     1      -9.276   8.754  71.583  1.00  0.00    -0.333 A  
ENDBRANCH  22  25
ENDBRANCH  12  21
ENDBRANCH  10  11
ENDBRANCH   9  10
ENDBRANCH   5   9
TORSDOF 6
ENDMDL
MODEL       72
REMARK 921   NORMALIZED FREE ENERGY PREDICTED BY IDOCK:   -5.76 KCAL/MOL
REMARK 922        TOTAL FREE ENERGY PREDICTED BY IDOCK:   -9.34 KCAL/MOL
REMARK 923 INTER-LIGAND FREE ENERGY PREDICTED BY IDOCK:   -7.68 KCAL/MOL
REMARK 924 INTRA-LIGAND FREE ENERGY PREDICTED BY IDOCK:   -1.65 KCAL/MOL
REMARK 927      BINDING AFFINITY PREDICTED BY RF-SCORE:    0.00 PKD
ROOT
HETATM    1  C   UNL     1     -12.656  14.052  65.435  1.00  0.00    -0.529 C  
HETATM    2  C   UNL     1     -11.925  12.804  65.811  1.00  0.00    -0.449 A  
HETATM    3  N   UNL     1     -12.081  12.316  67.044  1.00  0.00    -0.543 NA 
HETATM    4  C   UNL     1     -11.393  11.185  67.305  1.00  0.00    -0.226 A  
HETATM    5  C   UNL     1     -10.556  10.519  66.418  1.00  0.00    -0.149 A  
HETATM    6  C   UNL     1      -9.811  10.560  63.925  1.00  0.00    -0.373 C  
HETATM    7  C   UNL     1     -10.482  11.093  65.154  1.00  0.00    -0.277 A  
HETATM    8  N   UNL     1     -11.161  12.238  64.863  1.00  0.00    -0.302 NA 
ENDROOT
BRANCH   5   9
HETATM    9  O   UNL     1      -9.993   9.407  66.965  1.00  0.00    -0.191 OA 
BRANCH   9  10
HETATM   10  C   UNL     1      -8.623   9.456  67.348  1.00  0.00    -0.125 C  
BRANCH  10  11
HETATM   11  C   UNL     1      -8.512   9.420  68.879  1.00  0.00    -0.122 C  
HETATM   12  C   UNL     1      -7.750  10.575  69.574  1.00  0.00    -0.141 C  
HETATM   13  C   UNL     1      -7.090   9.231  69.378  1.00  0.00    -0.053 C  
BRANCH  11  14
HETATM   14  C   UNL     1      -9.698   8.783  69.662  1.00  0.00    -0.173 A  
HETATM   15  C   UNL     1     -10.013   7.405  69.578  1.00  0.00    -0.179 A  
HETATM   16  F   UNL     1     -12.275   9.706  72.098  1.00  0.00    -0.425 F  
HETATM   17  C   UNL     1     -11.039   6.813  70.329  1.00  0.00    -0.360 A  
HETATM   18  C   UNL     1     -10.516   9.533  70.530  1.00  0.00    -0.358 A  
HETATM   19  C   UNL     1     -11.540   8.946  71.276  1.00  0.00    -0.304 A  
HETATM   20  C   UNL     1     -11.805   7.590  71.191  1.00  0.00    -0.324 A  
ENDBRANCH  11  14
BRANCH  12  21
HETATM   21  C   UNL     1      -7.338  11.786  68.790  1.00  0.00    -0.114 C  
HETATM   22  N   UNL     1      -8.245  12.818  68.876  1.00  0.00    -0.339 N  
HETATM   23  H   UNL     1      -9.012  12.724  69.541  1.00  0.00     0.000 HD 
HETATM   24  O   UNL     1      -6.286  11.771  68.169  1.00  0.00    -0.049 OA 
BRANCH  22  25
HETATM   25  C   UNL     1      -8.185  13.991  68.111  1.00  0.00    -0.155 A  
HETATM   26  N   UNL     1      -7.308  14.963  68.429  1.00  0.00    -0.108 NA 
HETATM   27  C   UNL     1      -7.288  16.078  67.660  1.00  0.00    -0.151 A  
HETATM   28  C   UNL     1      -8.115  16.265  66.571  1.00  0.00    -0.302 A  
HETATM   29  C   UNL     1      -9.004  15.258  66.233  1.00  0.00    -0.314 A  
HETATM   30  F   UNL     1      -8.066  17.395  65.858  1.00  0.00    -0.294 F  
HETATM   31  C   UNL     1      -9.034  14.096  67.008  1.00  0.00    -0.251 A  
ENDBRANCH  22  25
ENDBRANCH  12  21
ENDBRANCH  10  11
ENDBRANCH   9  10
ENDBRANCH   5   9
TORSDOF 6
ENDMDL
MODEL       73
REMARK 921   NORMALIZED FREE ENERGY PREDICTED BY IDOCK:   -5.76 KCAL/MOL
REMARK 922        TOTAL FREE ENERGY PREDICTED BY IDOCK:   -9.33 KCAL/MOL
REMARK 923 INTER-LIGAND FREE ENERGY PREDICTED BY IDOCK:   -8.27 KCAL/MOL
REMARK 924 INTRA-LIGAND FREE ENERGY PREDICTED BY IDOCK:   -1.06 KCAL/MOL
REMARK 927      BINDING AFFINITY PREDICTED BY RF-SCORE:    0.00 PKD
ROOT
HETATM    1  C   UNL     1      -9.639   3.235  64.549  1.00  0.00    -0.154 C  
HETATM    2  C   UNL     1      -9.583   4.510  65.327  1.00  0.00    -0.172 A  
HETATM    3  N   UNL     1     -10.618   4.830  66.108  1.00  0.00    -0.302 NA 
HETATM    4  C   UNL     1     -10.490   5.992  66.783  1.00  0.00    -0.267 A  
HETATM    5  C   UNL     1      -9.401   6.853  66.720  1.00  0.00    -0.158 A  
HETATM    6  C   UNL     1      -7.002   7.008  65.725  1.00  0.00    -0.060 C  
HETATM    7  C   UNL     1      -8.368   6.416  65.900  1.00  0.00    -0.143 A  
HETATM    8  N   UNL     1      -8.470   5.250  65.202  1.00  0.00    -0.144 NA 
ENDROOT
BRANCH   5   9
HETATM    9  O   UNL     1      -9.558   7.952  67.508  1.00  0.00    -0.144 OA 
BRANCH   9  10
HETATM   10  C   UNL     1     -10.502   7.898  68.571  1.00  0.00    -0.167 C  
BRANCH  10  11
HETATM   11  C   UNL     1     -10.026   8.783  69.732  1.00  0.00    -0.193 C  
HETATM   12  C   UNL     1     -10.230  10.313  69.605  1.00  0.00    -0.268 C  
HETATM   13  C   UNL     1      -8.872   9.698  69.363  1.00  0.00    -0.183 C  
BRANCH  11  14
HETATM   14  C   UNL     1     -10.105   8.177  71.164  1.00  0.00    -0.222 A  
HETATM   15  C   UNL     1     -11.096   7.236  71.539  1.00  0.00    -0.264 A  
HETATM   16  F   UNL     1      -8.292   8.242  74.348  1.00  0.00    -0.293 F  
HETATM   17  C   UNL     1     -11.134   6.638  72.808  1.00  0.00    -0.283 A  
HETATM   18  C   UNL     1      -9.174   8.500  72.171  1.00  0.00    -0.336 A  
HETATM   19  C   UNL     1      -9.213   7.907  73.435  1.00  0.00    -0.286 A  
HETATM   20  C   UNL     1     -10.180   6.972  73.762  1.00  0.00    -0.401 A  
ENDBRANCH  11  14
BRANCH  12  21
HETATM   21  C   UNL     1     -11.062  10.871  68.487  1.00  0.00    -0.256 C  
HETATM   22  N   UNL     1     -10.339  11.095  67.337  1.00  0.00    -0.189 N  
HETATM   23  H   UNL     1      -9.379  10.752  67.304  1.00  0.00     0.000 HD 
HETATM   24  O   UNL     1     -12.254  11.073  68.667  1.00  0.00    -0.571 OA 
BRANCH  22  25
HETATM   25  C   UNL     1     -10.832  11.763  66.208  1.00  0.00    -0.281 A  
HETATM   26  N   UNL     1     -11.545  12.897  66.349  1.00  0.00    -0.351 NA 
HETATM   27  C   UNL     1     -12.001  13.505  65.229  1.00  0.00    -0.373 A  
HETATM   28  C   UNL     1     -11.771  13.024  63.956  1.00  0.00    -0.436 A  
HETATM   29  C   UNL     1     -11.023  11.868  63.809  1.00  0.00    -0.494 A  
HETATM   30  F   UNL     1     -12.262  13.656  62.884  1.00  0.00    -0.504 F  
HETATM   31  C   UNL     1     -10.536  11.230  64.952  1.00  0.00    -0.375 A  
ENDBRANCH  22  25
ENDBRANCH  12  21
ENDBRANCH  10  11
ENDBRANCH   9  10
ENDBRANCH   5   9
TORSDOF 6
ENDMDL
MODEL       74
REMARK 921   NORMALIZED FREE ENERGY PREDICTED BY IDOCK:   -5.75 KCAL/MOL
REMARK 922        TOTAL FREE ENERGY PREDICTED BY IDOCK:   -9.32 KCAL/MOL
REMARK 923 INTER-LIGAND FREE ENERGY PREDICTED BY IDOCK:   -8.62 KCAL/MOL
REMARK 924 INTRA-LIGAND FREE ENERGY PREDICTED BY IDOCK:   -0.70 KCAL/MOL
REMARK 927      BINDING AFFINITY PREDICTED BY RF-SCORE:    0.00 PKD
ROOT
HETATM    1  C   UNL     1     -13.520  13.062  72.432  1.00  0.00    -0.615 C  
HETATM    2  C   UNL     1     -12.765  14.063  71.617  1.00  0.00    -0.339 A  
HETATM    3  N   UNL     1     -12.168  15.081  72.242  1.00  0.00    -0.347 NA 
HETATM    4  C   UNL     1     -11.503  15.937  71.440  1.00  0.00    -0.417 A  
HETATM    5  C   UNL     1     -11.404  15.846  70.057  1.00  0.00    -0.358 A  
HETATM    6  C   UNL     1     -12.001  14.251  68.089  1.00  0.00    -0.343 C  
HETATM    7  C   UNL     1     -12.038  14.739  69.506  1.00  0.00    -0.290 A  
HETATM    8  N   UNL     1     -12.722  13.859  70.290  1.00  0.00    -0.251 NA 
ENDROOT
BRANCH   5   9
HETATM    9  O   UNL     1     -10.672  16.859  69.517  1.00  0.00    -0.326 OA 
BRANCH   9  10
HETATM   10  C   UNL     1     -10.230  16.736  68.170  1.00  0.00    -0.301 C  
BRANCH  10  11
HETATM   11  C   UNL     1      -8.697  16.827  68.118  1.00  0.00    -0.219 C  
HETATM   12  C   UNL     1      -7.915  15.577  67.647  1.00  0.00    -0.168 C  
HETATM   13  C   UNL     1      -8.002  15.918  69.115  1.00  0.00    -0.233 C  
BRANCH  11  14
HETATM   14  C   UNL     1      -8.081  18.216  67.777  1.00  0.00    -0.240 A  
HETATM   15  C   UNL     1      -8.198  18.807  66.495  1.00  0.00    -0.303 A  
HETATM   16  F   UNL     1      -6.266  20.959  69.393  1.00  0.00    -0.352 F  
HETATM   17  C   UNL     1      -7.702  20.085  66.199  1.00  0.00    -0.320 A  
HETATM   18  C   UNL     1      -7.395  18.990  68.733  1.00  0.00    -0.366 A  
HETATM   19  C   UNL     1      -6.897  20.262  68.439  1.00  0.00    -0.259 A  
HETATM   20  C   UNL     1      -7.051  20.821  67.182  1.00  0.00    -0.404 A  
ENDBRANCH  11  14
BRANCH  12  21
HETATM   21  C   UNL     1      -8.648  14.408  67.057  1.00  0.00    -0.203 C  
HETATM   22  N   UNL     1      -8.570  13.274  67.834  1.00  0.00    -0.175 N  
HETATM   23  H   UNL     1      -8.157  13.361  68.762  1.00  0.00     0.000 HD 
HETATM   24  O   UNL     1      -9.231  14.539  65.990  1.00  0.00    -0.208 OA 
BRANCH  22  25
HETATM   25  C   UNL     1      -9.022  12.008  67.436  1.00  0.00    -0.176 A  
HETATM   26  N   UNL     1      -8.395  11.346  66.444  1.00  0.00    -0.163 NA 
HETATM   27  C   UNL     1      -8.868  10.126  66.096  1.00  0.00    -0.145 A  
HETATM   28  C   UNL     1      -9.954   9.530  66.705  1.00  0.00    -0.247 A  
HETATM   29  C   UNL     1     -10.587  10.203  67.737  1.00  0.00    -0.304 A  
HETATM   30  F   UNL     1     -10.391   8.330  66.307  1.00  0.00    -0.343 F  
HETATM   31  C   UNL     1     -10.109  11.458  68.118  1.00  0.00    -0.200 A  
ENDBRANCH  22  25
ENDBRANCH  12  21
ENDBRANCH  10  11
ENDBRANCH   9  10
ENDBRANCH   5   9
TORSDOF 6
ENDMDL
MODEL       75
REMARK 921   NORMALIZED FREE ENERGY PREDICTED BY IDOCK:   -5.72 KCAL/MOL
REMARK 922        TOTAL FREE ENERGY PREDICTED BY IDOCK:   -9.28 KCAL/MOL
REMARK 923 INTER-LIGAND FREE ENERGY PREDICTED BY IDOCK:   -7.94 KCAL/MOL
REMARK 924 INTRA-LIGAND FREE ENERGY PREDICTED BY IDOCK:   -1.34 KCAL/MOL
REMARK 927      BINDING AFFINITY PREDICTED BY RF-SCORE:    0.00 PKD
ROOT
HETATM    1  C   UNL     1      -7.498  18.177  67.247  1.00  0.00    -0.223 C  
HETATM    2  C   UNL     1      -8.046  16.793  67.383  1.00  0.00    -0.170 A  
HETATM    3  N   UNL     1      -7.410  15.926  68.175  1.00  0.00    -0.124 NA 
HETATM    4  C   UNL     1      -7.969  14.701  68.251  1.00  0.00    -0.133 A  
HETATM    5  C   UNL     1      -9.114  14.286  67.582  1.00  0.00    -0.192 A  
HETATM    6  C   UNL     1     -11.028  15.217  66.084  1.00  0.00    -0.331 C  
HETATM    7  C   UNL     1      -9.714  15.269  66.804  1.00  0.00    -0.236 A  
HETATM    8  N   UNL     1      -9.170  16.514  66.704  1.00  0.00    -0.234 NA 
ENDROOT
BRANCH   5   9
HETATM    9  O   UNL     1      -9.436  12.991  67.850  1.00  0.00    -0.203 OA 
BRANCH   9  10
HETATM   10  C   UNL     1      -8.432  11.995  67.695  1.00  0.00    -0.160 C  
BRANCH  10  11
HETATM   11  C   UNL     1      -9.054  10.718  67.109  1.00  0.00    -0.153 C  
HETATM   12  C   UNL     1     -10.069   9.943  67.984  1.00  0.00    -0.202 C  
HETATM   13  C   UNL     1      -8.647   9.454  67.844  1.00  0.00    -0.120 C  
BRANCH  11  14
HETATM   14  C   UNL     1      -9.276  10.681  65.568  1.00  0.00    -0.228 A  
HETATM   15  C   UNL     1      -8.676   9.704  64.736  1.00  0.00    -0.219 A  
HETATM   16  F   UNL     1     -11.178  12.414  62.959  1.00  0.00    -0.454 F  
HETATM   17  C   UNL     1      -8.922   9.626  63.357  1.00  0.00    -0.246 A  
HETATM   18  C   UNL     1     -10.115  11.598  64.906  1.00  0.00    -0.303 A  
HETATM   19  C   UNL     1     -10.359  11.523  63.533  1.00  0.00    -0.433 A  
HETATM   20  C   UNL     1      -9.776  10.540  62.752  1.00  0.00    -0.265 A  
ENDBRANCH  11  14
BRANCH  12  21
HETATM   21  C   UNL     1     -10.581  10.546  69.259  1.00  0.00    -0.236 C  
HETATM   22  N   UNL     1     -11.571  11.481  69.054  1.00  0.00    -0.288 N  
HETATM   23  H   UNL     1     -11.946  11.578  68.110  1.00  0.00     0.000 HD 
HETATM   24  O   UNL     1     -10.112  10.183  70.328  1.00  0.00    -0.227 OA 
BRANCH  22  25
HETATM   25  C   UNL     1     -12.099  12.309  70.054  1.00  0.00    -0.273 A  
HETATM   26  N   UNL     1     -11.822  13.627  70.059  1.00  0.00    -0.314 NA 
HETATM   27  C   UNL     1     -12.355  14.385  71.046  1.00  0.00    -0.357 A  
HETATM   28  C   UNL     1     -13.166  13.877  72.041  1.00  0.00    -0.416 A  
HETATM   29  C   UNL     1     -13.466  12.525  72.025  1.00  0.00    -0.486 A  
HETATM   30  F   UNL     1     -13.651  14.669  73.003  1.00  0.00    -0.516 F  
HETATM   31  C   UNL     1     -12.934  11.727  71.010  1.00  0.00    -0.200 A  
ENDBRANCH  22  25
ENDBRANCH  12  21
ENDBRANCH  10  11
ENDBRANCH   9  10
ENDBRANCH   5   9
TORSDOF 6
ENDMDL
MODEL       76
REMARK 921   NORMALIZED FREE ENERGY PREDICTED BY IDOCK:   -5.70 KCAL/MOL
REMARK 922        TOTAL FREE ENERGY PREDICTED BY IDOCK:   -9.25 KCAL/MOL
REMARK 923 INTER-LIGAND FREE ENERGY PREDICTED BY IDOCK:   -8.18 KCAL/MOL
REMARK 924 INTRA-LIGAND FREE ENERGY PREDICTED BY IDOCK:   -1.07 KCAL/MOL
REMARK 927      BINDING AFFINITY PREDICTED BY RF-SCORE:    0.00 PKD
ROOT
HETATM    1  C   UNL     1     -13.772  15.848  72.950  1.00  0.00    -0.588 C  
HETATM    2  C   UNL     1     -13.216  14.951  71.891  1.00  0.00    -0.350 A  
HETATM    3  N   UNL     1     -13.247  13.631  72.087  1.00  0.00    -0.426 NA 
HETATM    4  C   UNL     1     -12.733  12.889  71.084  1.00  0.00    -0.276 A  
HETATM    5  C   UNL     1     -12.183  13.382  69.907  1.00  0.00    -0.271 A  
HETATM    6  C   UNL     1     -11.866  15.612  68.604  1.00  0.00    -0.306 C  
HETATM    7  C   UNL     1     -12.221  14.766  69.789  1.00  0.00    -0.294 A  
HETATM    8  N   UNL     1     -12.730  15.542  70.787  1.00  0.00    -0.456 NA 
ENDROOT
BRANCH   5   9
HETATM    9  O   UNL     1     -11.738  12.394  69.084  1.00  0.00    -0.288 OA 
BRANCH   9  10
HETATM   10  C   UNL     1     -11.221  11.204  69.667  1.00  0.00    -0.264 C  
BRANCH  10  11
HETATM   11  C   UNL     1     -10.683  10.279  68.565  1.00  0.00    -0.262 C  
HETATM   12  C   UNL     1      -9.501  10.791  67.706  1.00  0.00    -0.165 C  
HETATM   13  C   UNL     1     -10.910  10.811  67.162  1.00  0.00    -0.335 C  
BRANCH  11  14
HETATM   14  C   UNL     1     -10.750   8.746  68.832  1.00  0.00    -0.114 A  
HETATM   15  C   UNL     1     -10.873   8.204  70.135  1.00  0.00    -0.241 A  
HETATM   16  F   UNL     1     -10.835   5.575  66.996  1.00  0.00    -0.286 F  
HETATM   17  C   UNL     1     -10.999   6.828  70.377  1.00  0.00    -0.330 A  
HETATM   18  C   UNL     1     -10.726   7.799  67.789  1.00  0.00    -0.197 A  
HETATM   19  C   UNL     1     -10.849   6.428  68.029  1.00  0.00    -0.316 A  
HETATM   20  C   UNL     1     -10.993   5.933  69.313  1.00  0.00    -0.397 A  
ENDBRANCH  11  14
BRANCH  12  21
HETATM   21  C   UNL     1      -8.779  12.048  68.092  1.00  0.00    -0.177 C  
HETATM   22  N   UNL     1      -9.351  13.183  67.562  1.00  0.00    -0.199 N  
HETATM   23  H   UNL     1     -10.249  13.087  67.089  1.00  0.00     0.000 HD 
HETATM   24  O   UNL     1      -7.792  11.980  68.810  1.00  0.00    -0.113 OA 
BRANCH  22  25
HETATM   25  C   UNL     1      -8.782  14.463  67.628  1.00  0.00    -0.189 A  
HETATM   26  N   UNL     1      -8.554  15.162  66.500  1.00  0.00    -0.249 NA 
HETATM   27  C   UNL     1      -8.002  16.393  66.616  1.00  0.00    -0.288 A  
HETATM   28  C   UNL     1      -7.666  16.964  67.827  1.00  0.00    -0.173 A  
HETATM   29  C   UNL     1      -7.918  16.253  68.988  1.00  0.00    -0.238 A  
HETATM   30  F   UNL     1      -7.107  18.178  67.881  1.00  0.00    -0.202 F  
HETATM   31  C   UNL     1      -8.494  14.985  68.891  1.00  0.00    -0.192 A  
ENDBRANCH  22  25
ENDBRANCH  12  21
ENDBRANCH  10  11
ENDBRANCH   9  10
ENDBRANCH   5   9
TORSDOF 6
ENDMDL
MODEL       77
REMARK 921   NORMALIZED FREE ENERGY PREDICTED BY IDOCK:   -5.64 KCAL/MOL
REMARK 922        TOTAL FREE ENERGY PREDICTED BY IDOCK:   -9.17 KCAL/MOL
REMARK 923 INTER-LIGAND FREE ENERGY PREDICTED BY IDOCK:   -7.58 KCAL/MOL
REMARK 924 INTRA-LIGAND FREE ENERGY PREDICTED BY IDOCK:   -1.59 KCAL/MOL
REMARK 927      BINDING AFFINITY PREDICTED BY RF-SCORE:    0.00 PKD
ROOT
HETATM    1  C   UNL     1      -8.399  13.557  67.739  1.00  0.00    -0.181 C  
HETATM    2  C   UNL     1      -8.406  12.093  68.043  1.00  0.00    -0.167 A  
HETATM    3  N   UNL     1      -7.763  11.661  69.131  1.00  0.00     0.001 NA 
HETATM    4  C   UNL     1      -7.821  10.329  69.340  1.00  0.00    -0.157 A  
HETATM    5  C   UNL     1      -8.470   9.406  68.530  1.00  0.00    -0.119 A  
HETATM    6  C   UNL     1     -10.048   9.287  66.464  1.00  0.00    -0.343 C  
HETATM    7  C   UNL     1      -9.130   9.959  67.440  1.00  0.00    -0.134 A  
HETATM    8  N   UNL     1      -9.086  11.300  67.199  1.00  0.00    -0.156 NA 
ENDROOT
BRANCH   5   9
HETATM    9  O   UNL     1      -8.351   8.131  68.992  1.00  0.00    -0.125 OA 
BRANCH   9  10
HETATM   10  C   UNL     1      -8.917   7.809  70.257  1.00  0.00    -0.148 C  
BRANCH  10  11
HETATM   11  C   UNL     1     -10.066   6.807  70.071  1.00  0.00    -0.200 C  
HETATM   12  C   UNL     1     -11.427   7.139  70.731  1.00  0.00    -0.342 C  
HETATM   13  C   UNL     1     -10.495   6.132  71.362  1.00  0.00    -0.273 C  
BRANCH  11  14
HETATM   14  C   UNL     1     -10.104   6.013  68.732  1.00  0.00    -0.210 A  
HETATM   15  C   UNL     1     -10.996   6.336  67.681  1.00  0.00    -0.438 A  
HETATM   16  F   UNL     1      -8.362   3.267  67.042  1.00  0.00    -0.090 F  
HETATM   17  C   UNL     1     -10.993   5.666  66.448  1.00  0.00    -0.083 A  
HETATM   18  C   UNL     1      -9.230   4.940  68.468  1.00  0.00    -0.157 A  
HETATM   19  C   UNL     1      -9.227   4.270  67.242  1.00  0.00    -0.150 A  
HETATM   20  C   UNL     1     -10.095   4.628  66.225  1.00  0.00    -0.292 A  
ENDBRANCH  11  14
BRANCH  12  21
HETATM   21  C   UNL     1     -11.662   8.492  71.334  1.00  0.00    -0.294 C  
HETATM   22  N   UNL     1     -12.233   9.383  70.453  1.00  0.00    -0.468 N  
HETATM   23  H   UNL     1     -12.555   9.024  69.555  1.00  0.00     0.000 HD 
HETATM   24  O   UNL     1     -11.350   8.695  72.498  1.00  0.00    -0.340 OA 
BRANCH  22  25
HETATM   25  C   UNL     1     -12.403  10.751  70.708  1.00  0.00    -0.383 A  
HETATM   26  N   UNL     1     -13.145  11.158  71.757  1.00  0.00    -0.470 NA 
HETATM   27  C   UNL     1     -13.279  12.490  71.961  1.00  0.00    -0.419 A  
HETATM   28  C   UNL     1     -12.695  13.445  71.154  1.00  0.00    -0.328 A  
HETATM   29  C   UNL     1     -11.918  13.027  70.087  1.00  0.00    -0.374 A  
HETATM   30  F   UNL     1     -12.877  14.749  71.392  1.00  0.00    -0.328 F  
HETATM   31  C   UNL     1     -11.759  11.658  69.864  1.00  0.00    -0.414 A  
ENDBRANCH  22  25
ENDBRANCH  12  21
ENDBRANCH  10  11
ENDBRANCH   9  10
ENDBRANCH   5   9
TORSDOF 6
ENDMDL
MODEL       78
REMARK 921   NORMALIZED FREE ENERGY PREDICTED BY IDOCK:   -5.62 KCAL/MOL
REMARK 922        TOTAL FREE ENERGY PREDICTED BY IDOCK:   -9.14 KCAL/MOL
REMARK 923 INTER-LIGAND FREE ENERGY PREDICTED BY IDOCK:   -8.30 KCAL/MOL
REMARK 924 INTRA-LIGAND FREE ENERGY PREDICTED BY IDOCK:   -0.84 KCAL/MOL
REMARK 927      BINDING AFFINITY PREDICTED BY RF-SCORE:    0.00 PKD
ROOT
HETATM    1  C   UNL     1      -6.843  19.637  68.783  1.00  0.00    -0.362 C  
HETATM    2  C   UNL     1      -7.740  18.499  68.411  1.00  0.00    -0.298 A  
HETATM    3  N   UNL     1      -7.607  17.340  69.059  1.00  0.00    -0.221 NA 
HETATM    4  C   UNL     1      -8.456  16.365  68.671  1.00  0.00    -0.229 A  
HETATM    5  C   UNL     1      -9.418  16.473  67.675  1.00  0.00    -0.225 A  
HETATM    6  C   UNL     1     -10.503  18.235  66.097  1.00  0.00    -0.403 C  
HETATM    7  C   UNL     1      -9.492  17.727  67.080  1.00  0.00    -0.271 A  
HETATM    8  N   UNL     1      -8.645  18.730  67.447  1.00  0.00    -0.271 NA 
ENDROOT
BRANCH   5   9
HETATM    9  O   UNL     1     -10.122  15.322  67.501  1.00  0.00    -0.230 OA 
BRANCH   9  10
HETATM   10  C   UNL     1      -9.909  14.249  68.411  1.00  0.00    -0.233 C  
BRANCH  10  11
HETATM   11  C   UNL     1     -11.205  13.441  68.573  1.00  0.00    -0.316 C  
HETATM   12  C   UNL     1     -11.221  11.988  68.040  1.00  0.00    -0.316 C  
HETATM   13  C   UNL     1     -11.875  13.100  67.255  1.00  0.00    -0.420 C  
BRANCH  11  14
HETATM   14  C   UNL     1     -12.076  13.743  69.829  1.00  0.00    -0.400 A  
HETATM   15  C   UNL     1     -12.560  15.041  70.126  1.00  0.00    -0.312 A  
HETATM   16  F   UNL     1     -13.648  12.001  72.643  1.00  0.00    -0.447 F  
HETATM   17  C   UNL     1     -13.397  15.307  71.219  1.00  0.00    -0.586 A  
HETATM   18  C   UNL     1     -12.466  12.737  70.734  1.00  0.00    -0.357 A  
HETATM   19  C   UNL     1     -13.297  13.001  71.824  1.00  0.00    -0.378 A  
HETATM   20  C   UNL     1     -13.774  14.277  72.072  1.00  0.00    -0.542 A  
ENDBRANCH  11  14
BRANCH  12  21
HETATM   21  C   UNL     1      -9.947  11.337  67.587  1.00  0.00    -0.178 C  
HETATM   22  N   UNL     1     -10.027  10.822  66.313  1.00  0.00    -0.215 N  
HETATM   23  H   UNL     1     -10.860  11.038  65.764  1.00  0.00     0.000 HD 
HETATM   24  O   UNL     1      -8.983  11.314  68.338  1.00  0.00    -0.156 OA 
BRANCH  22  25
HETATM   25  C   UNL     1      -9.042  10.023  65.717  1.00  0.00    -0.163 A  
HETATM   26  N   UNL     1      -8.095  10.582  64.939  1.00  0.00    -0.129 NA 
HETATM   27  C   UNL     1      -7.164   9.769  64.386  1.00  0.00    -0.129 A  
HETATM   28  C   UNL     1      -7.138   8.402  64.581  1.00  0.00    -0.080 A  
HETATM   29  C   UNL     1      -8.100   7.830  65.395  1.00  0.00    -0.131 A  
HETATM   30  F   UNL     1      -6.206   7.644  63.994  1.00  0.00    -0.046 F  
HETATM   31  C   UNL     1      -9.064   8.653  65.983  1.00  0.00    -0.255 A  
ENDBRANCH  22  25
ENDBRANCH  12  21
ENDBRANCH  10  11
ENDBRANCH   9  10
ENDBRANCH   5   9
TORSDOF 6
ENDMDL
MODEL       79
REMARK 921   NORMALIZED FREE ENERGY PREDICTED BY IDOCK:   -5.60 KCAL/MOL
REMARK 922        TOTAL FREE ENERGY PREDICTED BY IDOCK:   -9.12 KCAL/MOL
REMARK 923 INTER-LIGAND FREE ENERGY PREDICTED BY IDOCK:   -8.02 KCAL/MOL
REMARK 924 INTRA-LIGAND FREE ENERGY PREDICTED BY IDOCK:   -1.10 KCAL/MOL
REMARK 927      BINDING AFFINITY PREDICTED BY RF-SCORE:    0.00 PKD
ROOT
HETATM    1  C   UNL     1      -6.177   9.259  69.476  1.00  0.00    -0.040 C  
HETATM    2  C   UNL     1      -6.889  10.491  69.020  1.00  0.00    -0.068 A  
HETATM    3  N   UNL     1      -8.187  10.407  68.717  1.00  0.00    -0.120 NA 
HETATM    4  C   UNL     1      -8.760  11.562  68.319  1.00  0.00    -0.162 A  
HETATM    5  C   UNL     1      -8.118  12.789  68.198  1.00  0.00    -0.158 A  
HETATM    6  C   UNL     1      -5.836  13.934  68.702  1.00  0.00    -0.088 C  
HETATM    7  C   UNL     1      -6.777  12.776  68.562  1.00  0.00    -0.090 A  
HETATM    8  N   UNL     1      -6.169  11.623  68.962  1.00  0.00    -0.060 NA 
ENDROOT
BRANCH   5   9
HETATM    9  O   UNL     1      -8.953  13.775  67.769  1.00  0.00    -0.175 OA 
BRANCH   9  10
HETATM   10  C   UNL     1      -9.211  13.889  66.375  1.00  0.00    -0.152 C  
BRANCH  10  11
HETATM   11  C   UNL     1     -10.145  15.081  66.117  1.00  0.00    -0.312 C  
HETATM   12  C   UNL     1     -11.635  14.929  66.507  1.00  0.00    -0.254 C  
HETATM   13  C   UNL     1     -11.204  14.804  65.065  1.00  0.00    -0.399 C  
BRANCH  11  14
HETATM   14  C   UNL     1      -9.525  16.505  66.235  1.00  0.00    -0.339 A  
HETATM   15  C   UNL     1      -8.128  16.723  66.314  1.00  0.00    -0.365 A  
HETATM   16  F   UNL     1     -10.551  20.023  66.265  1.00  0.00    -0.526 F  
HETATM   17  C   UNL     1      -7.560  18.005  66.356  1.00  0.00    -0.297 A  
HETATM   18  C   UNL     1     -10.314  17.672  66.237  1.00  0.00    -0.342 A  
HETATM   19  C   UNL     1      -9.751  18.949  66.281  1.00  0.00    -0.344 A  
HETATM   20  C   UNL     1      -8.379  19.128  66.333  1.00  0.00    -0.326 A  
ENDBRANCH  11  14
BRANCH  12  21
HETATM   21  C   UNL     1     -12.086  13.743  67.308  1.00  0.00    -0.357 C  
HETATM   22  N   UNL     1     -11.983  13.939  68.667  1.00  0.00    -0.379 N  
HETATM   23  H   UNL     1     -11.748  14.875  68.996  1.00  0.00     0.000 HD 
HETATM   24  O   UNL     1     -12.494  12.746  66.731  1.00  0.00    -0.336 OA 
BRANCH  22  25
HETATM   25  C   UNL     1     -12.179  12.939  69.630  1.00  0.00    -0.141 A  
HETATM   26  N   UNL     1     -11.771  11.677  69.388  1.00  0.00    -0.311 NA 
HETATM   27  C   UNL     1     -11.982  10.746  70.348  1.00  0.00    -0.357 A  
HETATM   28  C   UNL     1     -12.590  11.025  71.556  1.00  0.00    -0.356 A  
HETATM   29  C   UNL     1     -12.993  12.325  71.811  1.00  0.00    -0.431 A  
HETATM   30  F   UNL     1     -12.790  10.061  72.461  1.00  0.00    -0.403 F  
HETATM   31  C   UNL     1     -12.776  13.302  70.838  1.00  0.00    -0.332 A  
ENDBRANCH  22  25
ENDBRANCH  12  21
ENDBRANCH  10  11
ENDBRANCH   9  10
ENDBRANCH   5   9
TORSDOF 6
ENDMDL
MODEL       80
REMARK 921   NORMALIZED FREE ENERGY PREDICTED BY IDOCK:   -5.59 KCAL/MOL
REMARK 922        TOTAL FREE ENERGY PREDICTED BY IDOCK:   -9.10 KCAL/MOL
REMARK 923 INTER-LIGAND FREE ENERGY PREDICTED BY IDOCK:   -7.75 KCAL/MOL
REMARK 924 INTRA-LIGAND FREE ENERGY PREDICTED BY IDOCK:   -1.35 KCAL/MOL
REMARK 927      BINDING AFFINITY PREDICTED BY RF-SCORE:    0.00 PKD
ROOT
HETATM    1  C   UNL     1      -9.280   6.569  69.612  1.00  0.00    -0.143 C  
HETATM    2  C   UNL     1      -9.440   8.020  69.293  1.00  0.00    -0.155 A  
HETATM    3  N   UNL     1     -10.631   8.458  68.875  1.00  0.00    -0.185 NA 
HETATM    4  C   UNL     1     -10.697   9.779  68.612  1.00  0.00    -0.216 A  
HETATM    5  C   UNL     1      -9.651  10.686  68.733  1.00  0.00    -0.186 A  
HETATM    6  C   UNL     1      -7.199  10.840  69.591  1.00  0.00    -0.127 C  
HETATM    7  C   UNL     1      -8.463  10.136  69.199  1.00  0.00    -0.156 A  
HETATM    8  N   UNL     1      -8.364   8.804  69.467  1.00  0.00    -0.117 NA 
ENDROOT
BRANCH   5   9
HETATM    9  O   UNL     1     -10.015  11.953  68.392  1.00  0.00    -0.197 OA 
BRANCH   9  10
HETATM   10  C   UNL     1      -9.435  12.539  67.233  1.00  0.00    -0.193 C  
BRANCH  10  11
HETATM   11  C   UNL     1     -10.394  12.391  66.042  1.00  0.00    -0.275 C  
HETATM   12  C   UNL     1     -11.267  13.612  65.661  1.00  0.00    -0.305 C  
HETATM   13  C   UNL     1     -11.860  12.457  66.433  1.00  0.00    -0.421 C  
BRANCH  11  14
HETATM   14  C   UNL     1      -9.944  11.454  64.882  1.00  0.00    -0.311 A  
HETATM   15  C   UNL     1     -10.226  11.736  63.523  1.00  0.00    -0.483 A  
HETATM   16  F   UNL     1      -8.025   8.381  64.335  1.00  0.00    -0.116 F  
HETATM   17  C   UNL     1      -9.769  10.930  62.469  1.00  0.00    -0.171 A  
HETATM   18  C   UNL     1      -9.198  10.281  65.108  1.00  0.00    -0.252 A  
HETATM   19  C   UNL     1      -8.744   9.477  64.060  1.00  0.00    -0.216 A  
HETATM   20  C   UNL     1      -9.016   9.794  62.741  1.00  0.00    -0.274 A  
ENDBRANCH  11  14
BRANCH  12  21
HETATM   21  C   UNL     1     -11.012  14.947  66.297  1.00  0.00    -0.338 C  
HETATM   22  N   UNL     1     -10.058  15.687  65.635  1.00  0.00    -0.347 N  
HETATM   23  H   UNL     1      -9.723  15.337  64.737  1.00  0.00     0.000 HD 
HETATM   24  O   UNL     1     -11.637  15.265  67.298  1.00  0.00    -0.286 OA 
BRANCH  22  25
HETATM   25  C   UNL     1      -9.517  16.889  66.110  1.00  0.00    -0.245 A  
HETATM   26  N   UNL     1     -10.190  18.046  65.949  1.00  0.00    -0.588 NA 
HETATM   27  C   UNL     1      -9.626  19.181  66.424  1.00  0.00    -0.361 A  
HETATM   28  C   UNL     1      -8.404  19.211  67.065  1.00  0.00    -0.276 A  
HETATM   29  C   UNL     1      -7.721  18.020  67.247  1.00  0.00    -0.220 A  
HETATM   30  F   UNL     1      -7.885  20.365  67.499  1.00  0.00    -0.317 F  
HETATM   31  C   UNL     1      -8.290  16.837  66.772  1.00  0.00    -0.272 A  
ENDBRANCH  22  25
ENDBRANCH  12  21
ENDBRANCH  10  11
ENDBRANCH   9  10
ENDBRANCH   5   9
TORSDOF 6
ENDMDL
MODEL       81
REMARK 921   NORMALIZED FREE ENERGY PREDICTED BY IDOCK:   -5.59 KCAL/MOL
REMARK 922        TOTAL FREE ENERGY PREDICTED BY IDOCK:   -9.10 KCAL/MOL
REMARK 923 INTER-LIGAND FREE ENERGY PREDICTED BY IDOCK:   -8.01 KCAL/MOL
REMARK 924 INTRA-LIGAND FREE ENERGY PREDICTED BY IDOCK:   -1.09 KCAL/MOL
REMARK 927      BINDING AFFINITY PREDICTED BY RF-SCORE:    0.00 PKD
ROOT
HETATM    1  C   UNL     1     -13.213  10.601  72.036  1.00  0.00    -0.473 C  
HETATM    2  C   UNL     1     -12.871  11.878  71.336  1.00  0.00    -0.307 A  
HETATM    3  N   UNL     1     -12.076  11.829  70.264  1.00  0.00    -0.351 NA 
HETATM    4  C   UNL     1     -11.819  13.020  69.685  1.00  0.00    -0.319 A  
HETATM    5  C   UNL     1     -12.297  14.252  70.113  1.00  0.00    -0.353 A  
HETATM    6  C   UNL     1     -13.942  15.292  71.840  1.00  0.00    -0.644 C  
HETATM    7  C   UNL     1     -13.136  14.192  71.219  1.00  0.00    -0.350 A  
HETATM    8  N   UNL     1     -13.410  13.004  71.829  1.00  0.00    -0.411 NA 
ENDROOT
BRANCH   5   9
HETATM    9  O   UNL     1     -11.865  15.280  69.332  1.00  0.00    -0.315 OA 
BRANCH   9  10
HETATM   10  C   UNL     1     -10.970  14.994  68.264  1.00  0.00    -0.271 C  
BRANCH  10  11
HETATM   11  C   UNL     1      -9.786  15.972  68.303  1.00  0.00    -0.219 C  
HETATM   12  C   UNL     1      -8.358  15.381  68.222  1.00  0.00    -0.150 C  
HETATM   13  C   UNL     1      -8.926  15.833  69.546  1.00  0.00    -0.183 C  
BRANCH  11  14
HETATM   14  C   UNL     1     -10.007  17.377  67.668  1.00  0.00    -0.300 A  
HETATM   15  C   UNL     1     -10.204  17.562  66.278  1.00  0.00    -0.356 A  
HETATM   16  F   UNL     1     -10.369  20.885  68.663  1.00  0.00    -0.215 F  
HETATM   17  C   UNL     1     -10.466  18.816  65.708  1.00  0.00    -0.317 A  
HETATM   18  C   UNL     1     -10.058  18.553  68.442  1.00  0.00    -0.423 A  
HETATM   19  C   UNL     1     -10.317  19.803  67.875  1.00  0.00    -0.433 A  
HETATM   20  C   UNL     1     -10.530  19.946  66.515  1.00  0.00    -0.589 A  
ENDBRANCH  11  14
BRANCH  12  21
HETATM   21  C   UNL     1      -8.160  13.930  67.894  1.00  0.00    -0.158 C  
HETATM   22  N   UNL     1      -7.738  13.186  68.973  1.00  0.00    -0.331 N  
HETATM   23  H   UNL     1      -7.728  13.637  69.887  1.00  0.00     0.000 HD 
HETATM   24  O   UNL     1      -8.379  13.534  66.758  1.00  0.00    -0.061 OA 
BRANCH  22  25
HETATM   25  C   UNL     1      -7.322  11.849  68.899  1.00  0.00    -0.080 A  
HETATM   26  N   UNL     1      -8.177  10.896  68.481  1.00  0.00    -0.132 NA 
HETATM   27  C   UNL     1      -7.729   9.619  68.428  1.00  0.00    -0.081 A  
HETATM   28  C   UNL     1      -6.445   9.249  68.776  1.00  0.00    -0.048 A  
HETATM   29  C   UNL     1      -5.561  10.232  69.188  1.00  0.00    -0.037 A  
HETATM   30  F   UNL     1      -6.061   7.970  68.722  1.00  0.00    -0.035 F  
HETATM   31  C   UNL     1      -6.001  11.556  69.242  1.00  0.00    -0.065 A  
ENDBRANCH  22  25
ENDBRANCH  12  21
ENDBRANCH  10  11
ENDBRANCH   9  10
ENDBRANCH   5   9
TORSDOF 6
ENDMDL
MODEL       82
REMARK 921   NORMALIZED FREE ENERGY PREDICTED BY IDOCK:   -5.58 KCAL/MOL
REMARK 922        TOTAL FREE ENERGY PREDICTED BY IDOCK:   -9.09 KCAL/MOL
REMARK 923 INTER-LIGAND FREE ENERGY PREDICTED BY IDOCK:   -7.99 KCAL/MOL
REMARK 924 INTRA-LIGAND FREE ENERGY PREDICTED BY IDOCK:   -1.10 KCAL/MOL
REMARK 927      BINDING AFFINITY PREDICTED BY RF-SCORE:    0.00 PKD
ROOT
HETATM    1  C   UNL     1     -13.888  13.977  72.531  1.00  0.00    -0.610 C  
HETATM    2  C   UNL     1     -13.156  13.122  71.547  1.00  0.00    -0.315 A  
HETATM    3  N   UNL     1     -13.167  11.797  71.715  1.00  0.00    -0.420 NA 
HETATM    4  C   UNL     1     -12.490  11.095  70.783  1.00  0.00    -0.384 A  
HETATM    5  C   UNL     1     -11.798  11.631  69.704  1.00  0.00    -0.352 A  
HETATM    6  C   UNL     1     -11.382  13.897  68.495  1.00  0.00    -0.311 C  
HETATM    7  C   UNL     1     -11.869  13.015  69.604  1.00  0.00    -0.319 A  
HETATM    8  N   UNL     1     -12.542  13.752  70.533  1.00  0.00    -0.317 NA 
ENDROOT
BRANCH   5   9
HETATM    9  O   UNL     1     -11.207  10.676  68.936  1.00  0.00    -0.239 OA 
BRANCH   9  10
HETATM   10  C   UNL     1      -9.786  10.624  68.889  1.00  0.00    -0.202 C  
BRANCH  10  11
HETATM   11  C   UNL     1      -9.336   9.813  67.664  1.00  0.00    -0.157 C  
HETATM   12  C   UNL     1      -9.415   8.270  67.751  1.00  0.00    -0.171 C  
HETATM   13  C   UNL     1      -8.092   8.980  67.912  1.00  0.00    -0.106 C  
BRANCH  11  14
HETATM   14  C   UNL     1      -9.572  10.455  66.265  1.00  0.00    -0.230 A  
HETATM   15  C   UNL     1      -9.442   9.723  65.059  1.00  0.00    -0.337 A  
HETATM   16  F   UNL     1     -10.614  13.635  64.771  1.00  0.00    -0.328 F  
HETATM   17  C   UNL     1      -9.715  10.277  63.800  1.00  0.00    -0.298 A  
HETATM   18  C   UNL     1      -9.962  11.800  66.109  1.00  0.00    -0.254 A  
HETATM   19  C   UNL     1     -10.231  12.354  64.856  1.00  0.00    -0.278 A  
HETATM   20  C   UNL     1     -10.119  11.604  63.699  1.00  0.00    -0.435 A  
ENDBRANCH  11  14
BRANCH  12  21
HETATM   21  C   UNL     1     -10.112   7.615  68.907  1.00  0.00    -0.197 C  
HETATM   22  N   UNL     1      -9.314   7.499  70.023  1.00  0.00    -0.154 N  
HETATM   23  H   UNL     1      -8.409   7.969  70.011  1.00  0.00     0.000 HD 
HETATM   24  O   UNL     1     -11.273   7.253  68.783  1.00  0.00     0.022 OA 
BRANCH  22  25
HETATM   25  C   UNL     1      -9.663   6.782  71.176  1.00  0.00    -0.174 A  
HETATM   26  N   UNL     1      -9.542   5.440  71.201  1.00  0.00    -0.159 NA 
HETATM   27  C   UNL     1      -9.891   4.792  72.337  1.00  0.00    -0.161 A  
HETATM   28  C   UNL     1     -10.361   5.434  73.465  1.00  0.00    -0.224 A  
HETATM   29  C   UNL     1     -10.468   6.814  73.445  1.00  0.00    -0.335 A  
HETATM   30  F   UNL     1     -10.709   4.741  74.554  1.00  0.00    -0.302 F  
HETATM   31  C   UNL     1     -10.104   7.503  72.286  1.00  0.00    -0.244 A  
ENDBRANCH  22  25
ENDBRANCH  12  21
ENDBRANCH  10  11
ENDBRANCH   9  10
ENDBRANCH   5   9
TORSDOF 6
ENDMDL
MODEL       83
REMARK 921   NORMALIZED FREE ENERGY PREDICTED BY IDOCK:   -5.57 KCAL/MOL
REMARK 922        TOTAL FREE ENERGY PREDICTED BY IDOCK:   -9.08 KCAL/MOL
REMARK 923 INTER-LIGAND FREE ENERGY PREDICTED BY IDOCK:   -7.71 KCAL/MOL
REMARK 924 INTRA-LIGAND FREE ENERGY PREDICTED BY IDOCK:   -1.37 KCAL/MOL
REMARK 927      BINDING AFFINITY PREDICTED BY RF-SCORE:    0.00 PKD
ROOT
HETATM    1  C   UNL     1     -11.266  15.686  65.013  1.00  0.00    -0.335 C  
HETATM    2  C   UNL     1     -11.448  14.476  65.873  1.00  0.00    -0.345 A  
HETATM    3  N   UNL     1     -11.319  13.269  65.317  1.00  0.00    -0.292 NA 
HETATM    4  C   UNL     1     -11.491  12.228  66.158  1.00  0.00    -0.374 A  
HETATM    5  C   UNL     1     -11.790  12.318  67.512  1.00  0.00    -0.261 A  
HETATM    6  C   UNL     1     -12.026  14.074  69.417  1.00  0.00    -0.390 C  
HETATM    7  C   UNL     1     -11.877  13.616  67.998  1.00  0.00    -0.362 A  
HETATM    8  N   UNL     1     -11.714  14.688  67.172  1.00  0.00    -0.385 NA 
ENDROOT
BRANCH   5   9
HETATM    9  O   UNL     1     -11.911  11.097  68.102  1.00  0.00    -0.615 OA 
BRANCH   9  10
HETATM   10  C   UNL     1     -11.069  10.789  69.207  1.00  0.00    -0.256 C  
BRANCH  10  11
HETATM   11  C   UNL     1     -10.539   9.354  69.070  1.00  0.00    -0.233 C  
HETATM   12  C   UNL     1      -9.342   9.115  68.117  1.00  0.00    -0.147 C  
HETATM   13  C   UNL     1     -10.746   8.761  67.688  1.00  0.00    -0.206 C  
BRANCH  11  14
HETATM   14  C   UNL     1     -10.635   8.440  70.327  1.00  0.00    -0.234 A  
HETATM   15  C   UNL     1     -11.380   7.235  70.337  1.00  0.00    -0.299 A  
HETATM   16  F   UNL     1      -9.324   8.209  73.741  1.00  0.00    -0.322 F  
HETATM   17  C   UNL     1     -11.420   6.376  71.445  1.00  0.00    -0.363 A  
HETATM   18  C   UNL     1      -9.959   8.736  71.527  1.00  0.00    -0.370 A  
HETATM   19  C   UNL     1      -9.999   7.882  72.632  1.00  0.00    -0.266 A  
HETATM   20  C   UNL     1     -10.717   6.699  72.600  1.00  0.00    -0.265 A  
ENDBRANCH  11  14
BRANCH  12  21
HETATM   21  C   UNL     1      -8.601  10.281  67.531  1.00  0.00    -0.118 C  
HETATM   22  N   UNL     1      -8.116  11.146  68.486  1.00  0.00    -0.139 N  
HETATM   23  H   UNL     1      -8.182  10.863  69.463  1.00  0.00     0.000 HD 
HETATM   24  O   UNL     1      -8.484  10.371  66.318  1.00  0.00    -0.135 OA 
BRANCH  22  25
HETATM   25  C   UNL     1      -7.536  12.391  68.205  1.00  0.00    -0.131 A  
HETATM   26  N   UNL     1      -6.198  12.542  68.252  1.00  0.00    -0.060 NA 
HETATM   27  C   UNL     1      -5.686  13.764  67.973  1.00  0.00    -0.132 A  
HETATM   28  C   UNL     1      -6.462  14.856  67.643  1.00  0.00    -0.145 A  
HETATM   29  C   UNL     1      -7.836  14.697  67.578  1.00  0.00    -0.212 A  
HETATM   30  F   UNL     1      -5.904  16.045  67.395  1.00  0.00    -0.149 F  
HETATM   31  C   UNL     1      -8.384  13.442  67.853  1.00  0.00    -0.166 A  
ENDBRANCH  22  25
ENDBRANCH  12  21
ENDBRANCH  10  11
ENDBRANCH   9  10
ENDBRANCH   5   9
TORSDOF 6
ENDMDL
MODEL       84
REMARK 921   NORMALIZED FREE ENERGY PREDICTED BY IDOCK:   -5.57 KCAL/MOL
REMARK 922        TOTAL FREE ENERGY PREDICTED BY IDOCK:   -9.08 KCAL/MOL
REMARK 923 INTER-LIGAND FREE ENERGY PREDICTED BY IDOCK:   -7.91 KCAL/MOL
REMARK 924 INTRA-LIGAND FREE ENERGY PREDICTED BY IDOCK:   -1.17 KCAL/MOL
REMARK 927      BINDING AFFINITY PREDICTED BY RF-SCORE:    0.00 PKD
ROOT
HETATM    1  C   UNL     1     -12.693   9.743  71.706  1.00  0.00    -0.519 C  
HETATM    2  C   UNL     1     -11.807  10.343  70.661  1.00  0.00    -0.350 A  
HETATM    3  N   UNL     1     -12.267  11.371  69.943  1.00  0.00    -0.293 NA 
HETATM    4  C   UNL     1     -11.408  11.861  69.026  1.00  0.00    -0.279 A  
HETATM    5  C   UNL     1     -10.127  11.384  68.775  1.00  0.00    -0.188 A  
HETATM    6  C   UNL     1      -8.385   9.687  69.701  1.00  0.00    -0.173 C  
HETATM    7  C   UNL     1      -9.734  10.330  69.591  1.00  0.00    -0.185 A  
HETATM    8  N   UNL     1     -10.582   9.811  70.524  1.00  0.00    -0.296 NA 
ENDROOT
BRANCH   5   9
HETATM    9  O   UNL     1      -9.496  12.074  67.786  1.00  0.00    -0.179 OA 
BRANCH   9  10
HETATM   10  C   UNL     1      -8.608  11.371  66.924  1.00  0.00    -0.154 C  
BRANCH  10  11
HETATM   11  C   UNL     1      -9.259  11.190  65.545  1.00  0.00    -0.236 C  
HETATM   12  C   UNL     1      -9.361   9.753  64.978  1.00  0.00    -0.325 C  
HETATM   13  C   UNL     1      -8.295  10.700  64.480  1.00  0.00    -0.043 C  
BRANCH  11  14
HETATM   14  C   UNL     1     -10.396  12.183  65.162  1.00  0.00    -0.311 A  
HETATM   15  C   UNL     1     -11.719  11.756  64.886  1.00  0.00    -0.187 A  
HETATM   16  F   UNL     1     -10.975  15.781  64.779  1.00  0.00    -0.398 F  
HETATM   17  C   UNL     1     -12.762  12.650  64.603  1.00  0.00    -0.458 A  
HETATM   18  C   UNL     1     -10.190  13.574  65.097  1.00  0.00    -0.334 A  
HETATM   19  C   UNL     1     -11.227  14.466  64.812  1.00  0.00    -0.387 A  
HETATM   20  C   UNL     1     -12.515  14.018  64.572  1.00  0.00    -0.342 A  
ENDBRANCH  11  14
BRANCH  12  21
HETATM   21  C   UNL     1      -9.035   8.575  65.848  1.00  0.00    -0.189 C  
HETATM   22  N   UNL     1     -10.153   7.899  66.283  1.00  0.00    -0.478 N  
HETATM   23  H   UNL     1     -11.054   8.164  65.884  1.00  0.00     0.000 HD 
HETATM   24  O   UNL     1      -7.866   8.312  66.093  1.00  0.00    -0.094 OA 
BRANCH  22  25
HETATM   25  C   UNL     1     -10.138   6.871  67.235  1.00  0.00    -0.198 A  
HETATM   26  N   UNL     1      -9.434   5.745  67.006  1.00  0.00    -0.120 NA 
HETATM   27  C   UNL     1      -9.451   4.781  67.956  1.00  0.00    -0.140 A  
HETATM   28  C   UNL     1     -10.147   4.894  69.142  1.00  0.00    -0.159 A  
HETATM   29  C   UNL     1     -10.855   6.059  69.386  1.00  0.00    -0.433 A  
HETATM   30  F   UNL     1     -10.143   3.902  70.038  1.00  0.00    -0.269 F  
HETATM   31  C   UNL     1     -10.844   7.070  68.423  1.00  0.00    -0.191 A  
ENDBRANCH  22  25
ENDBRANCH  12  21
ENDBRANCH  10  11
ENDBRANCH   9  10
ENDBRANCH   5   9
TORSDOF 6
ENDMDL
MODEL       85
REMARK 921   NORMALIZED FREE ENERGY PREDICTED BY IDOCK:   -5.57 KCAL/MOL
REMARK 922        TOTAL FREE ENERGY PREDICTED BY IDOCK:   -9.07 KCAL/MOL
REMARK 923 INTER-LIGAND FREE ENERGY PREDICTED BY IDOCK:   -7.93 KCAL/MOL
REMARK 924 INTRA-LIGAND FREE ENERGY PREDICTED BY IDOCK:   -1.15 KCAL/MOL
REMARK 927      BINDING AFFINITY PREDICTED BY RF-SCORE:    0.00 PKD
ROOT
HETATM    1  C   UNL     1     -13.914   9.213  72.845  1.00  0.00    -0.061 C  
HETATM    2  C   UNL     1     -12.899   9.492  71.783  1.00  0.00    -0.406 A  
HETATM    3  N   UNL     1     -13.248  10.264  70.750  1.00  0.00    -0.326 NA 
HETATM    4  C   UNL     1     -12.277  10.474  69.838  1.00  0.00    -0.218 A  
HETATM    5  C   UNL     1     -10.988   9.957  69.887  1.00  0.00    -0.281 A  
HETATM    6  C   UNL     1      -9.407   8.618  71.462  1.00  0.00    -0.319 C  
HETATM    7  C   UNL     1     -10.718   9.189  71.014  1.00  0.00    -0.293 A  
HETATM    8  N   UNL     1     -11.680   8.955  71.950  1.00  0.00    -0.350 NA 
ENDROOT
BRANCH   5   9
HETATM    9  O   UNL     1     -10.231  10.337  68.822  1.00  0.00    -0.174 OA 
BRANCH   9  10
HETATM   10  C   UNL     1     -10.554   9.818  67.537  1.00  0.00    -0.275 C  
BRANCH  10  11
HETATM   11  C   UNL     1      -9.789  10.596  66.456  1.00  0.00    -0.250 C  
HETATM   12  C   UNL     1      -8.508   9.951  65.874  1.00  0.00    -0.137 C  
HETATM   13  C   UNL     1      -8.412  11.054  66.900  1.00  0.00    -0.139 C  
BRANCH  11  14
HETATM   14  C   UNL     1     -10.630  11.488  65.496  1.00  0.00    -0.334 A  
HETATM   15  C   UNL     1     -10.558  11.370  64.087  1.00  0.00    -0.430 A  
HETATM   16  F   UNL     1     -13.203  14.096  65.615  1.00  0.00    -0.568 F  
HETATM   17  C   UNL     1     -11.359  12.126  63.218  1.00  0.00    -0.410 A  
HETATM   18  C   UNL     1     -11.544  12.450  65.970  1.00  0.00    -0.455 A  
HETATM   19  C   UNL     1     -12.340  13.206  65.107  1.00  0.00    -0.473 A  
HETATM   20  C   UNL     1     -12.263  13.048  63.734  1.00  0.00    -0.536 A  
ENDBRANCH  11  14
BRANCH  12  21
HETATM   21  C   UNL     1      -8.165   8.527  66.201  1.00  0.00    -0.115 C  
HETATM   22  N   UNL     1      -8.968   7.616  65.552  1.00  0.00    -0.378 N  
HETATM   23  H   UNL     1      -9.604   7.968  64.837  1.00  0.00     0.000 HD 
HETATM   24  O   UNL     1      -7.248   8.291  66.974  1.00  0.00    -0.081 OA 
BRANCH  22  25
HETATM   25  C   UNL     1      -8.969   6.238  65.807  1.00  0.00    -0.068 A  
HETATM   26  N   UNL     1      -9.720   5.735  66.806  1.00  0.00    -0.145 NA 
HETATM   27  C   UNL     1      -9.688   4.397  67.014  1.00  0.00    -0.205 A  
HETATM   28  C   UNL     1      -8.929   3.529  66.255  1.00  0.00    -0.144 A  
HETATM   29  C   UNL     1      -8.171   4.044  65.217  1.00  0.00    -0.101 A  
HETATM   30  F   UNL     1      -8.921   2.217  66.517  1.00  0.00    -0.121 F  
HETATM   31  C   UNL     1      -8.197   5.420  64.981  1.00  0.00    -0.137 A  
ENDBRANCH  22  25
ENDBRANCH  12  21
ENDBRANCH  10  11
ENDBRANCH   9  10
ENDBRANCH   5   9
TORSDOF 6
ENDMDL
MODEL       86
REMARK 921   NORMALIZED FREE ENERGY PREDICTED BY IDOCK:   -5.57 KCAL/MOL
REMARK 922        TOTAL FREE ENERGY PREDICTED BY IDOCK:   -9.07 KCAL/MOL
REMARK 923 INTER-LIGAND FREE ENERGY PREDICTED BY IDOCK:   -7.69 KCAL/MOL
REMARK 924 INTRA-LIGAND FREE ENERGY PREDICTED BY IDOCK:   -1.38 KCAL/MOL
REMARK 927      BINDING AFFINITY PREDICTED BY RF-SCORE:    0.00 PKD
ROOT
HETATM    1  C   UNL     1     -12.332  12.331  63.330  1.00  0.00    -0.624 C  
HETATM    2  C   UNL     1     -11.731  11.973  64.651  1.00  0.00    -0.287 A  
HETATM    3  N   UNL     1     -10.783  11.033  64.691  1.00  0.00    -0.297 NA 
HETATM    4  C   UNL     1     -10.286  10.771  65.918  1.00  0.00    -0.238 A  
HETATM    5  C   UNL     1     -10.682  11.380  67.103  1.00  0.00    -0.249 A  
HETATM    6  C   UNL     1     -12.189  13.312  67.977  1.00  0.00    -0.118 C  
HETATM    7  C   UNL     1     -11.654  12.360  66.950  1.00  0.00    -0.370 A  
HETATM    8  N   UNL     1     -12.179  12.644  65.725  1.00  0.00    -0.598 NA 
ENDROOT
BRANCH   5   9
HETATM    9  O   UNL     1     -10.005  10.905  68.185  1.00  0.00    -0.165 OA 
BRANCH   9  10
HETATM   10  C   UNL     1      -8.921  10.009  67.971  1.00  0.00    -0.128 C  
BRANCH  10  11
HETATM   11  C   UNL     1      -8.004  10.002  69.202  1.00  0.00    -0.116 C  
HETATM   12  C   UNL     1      -7.044  11.202  69.395  1.00  0.00    -0.110 C  
HETATM   13  C   UNL     1      -6.530   9.887  68.858  1.00  0.00    -0.045 C  
BRANCH  11  14
HETATM   14  C   UNL     1      -8.553   9.322  70.492  1.00  0.00    -0.271 A  
HETATM   15  C   UNL     1      -7.709   8.682  71.433  1.00  0.00    -0.150 A  
HETATM   16  F   UNL     1     -11.713   8.822  72.277  1.00  0.00    -0.395 F  
HETATM   17  C   UNL     1      -8.190   8.124  72.627  1.00  0.00    -0.227 A  
HETATM   18  C   UNL     1      -9.922   9.329  70.822  1.00  0.00    -0.357 A  
HETATM   19  C   UNL     1     -10.402   8.772  72.009  1.00  0.00    -0.340 A  
HETATM   20  C   UNL     1      -9.548   8.175  72.920  1.00  0.00    -0.345 A  
ENDBRANCH  11  14
BRANCH  12  21
HETATM   21  C   UNL     1      -7.176  12.419  68.527  1.00  0.00    -0.103 C  
HETATM   22  N   UNL     1      -8.185  13.264  68.932  1.00  0.00    -0.351 N  
HETATM   23  H   UNL     1      -8.642  13.066  69.823  1.00  0.00     0.000 HD 
HETATM   24  O   UNL     1      -6.421  12.566  67.577  1.00  0.00    -0.124 OA 
BRANCH  22  25
HETATM   25  C   UNL     1      -8.626  14.378  68.205  1.00  0.00    -0.170 A  
HETATM   26  N   UNL     1      -8.790  14.294  66.870  1.00  0.00    -0.230 NA 
HETATM   27  C   UNL     1      -9.217  15.397  66.212  1.00  0.00    -0.319 A  
HETATM   28  C   UNL     1      -9.494  16.596  66.838  1.00  0.00    -0.235 A  
HETATM   29  C   UNL     1      -9.343  16.677  68.212  1.00  0.00    -0.224 A  
HETATM   30  F   UNL     1      -9.896  17.660  66.135  1.00  0.00    -0.289 F  
HETATM   31  C   UNL     1      -8.912  15.548  68.911  1.00  0.00    -0.220 A  
ENDBRANCH  22  25
ENDBRANCH  12  21
ENDBRANCH  10  11
ENDBRANCH   9  10
ENDBRANCH   5   9
TORSDOF 6
ENDMDL
MODEL       87
REMARK 921   NORMALIZED FREE ENERGY PREDICTED BY IDOCK:   -5.56 KCAL/MOL
REMARK 922        TOTAL FREE ENERGY PREDICTED BY IDOCK:   -9.06 KCAL/MOL
REMARK 923 INTER-LIGAND FREE ENERGY PREDICTED BY IDOCK:   -7.80 KCAL/MOL
REMARK 924 INTRA-LIGAND FREE ENERGY PREDICTED BY IDOCK:   -1.26 KCAL/MOL
REMARK 927      BINDING AFFINITY PREDICTED BY RF-SCORE:    0.00 PKD
ROOT
HETATM    1  C   UNL     1     -12.166   9.483  71.923  1.00  0.00    -0.432 C  
HETATM    2  C   UNL     1     -11.667   9.955  70.595  1.00  0.00    -0.323 A  
HETATM    3  N   UNL     1     -12.379  10.866  69.929  1.00  0.00    -0.321 NA 
HETATM    4  C   UNL     1     -11.860  11.245  68.742  1.00  0.00    -0.329 A  
HETATM    5  C   UNL     1     -10.684  10.766  68.179  1.00  0.00    -0.214 A  
HETATM    6  C   UNL     1      -8.647   9.246  68.740  1.00  0.00    -0.131 C  
HETATM    7  C   UNL     1     -10.005   9.841  68.962  1.00  0.00    -0.184 A  
HETATM    8  N   UNL     1     -10.507   9.435  70.163  1.00  0.00    -0.221 NA 
ENDROOT
BRANCH   5   9
HETATM    9  O   UNL     1     -10.417  11.329  66.969  1.00  0.00    -0.214 OA 
BRANCH   9  10
HETATM   10  C   UNL     1     -11.369  11.177  65.922  1.00  0.00     0.179 C  
BRANCH  10  11
HETATM   11  C   UNL     1     -10.746  11.615  64.588  1.00  0.00    -0.371 C  
HETATM   12  C   UNL     1     -10.752  13.126  64.250  1.00  0.00    -0.431 C  
HETATM   13  C   UNL     1     -11.754  12.193  63.611  1.00  0.00    -0.588 C  
BRANCH  11  14
HETATM   14  C   UNL     1      -9.546  10.777  64.057  1.00  0.00    -0.339 A  
HETATM   15  C   UNL     1      -8.917  11.048  62.817  1.00  0.00    -0.327 A  
HETATM   16  F   UNL     1      -7.374   8.012  65.089  1.00  0.00    -0.066 F  
HETATM   17  C   UNL     1      -7.796  10.338  62.362  1.00  0.00    -0.165 A  
HETATM   18  C   UNL     1      -8.987   9.713  64.792  1.00  0.00    -0.268 A  
HETATM   19  C   UNL     1      -7.872   9.004  64.340  1.00  0.00    -0.125 A  
HETATM   20  C   UNL     1      -7.265   9.311  63.134  1.00  0.00    -0.095 A  
ENDBRANCH  11  14
BRANCH  12  21
HETATM   21  C   UNL     1     -11.151  14.130  65.291  1.00  0.00    -0.331 C  
HETATM   22  N   UNL     1     -10.290  14.165  66.365  1.00  0.00    -0.282 N  
HETATM   23  H   UNL     1      -9.424  13.629  66.298  1.00  0.00     0.000 HD 
HETATM   24  O   UNL     1     -12.154  14.808  65.121  1.00  0.00    -0.328 OA 
BRANCH  22  25
HETATM   25  C   UNL     1     -10.520  14.888  67.543  1.00  0.00    -0.254 A  
HETATM   26  N   UNL     1     -11.593  14.610  68.309  1.00  0.00    -0.311 NA 
HETATM   27  C   UNL     1     -11.774  15.337  69.437  1.00  0.00    -0.341 A  
HETATM   28  C   UNL     1     -10.916  16.340  69.840  1.00  0.00    -0.365 A  
HETATM   29  C   UNL     1      -9.804  16.613  69.063  1.00  0.00    -0.267 A  
HETATM   30  F   UNL     1     -11.153  17.038  70.956  1.00  0.00    -0.138 F  
HETATM   31  C   UNL     1      -9.594  15.870  67.899  1.00  0.00    -0.215 A  
ENDBRANCH  22  25
ENDBRANCH  12  21
ENDBRANCH  10  11
ENDBRANCH   9  10
ENDBRANCH   5   9
TORSDOF 6
ENDMDL
MODEL       88
REMARK 921   NORMALIZED FREE ENERGY PREDICTED BY IDOCK:   -5.54 KCAL/MOL
REMARK 922        TOTAL FREE ENERGY PREDICTED BY IDOCK:   -9.03 KCAL/MOL
REMARK 923 INTER-LIGAND FREE ENERGY PREDICTED BY IDOCK:   -7.61 KCAL/MOL
REMARK 924 INTRA-LIGAND FREE ENERGY PREDICTED BY IDOCK:   -1.42 KCAL/MOL
REMARK 927      BINDING AFFINITY PREDICTED BY RF-SCORE:    0.00 PKD
ROOT
HETATM    1  C   UNL     1     -11.000   6.160  73.191  1.00  0.00    -0.258 C  
HETATM    2  C   UNL     1     -10.868   7.328  72.268  1.00  0.00    -0.238 A  
HETATM    3  N   UNL     1     -11.977   7.921  71.820  1.00  0.00    -0.285 NA 
HETATM    4  C   UNL     1     -11.775   8.971  70.997  1.00  0.00    -0.296 A  
HETATM    5  C   UNL     1     -10.540   9.459  70.589  1.00  0.00    -0.290 A  
HETATM    6  C   UNL     1      -7.995   9.142  71.034  1.00  0.00    -0.166 C  
HETATM    7  C   UNL     1      -9.449   8.790  71.131  1.00  0.00    -0.240 A  
HETATM    8  N   UNL     1      -9.621   7.722  71.961  1.00  0.00    -0.160 NA 
ENDROOT
BRANCH   5   9
HETATM    9  O   UNL     1     -10.650  10.527  69.752  1.00  0.00    -0.247 OA 
BRANCH   9  10
HETATM   10  C   UNL     1     -11.114  10.306  68.425  1.00  0.00    -0.247 C  
BRANCH  10  11
HETATM   11  C   UNL     1     -10.321  11.185  67.447  1.00  0.00    -0.231 C  
HETATM   12  C   UNL     1      -9.031  10.593  66.827  1.00  0.00    -0.149 C  
HETATM   13  C   UNL     1      -8.950  11.584  67.965  1.00  0.00    -0.170 C  
BRANCH  11  14
HETATM   14  C   UNL     1     -11.135  12.179  66.567  1.00  0.00    -0.352 A  
HETATM   15  C   UNL     1     -11.720  13.358  67.093  1.00  0.00    -0.424 A  
HETATM   16  F   UNL     1     -12.121  12.684  63.074  1.00  0.00    -0.543 F  
HETATM   17  C   UNL     1     -12.400  14.289  66.294  1.00  0.00    -0.399 A  
HETATM   18  C   UNL     1     -11.315  11.987  65.184  1.00  0.00    -0.359 A  
HETATM   19  C   UNL     1     -11.994  12.912  64.388  1.00  0.00    -0.395 A  
HETATM   20  C   UNL     1     -12.532  14.067  64.928  1.00  0.00    -0.419 A  
ENDBRANCH  11  14
BRANCH  12  21
HETATM   21  C   UNL     1      -8.704   9.141  67.013  1.00  0.00    -0.123 C  
HETATM   22  N   UNL     1      -9.414   8.316  66.169  1.00  0.00    -0.354 N  
HETATM   23  H   UNL     1      -9.972   8.753  65.435  1.00  0.00     0.000 HD 
HETATM   24  O   UNL     1      -7.876   8.812  67.850  1.00  0.00    -0.101 OA 
BRANCH  22  25
HETATM   25  C   UNL     1      -9.421   6.917  66.250  1.00  0.00    -0.070 A  
HETATM   26  N   UNL     1      -8.460   6.197  65.638  1.00  0.00    -0.149 NA 
HETATM   27  C   UNL     1      -8.511   4.849  65.745  1.00  0.00    -0.121 A  
HETATM   28  C   UNL     1      -9.491   4.178  66.448  1.00  0.00    -0.189 A  
HETATM   29  C   UNL     1     -10.468   4.918  67.092  1.00  0.00    -0.130 A  
HETATM   30  F   UNL     1      -9.503   2.842  66.505  1.00  0.00    -0.164 F  
HETATM   31  C   UNL     1     -10.429   6.311  67.002  1.00  0.00    -0.341 A  
ENDBRANCH  22  25
ENDBRANCH  12  21
ENDBRANCH  10  11
ENDBRANCH   9  10
ENDBRANCH   5   9
TORSDOF 6
ENDMDL
MODEL       89
REMARK 921   NORMALIZED FREE ENERGY PREDICTED BY IDOCK:   -5.54 KCAL/MOL
REMARK 922        TOTAL FREE ENERGY PREDICTED BY IDOCK:   -9.03 KCAL/MOL
REMARK 923 INTER-LIGAND FREE ENERGY PREDICTED BY IDOCK:   -7.76 KCAL/MOL
REMARK 924 INTRA-LIGAND FREE ENERGY PREDICTED BY IDOCK:   -1.26 KCAL/MOL
REMARK 927      BINDING AFFINITY PREDICTED BY RF-SCORE:    0.00 PKD
ROOT
HETATM    1  C   UNL     1     -12.066  15.745  70.385  1.00  0.00    -0.399 C  
HETATM    2  C   UNL     1     -11.739  14.328  70.039  1.00  0.00    -0.298 A  
HETATM    3  N   UNL     1     -10.834  14.092  69.087  1.00  0.00    -0.248 NA 
HETATM    4  C   UNL     1     -10.589  12.789  68.837  1.00  0.00    -0.122 A  
HETATM    5  C   UNL     1     -11.197  11.712  69.470  1.00  0.00    -0.213 A  
HETATM    6  C   UNL     1     -12.812  11.173  71.438  1.00  0.00    -0.544 C  
HETATM    7  C   UNL     1     -12.104  12.063  70.462  1.00  0.00    -0.311 A  
HETATM    8  N   UNL     1     -12.376  13.371  70.734  1.00  0.00    -0.365 NA 
ENDROOT
BRANCH   5   9
HETATM    9  O   UNL     1     -10.752  10.513  69.003  1.00  0.00    -0.196 OA 
BRANCH   9  10
HETATM   10  C   UNL     1     -11.156  10.096  67.704  1.00  0.00    -0.206 C  
BRANCH  10  11
HETATM   11  C   UNL     1      -9.943   9.551  66.935  1.00  0.00    -0.278 C  
HETATM   12  C   UNL     1      -9.414   8.148  67.321  1.00  0.00    -0.196 C  
HETATM   13  C   UNL     1      -8.702   9.393  67.794  1.00  0.00    -0.116 C  
BRANCH  11  14
HETATM   14  C   UNL     1      -9.803   9.973  65.442  1.00  0.00    -0.384 A  
HETATM   15  C   UNL     1     -10.376  11.163  64.930  1.00  0.00    -0.375 A  
HETATM   16  F   UNL     1      -8.170   8.872  62.352  1.00  0.00    -0.136 F  
HETATM   17  C   UNL     1     -10.200  11.581  63.603  1.00  0.00    -0.450 A  
HETATM   18  C   UNL     1      -9.067   9.214  64.511  1.00  0.00    -0.065 A  
HETATM   19  C   UNL     1      -8.893   9.628  63.189  1.00  0.00    -0.240 A  
HETATM   20  C   UNL     1      -9.446  10.809  62.726  1.00  0.00    -0.358 A  
ENDBRANCH  11  14
BRANCH  12  21
HETATM   21  C   UNL     1     -10.201   7.278  68.256  1.00  0.00    -0.180 C  
HETATM   22  N   UNL     1      -9.937   7.534  69.583  1.00  0.00    -0.181 N  
HETATM   23  H   UNL     1      -9.360   8.346  69.805  1.00  0.00     0.000 HD 
HETATM   24  O   UNL     1     -10.978   6.452  67.800  1.00  0.00    -0.302 OA 
BRANCH  22  25
HETATM   25  C   UNL     1     -10.407   6.757  70.650  1.00  0.00    -0.201 A  
HETATM   26  N   UNL     1     -11.714   6.778  70.979  1.00  0.00    -0.337 NA 
HETATM   27  C   UNL     1     -12.120   6.009  72.017  1.00  0.00    -0.109 A  
HETATM   28  C   UNL     1     -11.267   5.208  72.749  1.00  0.00    -0.255 A  
HETATM   29  C   UNL     1      -9.928   5.173  72.400  1.00  0.00    -0.225 A  
HETATM   30  F   UNL     1     -11.720   4.484  73.778  1.00  0.00    -0.294 F  
HETATM   31  C   UNL     1      -9.490   5.951  71.326  1.00  0.00    -0.181 A  
ENDBRANCH  22  25
ENDBRANCH  12  21
ENDBRANCH  10  11
ENDBRANCH   9  10
ENDBRANCH   5   9
TORSDOF 6
ENDMDL
MODEL       90
REMARK 921   NORMALIZED FREE ENERGY PREDICTED BY IDOCK:   -5.50 KCAL/MOL
REMARK 922        TOTAL FREE ENERGY PREDICTED BY IDOCK:   -8.98 KCAL/MOL
REMARK 923 INTER-LIGAND FREE ENERGY PREDICTED BY IDOCK:   -7.92 KCAL/MOL
REMARK 924 INTRA-LIGAND FREE ENERGY PREDICTED BY IDOCK:   -1.06 KCAL/MOL
REMARK 927      BINDING AFFINITY PREDICTED BY RF-SCORE:    0.00 PKD
ROOT
HETATM    1  C   UNL     1      -5.491  16.004  68.268  1.00  0.00    -0.110 C  
HETATM    2  C   UNL     1      -6.370  14.796  68.206  1.00  0.00    -0.122 A  
HETATM    3  N   UNL     1      -7.411  14.802  67.370  1.00  0.00    -0.200 NA 
HETATM    4  C   UNL     1      -8.151  13.674  67.367  1.00  0.00    -0.175 A  
HETATM    5  C   UNL     1      -7.922  12.549  68.150  1.00  0.00    -0.157 A  
HETATM    6  C   UNL     1      -6.178  11.563  69.810  1.00  0.00    -0.138 C  
HETATM    7  C   UNL     1      -6.801  12.633  68.966  1.00  0.00    -0.083 A  
HETATM    8  N   UNL     1      -6.037  13.761  68.995  1.00  0.00    -0.086 NA 
ENDROOT
BRANCH   5   9
HETATM    9  O   UNL     1      -8.840  11.567  67.934  1.00  0.00    -0.141 OA 
BRANCH   9  10
HETATM   10  C   UNL     1      -8.416  10.367  67.298  1.00  0.00    -0.122 C  
BRANCH  10  11
HETATM   11  C   UNL     1      -9.462   9.933  66.261  1.00  0.00    -0.245 C  
HETATM   12  C   UNL     1     -10.241   8.621  66.526  1.00  0.00    -0.295 C  
HETATM   13  C   UNL     1      -9.100   8.648  65.537  1.00  0.00    -0.190 C  
BRANCH  11  14
HETATM   14  C   UNL     1     -10.219  11.062  65.501  1.00  0.00    -0.327 A  
HETATM   15  C   UNL     1      -9.995  11.340  64.131  1.00  0.00    -0.350 A  
HETATM   16  F   UNL     1     -12.852  13.548  66.060  1.00  0.00    -0.440 F  
HETATM   17  C   UNL     1     -10.718  12.313  63.425  1.00  0.00    -0.438 A  
HETATM   18  C   UNL     1     -11.200  11.860  66.122  1.00  0.00    -0.387 A  
HETATM   19  C   UNL     1     -11.920  12.830  65.421  1.00  0.00    -0.436 A  
HETATM   20  C   UNL     1     -11.694  13.060  64.075  1.00  0.00    -0.497 A  
ENDBRANCH  11  14
BRANCH  12  21
HETATM   21  C   UNL     1     -10.125   7.932  67.854  1.00  0.00    -0.191 C  
HETATM   22  N   UNL     1     -10.928   8.492  68.824  1.00  0.00    -0.433 N  
HETATM   23  H   UNL     1     -11.598   9.204  68.534  1.00  0.00     0.000 HD 
HETATM   24  O   UNL     1      -9.373   6.976  67.974  1.00  0.00    -0.129 OA 
BRANCH  22  25
HETATM   25  C   UNL     1     -10.886   8.148  70.182  1.00  0.00    -0.241 A  
HETATM   26  N   UNL     1     -11.784   7.281  70.689  1.00  0.00    -0.296 NA 
HETATM   27  C   UNL     1     -11.704   6.981  72.007  1.00  0.00    -0.295 A  
HETATM   28  C   UNL     1     -10.751   7.515  72.851  1.00  0.00    -0.358 A  
HETATM   29  C   UNL     1      -9.817   8.392  72.326  1.00  0.00    -0.383 A  
HETATM   30  F   UNL     1     -10.729   7.198  74.150  1.00  0.00    -0.393 F  
HETATM   31  C   UNL     1      -9.877   8.708  70.967  1.00  0.00    -0.267 A  
ENDBRANCH  22  25
ENDBRANCH  12  21
ENDBRANCH  10  11
ENDBRANCH   9  10
ENDBRANCH   5   9
TORSDOF 6
ENDMDL
MODEL       91
REMARK 921   NORMALIZED FREE ENERGY PREDICTED BY IDOCK:   -5.47 KCAL/MOL
REMARK 922        TOTAL FREE ENERGY PREDICTED BY IDOCK:   -8.94 KCAL/MOL
REMARK 923 INTER-LIGAND FREE ENERGY PREDICTED BY IDOCK:   -7.45 KCAL/MOL
REMARK 924 INTRA-LIGAND FREE ENERGY PREDICTED BY IDOCK:   -1.49 KCAL/MOL
REMARK 927      BINDING AFFINITY PREDICTED BY RF-SCORE:    0.00 PKD
ROOT
HETATM    1  C   UNL     1     -12.389  13.083  63.301  1.00  0.00    -0.392 C  
HETATM    2  C   UNL     1     -11.744  12.486  64.510  1.00  0.00    -0.362 A  
HETATM    3  N   UNL     1     -10.829  11.527  64.341  1.00  0.00    -0.337 NA 
HETATM    4  C   UNL     1     -10.288  11.043  65.478  1.00  0.00    -0.260 A  
HETATM    5  C   UNL     1     -10.609  11.449  66.768  1.00  0.00    -0.255 A  
HETATM    6  C   UNL     1     -12.005  13.243  68.034  1.00  0.00    -0.351 C  
HETATM    7  C   UNL     1     -11.551  12.468  66.834  1.00  0.00    -0.370 A  
HETATM    8  N   UNL     1     -12.119  12.974  65.703  1.00  0.00    -0.431 NA 
ENDROOT
BRANCH   5   9
HETATM    9  O   UNL     1      -9.903  10.776  67.718  1.00  0.00    -0.163 OA 
BRANCH   9  10
HETATM   10  C   UNL     1      -8.571  11.191  67.997  1.00  0.00    -0.140 C  
BRANCH  10  11
HETATM   11  C   UNL     1      -7.614   9.999  67.844  1.00  0.00    -0.089 C  
HETATM   12  C   UNL     1      -7.573   8.955  68.987  1.00  0.00    -0.085 C  
HETATM   13  C   UNL     1      -6.485   9.994  68.859  1.00  0.00    -0.048 C  
BRANCH  11  14
HETATM   14  C   UNL     1      -7.359   9.475  66.400  1.00  0.00    -0.093 A  
HETATM   15  C   UNL     1      -7.849   8.226  65.946  1.00  0.00    -0.093 A  
HETATM   16  F   UNL     1      -5.811  10.544  63.255  1.00  0.00    -0.127 F  
HETATM   17  C   UNL     1      -7.678   7.776  64.628  1.00  0.00    -0.121 A  
HETATM   18  C   UNL     1      -6.653  10.226  65.441  1.00  0.00    -0.122 A  
HETATM   19  C   UNL     1      -6.480   9.779  64.129  1.00  0.00    -0.119 A  
HETATM   20  C   UNL     1      -6.992   8.564  63.710  1.00  0.00    -0.087 A  
ENDBRANCH  11  14
BRANCH  12  21
HETATM   21  C   UNL     1      -8.592   9.002  70.088  1.00  0.00    -0.160 C  
HETATM   22  N   UNL     1      -9.846   8.606  69.679  1.00  0.00    -0.183 N  
HETATM   23  H   UNL     1      -9.937   8.205  68.746  1.00  0.00     0.000 HD 
HETATM   24  O   UNL     1      -8.255   9.366  71.205  1.00  0.00    -0.315 OA 
BRANCH  22  25
HETATM   25  C   UNL     1     -11.005   8.715  70.460  1.00  0.00    -0.238 A  
HETATM   26  N   UNL     1     -11.601   7.608  70.945  1.00  0.00    -0.283 NA 
HETATM   27  C   UNL     1     -12.719   7.765  71.693  1.00  0.00    -0.335 A  
HETATM   28  C   UNL     1     -13.273   8.996  71.983  1.00  0.00    -0.429 A  
HETATM   29  C   UNL     1     -12.650  10.134  71.500  1.00  0.00    -0.537 A  
HETATM   30  F   UNL     1     -14.389   9.091  72.713  1.00  0.00    -0.482 F  
HETATM   31  C   UNL     1     -11.491   9.995  70.733  1.00  0.00    -0.438 A  
ENDBRANCH  22  25
ENDBRANCH  12  21
ENDBRANCH  10  11
ENDBRANCH   9  10
ENDBRANCH   5   9
TORSDOF 6
ENDMDL
MODEL       92
REMARK 921   NORMALIZED FREE ENERGY PREDICTED BY IDOCK:   -5.47 KCAL/MOL
REMARK 922        TOTAL FREE ENERGY PREDICTED BY IDOCK:   -8.93 KCAL/MOL
REMARK 923 INTER-LIGAND FREE ENERGY PREDICTED BY IDOCK:   -7.60 KCAL/MOL
REMARK 924 INTRA-LIGAND FREE ENERGY PREDICTED BY IDOCK:   -1.33 KCAL/MOL
REMARK 927      BINDING AFFINITY PREDICTED BY RF-SCORE:    0.00 PKD
ROOT
HETATM    1  C   UNL     1     -10.860   6.478  73.203  1.00  0.00    -0.286 C  
HETATM    2  C   UNL     1     -10.930   7.500  72.115  1.00  0.00    -0.250 A  
HETATM    3  N   UNL     1     -10.186   7.323  71.020  1.00  0.00    -0.192 NA 
HETATM    4  C   UNL     1     -10.308   8.284  70.081  1.00  0.00    -0.212 A  
HETATM    5  C   UNL     1     -11.117   9.410  70.171  1.00  0.00    -0.242 A  
HETATM    6  C   UNL     1     -12.947  10.468  71.689  1.00  0.00    -0.581 C  
HETATM    7  C   UNL     1     -11.870   9.488  71.336  1.00  0.00    -0.389 A  
HETATM    8  N   UNL     1     -11.764   8.535  72.305  1.00  0.00    -0.371 NA 
ENDROOT
BRANCH   5   9
HETATM    9  O   UNL     1     -11.029  10.206  69.070  1.00  0.00    -0.218 OA 
BRANCH   9  10
HETATM   10  C   UNL     1      -9.756  10.387  68.461  1.00  0.00    -0.168 C  
BRANCH  10  11
HETATM   11  C   UNL     1      -9.934  10.664  66.961  1.00  0.00    -0.243 C  
HETATM   12  C   UNL     1      -9.866   9.459  65.991  1.00  0.00    -0.366 C  
HETATM   13  C   UNL     1      -8.685  10.389  66.142  1.00  0.00    -0.163 C  
BRANCH  11  14
HETATM   14  C   UNL     1     -10.877  11.838  66.564  1.00  0.00    -0.323 A  
HETATM   15  C   UNL     1     -11.650  11.826  65.377  1.00  0.00    -0.190 A  
HETATM   16  F   UNL     1     -12.071  15.048  67.868  1.00  0.00    -0.343 F  
HETATM   17  C   UNL     1     -12.549  12.850  65.045  1.00  0.00    -0.538 A  
HETATM   18  C   UNL     1     -11.047  12.975  67.377  1.00  0.00    -0.302 A  
HETATM   19  C   UNL     1     -11.940  13.997  67.047  1.00  0.00    -0.438 A  
HETATM   20  C   UNL     1     -12.699  13.943  65.892  1.00  0.00    -0.466 A  
ENDBRANCH  11  14
BRANCH  12  21
HETATM   21  C   UNL     1      -9.849   8.059  66.529  1.00  0.00    -0.219 C  
HETATM   22  N   UNL     1      -8.581   7.529  66.616  1.00  0.00    -0.125 N  
HETATM   23  H   UNL     1      -7.792   8.152  66.443  1.00  0.00     0.000 HD 
HETATM   24  O   UNL     1     -10.902   7.520  66.838  1.00  0.00    -0.345 OA 
BRANCH  22  25
HETATM   25  C   UNL     1      -8.301   6.191  66.926  1.00  0.00    -0.106 A  
HETATM   26  N   UNL     1      -8.354   5.247  65.965  1.00  0.00    -0.115 NA 
HETATM   27  C   UNL     1      -8.075   3.969  66.314  1.00  0.00    -0.098 A  
HETATM   28  C   UNL     1      -7.739   3.588  67.597  1.00  0.00    -0.077 A  
HETATM   29  C   UNL     1      -7.667   4.560  68.580  1.00  0.00    -0.071 A  
HETATM   30  F   UNL     1      -7.491   2.306  67.889  1.00  0.00    -0.053 F  
HETATM   31  C   UNL     1      -7.942   5.886  68.240  1.00  0.00    -0.109 A  
ENDBRANCH  22  25
ENDBRANCH  12  21
ENDBRANCH  10  11
ENDBRANCH   9  10
ENDBRANCH   5   9
TORSDOF 6
ENDMDL
MODEL       93
REMARK 921   NORMALIZED FREE ENERGY PREDICTED BY IDOCK:   -5.45 KCAL/MOL
REMARK 922        TOTAL FREE ENERGY PREDICTED BY IDOCK:   -8.91 KCAL/MOL
REMARK 923 INTER-LIGAND FREE ENERGY PREDICTED BY IDOCK:   -7.56 KCAL/MOL
REMARK 924 INTRA-LIGAND FREE ENERGY PREDICTED BY IDOCK:   -1.35 KCAL/MOL
REMARK 927      BINDING AFFINITY PREDICTED BY RF-SCORE:    0.00 PKD
ROOT
HETATM    1  C   UNL     1      -7.838   2.679  65.763  1.00  0.00    -0.081 C  
HETATM    2  C   UNL     1      -8.656   3.754  66.403  1.00  0.00    -0.113 A  
HETATM    3  N   UNL     1      -9.206   4.690  65.626  1.00  0.00    -0.144 NA 
HETATM    4  C   UNL     1      -9.933   5.622  66.277  1.00  0.00    -0.115 A  
HETATM    5  C   UNL     1     -10.138   5.680  67.651  1.00  0.00    -0.172 A  
HETATM    6  C   UNL     1      -9.690   4.316  69.821  1.00  0.00    -0.290 C  
HETATM    7  C   UNL     1      -9.546   4.647  68.366  1.00  0.00    -0.151 A  
HETATM    8  N   UNL     1      -8.800   3.695  67.737  1.00  0.00    -0.108 NA 
ENDROOT
BRANCH   5   9
HETATM    9  O   UNL     1     -10.912   6.738  68.019  1.00  0.00    -0.242 OA 
BRANCH   9  10
HETATM   10  C   UNL     1     -10.497   8.047  67.648  1.00  0.00    -0.232 C  
BRANCH  10  11
HETATM   11  C   UNL     1      -9.598   8.636  68.745  1.00  0.00    -0.157 C  
HETATM   12  C   UNL     1      -8.929  10.005  68.472  1.00  0.00    -0.124 C  
HETATM   13  C   UNL     1      -8.136   8.726  68.346  1.00  0.00    -0.117 C  
BRANCH  11  14
HETATM   14  C   UNL     1      -9.979   8.317  70.221  1.00  0.00    -0.188 A  
HETATM   15  C   UNL     1      -9.119   7.606  71.093  1.00  0.00    -0.152 A  
HETATM   16  F   UNL     1     -12.666   8.954  72.630  1.00  0.00    -0.444 F  
HETATM   17  C   UNL     1      -9.428   7.371  72.441  1.00  0.00    -0.189 A  
HETATM   18  C   UNL     1     -11.192   8.745  70.794  1.00  0.00    -0.309 A  
HETATM   19  C   UNL     1     -11.503   8.510  72.135  1.00  0.00    -0.376 A  
HETATM   20  C   UNL     1     -10.629   7.833  72.968  1.00  0.00    -0.441 A  
ENDBRANCH  11  14
BRANCH  12  21
HETATM   21  C   UNL     1      -9.330  10.814  67.274  1.00  0.00    -0.151 C  
HETATM   22  N   UNL     1     -10.120  11.896  67.593  1.00  0.00    -0.189 N  
HETATM   23  H   UNL     1     -10.245  12.118  68.580  1.00  0.00     0.000 HD 
HETATM   24  O   UNL     1      -8.945  10.477  66.164  1.00  0.00    -0.152 OA 
BRANCH  22  25
HETATM   25  C   UNL     1     -10.764  12.711  66.653  1.00  0.00    -0.253 A  
HETATM   26  N   UNL     1     -11.975  12.366  66.173  1.00  0.00    -0.608 NA 
HETATM   27  C   UNL     1     -12.556  13.186  65.266  1.00  0.00    -0.472 A  
HETATM   28  C   UNL     1     -11.974  14.353  64.814  1.00  0.00    -0.447 A  
HETATM   29  C   UNL     1     -10.738  14.718  65.321  1.00  0.00    -0.406 A  
HETATM   30  F   UNL     1     -12.586  15.117  63.902  1.00  0.00    -0.432 F  
HETATM   31  C   UNL     1     -10.125  13.890  66.264  1.00  0.00    -0.306 A  
ENDBRANCH  22  25
ENDBRANCH  12  21
ENDBRANCH  10  11
ENDBRANCH   9  10
ENDBRANCH   5   9
TORSDOF 6
ENDMDL
MODEL       94
REMARK 921   NORMALIZED FREE ENERGY PREDICTED BY IDOCK:   -5.45 KCAL/MOL
REMARK 922        TOTAL FREE ENERGY PREDICTED BY IDOCK:   -8.91 KCAL/MOL
REMARK 923 INTER-LIGAND FREE ENERGY PREDICTED BY IDOCK:   -7.32 KCAL/MOL
REMARK 924 INTRA-LIGAND FREE ENERGY PREDICTED BY IDOCK:   -1.59 KCAL/MOL
REMARK 927      BINDING AFFINITY PREDICTED BY RF-SCORE:    0.00 PKD
ROOT
HETATM    1  C   UNL     1     -12.253  14.160  63.733  1.00  0.00    -0.183 C  
HETATM    2  C   UNL     1     -11.681  13.040  64.541  1.00  0.00    -0.369 A  
HETATM    3  N   UNL     1     -10.892  12.150  63.934  1.00  0.00    -0.364 NA 
HETATM    4  C   UNL     1     -10.411  11.173  64.731  1.00  0.00    -0.325 A  
HETATM    5  C   UNL     1     -10.675  11.025  66.087  1.00  0.00    -0.194 A  
HETATM    6  C   UNL     1     -11.837  12.254  68.065  1.00  0.00    -0.368 C  
HETATM    7  C   UNL     1     -11.485  12.016  66.628  1.00  0.00    -0.346 A  
HETATM    8  N   UNL     1     -11.990  13.013  65.847  1.00  0.00    -0.414 NA 
ENDROOT
BRANCH   5   9
HETATM    9  O   UNL     1     -10.054   9.940  66.625  1.00  0.00    -0.212 OA 
BRANCH   9  10
HETATM   10  C   UNL     1      -8.678  10.047  66.975  1.00  0.00    -0.132 C  
BRANCH  10  11
HETATM   11  C   UNL     1      -8.534  10.086  68.503  1.00  0.00    -0.115 C  
HETATM   12  C   UNL     1      -7.936  11.365  69.139  1.00  0.00     0.049 C  
HETATM   13  C   UNL     1      -7.091  10.124  68.974  1.00  0.00    -0.072 C  
BRANCH  11  14
HETATM   14  C   UNL     1      -9.599   9.314  69.336  1.00  0.00    -0.170 A  
HETATM   15  C   UNL     1     -10.292   9.906  70.421  1.00  0.00    -0.322 A  
HETATM   16  F   UNL     1     -11.286   6.062  69.420  1.00  0.00    -0.430 F  
HETATM   17  C   UNL     1     -11.298   9.238  71.135  1.00  0.00    -0.412 A  
HETATM   18  C   UNL     1      -9.968   7.987  69.043  1.00  0.00    -0.186 A  
HETATM   19  C   UNL     1     -10.968   7.320  69.754  1.00  0.00    -0.216 A  
HETATM   20  C   UNL     1     -11.643   7.935  70.794  1.00  0.00    -0.258 A  
ENDBRANCH  11  14
BRANCH  12  21
HETATM   21  C   UNL     1      -7.720  12.592  68.303  1.00  0.00    -0.141 C  
HETATM   22  N   UNL     1      -8.544  13.637  68.655  1.00  0.00    -0.338 N  
HETATM   23  H   UNL     1      -9.106  13.535  69.500  1.00  0.00     0.000 HD 
HETATM   24  O   UNL     1      -6.874  12.578  67.421  1.00  0.00    -0.137 OA 
BRANCH  22  25
HETATM   25  C   UNL     1      -8.663  14.831  67.932  1.00  0.00    -0.167 A  
HETATM   26  N   UNL     1      -9.068  14.808  66.647  1.00  0.00    -0.268 NA 
HETATM   27  C   UNL     1      -9.167  15.988  65.990  1.00  0.00    -0.340 A  
HETATM   28  C   UNL     1      -8.877  17.207  66.569  1.00  0.00    -0.262 A  
HETATM   29  C   UNL     1      -8.477  17.232  67.895  1.00  0.00    -0.218 A  
HETATM   30  F   UNL     1      -8.974  18.340  65.867  1.00  0.00    -0.205 F  
HETATM   31  C   UNL     1      -8.378  16.027  68.593  1.00  0.00    -0.203 A  
ENDBRANCH  22  25
ENDBRANCH  12  21
ENDBRANCH  10  11
ENDBRANCH   9  10
ENDBRANCH   5   9
TORSDOF 6
ENDMDL
MODEL       95
REMARK 921   NORMALIZED FREE ENERGY PREDICTED BY IDOCK:   -5.37 KCAL/MOL
REMARK 922        TOTAL FREE ENERGY PREDICTED BY IDOCK:   -8.80 KCAL/MOL
REMARK 923 INTER-LIGAND FREE ENERGY PREDICTED BY IDOCK:   -8.48 KCAL/MOL
REMARK 924 INTRA-LIGAND FREE ENERGY PREDICTED BY IDOCK:   -0.32 KCAL/MOL
REMARK 927      BINDING AFFINITY PREDICTED BY RF-SCORE:    0.00 PKD
ROOT
HETATM    1  C   UNL     1      -5.340  18.866  70.449  1.00  0.00    -0.229 C  
HETATM    2  C   UNL     1      -5.919  17.971  69.401  1.00  0.00    -0.240 A  
HETATM    3  N   UNL     1      -6.329  16.750  69.755  1.00  0.00    -0.217 NA 
HETATM    4  C   UNL     1      -6.845  16.006  68.755  1.00  0.00    -0.132 A  
HETATM    5  C   UNL     1      -6.969  16.399  67.428  1.00  0.00    -0.165 A  
HETATM    6  C   UNL     1      -6.669  18.486  65.903  1.00  0.00    -0.310 C  
HETATM    7  C   UNL     1      -6.538  17.694  67.169  1.00  0.00    -0.161 A  
HETATM    8  N   UNL     1      -6.007  18.469  68.157  1.00  0.00    -0.190 NA 
ENDROOT
BRANCH   5   9
HETATM    9  O   UNL     1      -7.522  15.432  66.646  1.00  0.00    -0.058 OA 
BRANCH   9  10
HETATM   10  C   UNL     1      -8.726  14.811  67.080  1.00  0.00    -0.221 C  
BRANCH  10  11
HETATM   11  C   UNL     1      -9.935  15.582  66.529  1.00  0.00    -0.283 C  
HETATM   12  C   UNL     1     -11.219  14.779  66.208  1.00  0.00    -0.343 C  
HETATM   13  C   UNL     1     -10.289  15.212  65.100  1.00  0.00    -0.416 C  
BRANCH  11  14
HETATM   14  C   UNL     1     -10.122  17.049  67.017  1.00  0.00    -0.295 A  
HETATM   15  C   UNL     1     -10.179  17.393  68.390  1.00  0.00    -0.362 A  
HETATM   16  F   UNL     1     -10.391  20.447  65.671  1.00  0.00    -0.494 F  
HETATM   17  C   UNL     1     -10.284  18.719  68.837  1.00  0.00    -0.258 A  
HETATM   18  C   UNL     1     -10.215  18.134  66.123  1.00  0.00    -0.372 A  
HETATM   19  C   UNL     1     -10.322  19.454  66.567  1.00  0.00    -0.469 A  
HETATM   20  C   UNL     1     -10.349  19.759  67.917  1.00  0.00    -0.569 A  
ENDBRANCH  11  14
BRANCH  12  21
HETATM   21  C   UNL     1     -11.336  13.345  66.634  1.00  0.00    -0.323 C  
HETATM   22  N   UNL     1     -10.212  12.603  66.347  1.00  0.00    -0.246 N  
HETATM   23  H   UNL     1      -9.387  13.100  66.010  1.00  0.00     0.000 HD 
HETATM   24  O   UNL     1     -12.361  12.960  67.177  1.00  0.00    -0.339 OA 
BRANCH  22  25
HETATM   25  C   UNL     1     -10.124  11.211  66.486  1.00  0.00    -0.223 A  
HETATM   26  N   UNL     1     -10.698  10.599  67.540  1.00  0.00    -0.252 NA 
HETATM   27  C   UNL     1     -10.585   9.252  67.631  1.00  0.00    -0.261 A  
HETATM   28  C   UNL     1      -9.917   8.481  66.702  1.00  0.00    -0.293 A  
HETATM   29  C   UNL     1      -9.342   9.109  65.610  1.00  0.00    -0.300 A  
HETATM   30  F   UNL     1      -9.820   7.156  66.852  1.00  0.00    -0.196 F  
HETATM   31  C   UNL     1      -9.455  10.496  65.492  1.00  0.00    -0.265 A  
ENDBRANCH  22  25
ENDBRANCH  12  21
ENDBRANCH  10  11
ENDBRANCH   9  10
ENDBRANCH   5   9
TORSDOF 6
ENDMDL
MODEL       96
REMARK 921   NORMALIZED FREE ENERGY PREDICTED BY IDOCK:   -5.36 KCAL/MOL
REMARK 922        TOTAL FREE ENERGY PREDICTED BY IDOCK:   -8.79 KCAL/MOL
REMARK 923 INTER-LIGAND FREE ENERGY PREDICTED BY IDOCK:   -7.21 KCAL/MOL
REMARK 924 INTRA-LIGAND FREE ENERGY PREDICTED BY IDOCK:   -1.58 KCAL/MOL
REMARK 927      BINDING AFFINITY PREDICTED BY RF-SCORE:    0.00 PKD
ROOT
HETATM    1  C   UNL     1      -9.020  10.961  62.386  1.00  0.00    -0.353 C  
HETATM    2  C   UNL     1      -9.219  10.353  63.737  1.00  0.00    -0.269 A  
HETATM    3  N   UNL     1      -8.531   9.253  64.053  1.00  0.00    -0.185 NA 
HETATM    4  C   UNL     1      -8.761   8.768  65.291  1.00  0.00    -0.182 A  
HETATM    5  C   UNL     1      -9.638   9.306  66.226  1.00  0.00    -0.248 A  
HETATM    6  C   UNL     1     -11.164  11.380  66.605  1.00  0.00    -0.298 C  
HETATM    7  C   UNL     1     -10.285  10.463  65.809  1.00  0.00    -0.235 A  
HETATM    8  N   UNL     1     -10.077  10.974  64.563  1.00  0.00    -0.295 NA 
ENDROOT
BRANCH   5   9
HETATM    9  O   UNL     1      -9.664   8.597  67.387  1.00  0.00    -0.157 OA 
BRANCH   9  10
HETATM   10  C   UNL     1      -8.465   7.972  67.830  1.00  0.00    -0.128 C  
BRANCH  10  11
HETATM   11  C   UNL     1      -8.737   6.493  68.144  1.00  0.00    -0.117 C  
HETATM   12  C   UNL     1      -9.359   6.150  69.520  1.00  0.00    -0.147 C  
HETATM   13  C   UNL     1      -7.883   5.948  69.274  1.00  0.00    -0.095 C  
BRANCH  11  14
HETATM   14  C   UNL     1      -9.117   5.572  66.947  1.00  0.00    -0.115 A  
HETATM   15  C   UNL     1     -10.459   5.352  66.552  1.00  0.00    -0.352 A  
HETATM   16  F   UNL     1      -7.523   3.569  64.325  1.00  0.00    -0.067 F  
HETATM   17  C   UNL     1     -10.805   4.576  65.437  1.00  0.00    -0.096 A  
HETATM   18  C   UNL     1      -8.147   4.925  66.158  1.00  0.00    -0.107 A  
HETATM   19  C   UNL     1      -8.490   4.149  65.048  1.00  0.00    -0.115 A  
HETATM   20  C   UNL     1      -9.811   3.974  64.674  1.00  0.00    -0.198 A  
ENDBRANCH  11  14
BRANCH  12  21
HETATM   21  C   UNL     1      -9.875   7.245  70.407  1.00  0.00    -0.183 C  
HETATM   22  N   UNL     1     -11.120   7.700  70.033  1.00  0.00    -0.377 N  
HETATM   23  H   UNL     1     -11.615   7.186  69.305  1.00  0.00     0.000 HD 
HETATM   24  O   UNL     1      -9.194   7.630  71.346  1.00  0.00    -0.136 OA 
BRANCH  22  25
HETATM   25  C   UNL     1     -11.752   8.822  70.587  1.00  0.00    -0.166 A  
HETATM   26  N   UNL     1     -11.492  10.053  70.105  1.00  0.00    -0.270 NA 
HETATM   27  C   UNL     1     -12.127  11.105  70.673  1.00  0.00    -0.379 A  
HETATM   28  C   UNL     1     -13.025  10.979  71.714  1.00  0.00    -0.438 A  
HETATM   29  C   UNL     1     -13.306   9.713  72.197  1.00  0.00    -0.545 A  
HETATM   30  F   UNL     1     -13.610  12.056  72.249  1.00  0.00    -0.573 F  
HETATM   31  C   UNL     1     -12.668   8.613  71.619  1.00  0.00    -0.379 A  
ENDBRANCH  22  25
ENDBRANCH  12  21
ENDBRANCH  10  11
ENDBRANCH   9  10
ENDBRANCH   5   9
TORSDOF 6
ENDMDL
MODEL       97
REMARK 921   NORMALIZED FREE ENERGY PREDICTED BY IDOCK:   -5.35 KCAL/MOL
REMARK 922        TOTAL FREE ENERGY PREDICTED BY IDOCK:   -8.77 KCAL/MOL
REMARK 923 INTER-LIGAND FREE ENERGY PREDICTED BY IDOCK:   -7.22 KCAL/MOL
REMARK 924 INTRA-LIGAND FREE ENERGY PREDICTED BY IDOCK:   -1.55 KCAL/MOL
REMARK 927      BINDING AFFINITY PREDICTED BY RF-SCORE:    0.00 PKD
ROOT
HETATM    1  C   UNL     1      -6.452   4.898  70.882  1.00  0.00    -0.027 C  
HETATM    2  C   UNL     1      -7.233   6.172  70.839  1.00  0.00    -0.074 A  
HETATM    3  N   UNL     1      -6.949   7.067  69.890  1.00  0.00    -0.060 NA 
HETATM    4  C   UNL     1      -7.701   8.187  69.913  1.00  0.00    -0.098 A  
HETATM    5  C   UNL     1      -8.709   8.471  70.826  1.00  0.00    -0.160 A  
HETATM    6  C   UNL     1     -10.043   7.370  72.771  1.00  0.00    -0.272 C  
HETATM    7  C   UNL     1      -8.944   7.466  71.756  1.00  0.00    -0.122 A  
HETATM    8  N   UNL     1      -8.197   6.325  71.761  1.00  0.00    -0.116 NA 
ENDROOT
BRANCH   5   9
HETATM    9  O   UNL     1      -9.290   9.682  70.604  1.00  0.00    -0.239 OA 
BRANCH   9  10
HETATM   10  C   UNL     1      -9.178  10.262  69.310  1.00  0.00    -0.202 C  
BRANCH  10  11
HETATM   11  C   UNL     1     -10.569  10.673  68.804  1.00  0.00    -0.234 C  
HETATM   12  C   UNL     1     -11.173   9.875  67.624  1.00  0.00    -0.032 C  
HETATM   13  C   UNL     1     -10.560  11.235  67.394  1.00  0.00    -0.262 C  
BRANCH  11  14
HETATM   14  C   UNL     1     -11.567  11.242  69.857  1.00  0.00    -0.413 A  
HETATM   15  C   UNL     1     -12.279  10.411  70.757  1.00  0.00    -0.457 A  
HETATM   16  F   UNL     1     -12.820  14.456  71.092  1.00  0.00    -0.346 F  
HETATM   17  C   UNL     1     -13.130  10.920  71.749  1.00  0.00    -0.564 A  
HETATM   18  C   UNL     1     -11.800  12.623  70.004  1.00  0.00    -0.358 A  
HETATM   19  C   UNL     1     -12.649  13.131  70.990  1.00  0.00    -0.312 A  
HETATM   20  C   UNL     1     -13.311  12.293  71.871  1.00  0.00    -0.431 A  
ENDBRANCH  11  14
BRANCH  12  21
HETATM   21  C   UNL     1     -10.512   8.613  67.151  1.00  0.00    -0.289 C  
HETATM   22  N   UNL     1     -11.094   7.475  67.662  1.00  0.00    -0.512 N  
HETATM   23  H   UNL     1     -11.965   7.579  68.184  1.00  0.00     0.000 HD 
HETATM   24  O   UNL     1      -9.561   8.682  66.387  1.00  0.00    -0.209 OA 
BRANCH  22  25
HETATM   25  C   UNL     1     -10.571   6.183  67.515  1.00  0.00    -0.273 A  
HETATM   26  N   UNL     1     -10.577   5.584  66.308  1.00  0.00    -0.212 NA 
HETATM   27  C   UNL     1     -10.061   4.335  66.216  1.00  0.00    -0.172 A  
HETATM   28  C   UNL     1      -9.531   3.651  67.291  1.00  0.00    -0.196 A  
HETATM   29  C   UNL     1      -9.509   4.273  68.527  1.00  0.00    -0.216 A  
HETATM   30  F   UNL     1      -9.051   2.411  67.146  1.00  0.00    -0.141 F  
HETATM   31  C   UNL     1     -10.028   5.565  68.642  1.00  0.00    -0.222 A  
ENDBRANCH  22  25
ENDBRANCH  12  21
ENDBRANCH  10  11
ENDBRANCH   9  10
ENDBRANCH   5   9
TORSDOF 6
ENDMDL
MODEL       98
REMARK 921   NORMALIZED FREE ENERGY PREDICTED BY IDOCK:   -5.34 KCAL/MOL
REMARK 922        TOTAL FREE ENERGY PREDICTED BY IDOCK:   -8.76 KCAL/MOL
REMARK 923 INTER-LIGAND FREE ENERGY PREDICTED BY IDOCK:   -7.98 KCAL/MOL
REMARK 924 INTRA-LIGAND FREE ENERGY PREDICTED BY IDOCK:   -0.78 KCAL/MOL
REMARK 927      BINDING AFFINITY PREDICTED BY RF-SCORE:    0.00 PKD
ROOT
HETATM    1  C   UNL     1     -13.964  14.179  72.609  1.00  0.00    -0.412 C  
HETATM    2  C   UNL     1     -13.275  13.182  71.734  1.00  0.00    -0.403 A  
HETATM    3  N   UNL     1     -13.498  11.882  71.943  1.00  0.00    -0.307 NA 
HETATM    4  C   UNL     1     -12.845  11.046  71.110  1.00  0.00    -0.392 A  
HETATM    5  C   UNL     1     -11.980  11.425  70.091  1.00  0.00    -0.377 A  
HETATM    6  C   UNL     1     -11.116  13.548  68.859  1.00  0.00    -0.305 C  
HETATM    7  C   UNL     1     -11.835  12.798  69.939  1.00  0.00    -0.301 A  
HETATM    8  N   UNL     1     -12.477  13.668  70.769  1.00  0.00    -0.359 NA 
ENDROOT
BRANCH   5   9
HETATM    9  O   UNL     1     -11.464  10.359  69.419  1.00  0.00    -0.243 OA 
BRANCH   9  10
HETATM   10  C   UNL     1     -10.065  10.113  69.504  1.00  0.00    -0.235 C  
BRANCH  10  11
HETATM   11  C   UNL     1      -9.682   8.965  68.558  1.00  0.00    -0.172 C  
HETATM   12  C   UNL     1      -9.515   9.295  67.054  1.00  0.00    -0.205 C  
HETATM   13  C   UNL     1     -10.769   8.619  67.556  1.00  0.00    -0.209 C  
BRANCH  11  14
HETATM   14  C   UNL     1      -8.778   7.839  69.139  1.00  0.00    -0.139 A  
HETATM   15  C   UNL     1      -8.006   6.981  68.317  1.00  0.00    -0.123 A  
HETATM   16  F   UNL     1      -7.685   6.499  72.370  1.00  0.00    -0.093 F  
HETATM   17  C   UNL     1      -7.141   6.007  68.836  1.00  0.00    -0.081 A  
HETATM   18  C   UNL     1      -8.643   7.622  70.524  1.00  0.00    -0.137 A  
HETATM   19  C   UNL     1      -7.783   6.651  71.043  1.00  0.00    -0.097 A  
HETATM   20  C   UNL     1      -7.024   5.845  70.212  1.00  0.00    -0.062 A  
ENDBRANCH  11  14
BRANCH  12  21
HETATM   21  C   UNL     1      -9.512  10.722  66.591  1.00  0.00    -0.175 C  
HETATM   22  N   UNL     1     -10.776  11.217  66.358  1.00  0.00    -0.262 N  
HETATM   23  H   UNL     1     -11.570  10.641  66.636  1.00  0.00     0.000 HD 
HETATM   24  O   UNL     1      -8.448  11.311  66.464  1.00  0.00    -0.163 OA 
BRANCH  22  25
HETATM   25  C   UNL     1     -11.044  12.458  65.764  1.00  0.00    -0.315 A  
HETATM   26  N   UNL     1     -10.051  13.350  65.583  1.00  0.00    -0.290 NA 
HETATM   27  C   UNL     1     -10.360  14.536  65.005  1.00  0.00    -0.413 A  
HETATM   28  C   UNL     1     -11.634  14.871  64.593  1.00  0.00    -0.395 A  
HETATM   29  C   UNL     1     -12.650  13.946  64.763  1.00  0.00    -0.329 A  
HETATM   30  F   UNL     1     -11.886  16.064  64.045  1.00  0.00    -0.486 F  
HETATM   31  C   UNL     1     -12.351  12.714  65.348  1.00  0.00    -0.499 A  
ENDBRANCH  22  25
ENDBRANCH  12  21
ENDBRANCH  10  11
ENDBRANCH   9  10
ENDBRANCH   5   9
TORSDOF 6
ENDMDL
MODEL       99
REMARK 921   NORMALIZED FREE ENERGY PREDICTED BY IDOCK:   -5.31 KCAL/MOL
REMARK 922        TOTAL FREE ENERGY PREDICTED BY IDOCK:   -8.73 KCAL/MOL
REMARK 923 INTER-LIGAND FREE ENERGY PREDICTED BY IDOCK:   -6.67 KCAL/MOL
REMARK 924 INTRA-LIGAND FREE ENERGY PREDICTED BY IDOCK:   -2.05 KCAL/MOL
REMARK 927      BINDING AFFINITY PREDICTED BY RF-SCORE:    0.00 PKD
ROOT
HETATM    1  C   UNL     1      -7.413   6.239  69.920  1.00  0.00    -0.084 C  
HETATM    2  C   UNL     1      -7.724   7.682  69.680  1.00  0.00    -0.099 A  
HETATM    3  N   UNL     1      -6.896   8.399  68.916  1.00  0.00    -0.060 NA 
HETATM    4  C   UNL     1      -7.248   9.689  68.743  1.00  0.00    -0.072 A  
HETATM    5  C   UNL     1      -8.366  10.309  69.289  1.00  0.00    -0.163 A  
HETATM    6  C   UNL     1     -10.520   9.761  70.643  1.00  0.00    -0.358 C  
HETATM    7  C   UNL     1      -9.175   9.471  70.047  1.00  0.00    -0.234 A  
HETATM    8  N   UNL     1      -8.843   8.164  70.244  1.00  0.00    -0.140 NA 
ENDROOT
BRANCH   5   9
HETATM    9  O   UNL     1      -8.457  11.622  68.944  1.00  0.00    -0.076 OA 
BRANCH   9  10
HETATM   10  C   UNL     1      -8.514  11.960  67.563  1.00  0.00    -0.161 C  
BRANCH  10  11
HETATM   11  C   UNL     1      -9.915  12.484  67.215  1.00  0.00    -0.211 C  
HETATM   12  C   UNL     1     -10.768  11.660  66.219  1.00  0.00    -0.317 C  
HETATM   13  C   UNL     1     -10.059  12.914  65.766  1.00  0.00    -0.294 C  
BRANCH  11  14
HETATM   14  C   UNL     1     -10.681  13.255  68.331  1.00  0.00    -0.273 A  
HETATM   15  C   UNL     1     -11.726  12.666  69.084  1.00  0.00    -0.375 A  
HETATM   16  F   UNL     1     -10.650  16.502  70.030  1.00  0.00    -0.303 F  
HETATM   17  C   UNL     1     -12.376  13.333  70.133  1.00  0.00    -0.306 A  
HETATM   18  C   UNL     1     -10.360  14.580  68.685  1.00  0.00    -0.242 A  
HETATM   19  C   UNL     1     -11.008  15.247  69.728  1.00  0.00    -0.284 A  
HETATM   20  C   UNL     1     -12.009  14.633  70.461  1.00  0.00    -0.376 A  
ENDBRANCH  11  14
BRANCH  12  21
HETATM   21  C   UNL     1     -10.318  10.293  65.793  1.00  0.00    -0.165 C  
HETATM   22  N   UNL     1     -10.531   9.331  66.755  1.00  0.00    -0.226 N  
HETATM   23  H   UNL     1     -11.073   9.593  67.578  1.00  0.00     0.000 HD 
HETATM   24  O   UNL     1      -9.825  10.139  64.686  1.00  0.00    -0.324 OA 
BRANCH  22  25
HETATM   25  C   UNL     1     -10.054   8.015  66.679  1.00  0.00    -0.259 A  
HETATM   26  N   UNL     1      -8.846   7.763  66.139  1.00  0.00    -0.157 NA 
HETATM   27  C   UNL     1      -8.429   6.475  66.088  1.00  0.00    -0.137 A  
HETATM   28  C   UNL     1      -9.175   5.415  66.561  1.00  0.00    -0.138 A  
HETATM   29  C   UNL     1     -10.409   5.677  67.133  1.00  0.00    -0.301 A  
HETATM   30  F   UNL     1      -8.722   4.161  66.468  1.00  0.00    -0.110 F  
HETATM   31  C   UNL     1     -10.854   6.999  67.204  1.00  0.00    -0.427 A  
ENDBRANCH  22  25
ENDBRANCH  12  21
ENDBRANCH  10  11
ENDBRANCH   9  10
ENDBRANCH   5   9
TORSDOF 6
ENDMDL
MODEL      100
REMARK 921   NORMALIZED FREE ENERGY PREDICTED BY IDOCK:   -5.28 KCAL/MOL
REMARK 922        TOTAL FREE ENERGY PREDICTED BY IDOCK:   -8.68 KCAL/MOL
REMARK 923 INTER-LIGAND FREE ENERGY PREDICTED BY IDOCK:   -7.71 KCAL/MOL
REMARK 924 INTRA-LIGAND FREE ENERGY PREDICTED BY IDOCK:   -0.97 KCAL/MOL
REMARK 927      BINDING AFFINITY PREDICTED BY RF-SCORE:    0.00 PKD
ROOT
HETATM    1  C   UNL     1      -9.497   3.044  71.187  1.00  0.00    -0.222 C  
HETATM    2  C   UNL     1      -9.916   4.474  71.071  1.00  0.00    -0.187 A  
HETATM    3  N   UNL     1     -10.270   4.943  69.872  1.00  0.00    -0.262 NA 
HETATM    4  C   UNL     1     -10.640   6.240  69.849  1.00  0.00    -0.249 A  
HETATM    5  C   UNL     1     -10.670   7.097  70.943  1.00  0.00    -0.231 A  
HETATM    6  C   UNL     1     -10.378   7.083  73.529  1.00  0.00    -0.394 C  
HETATM    7  C   UNL     1     -10.308   6.506  72.147  1.00  0.00    -0.198 A  
HETATM    8  N   UNL     1      -9.924   5.199  72.201  1.00  0.00    -0.181 NA 
ENDROOT
BRANCH   5   9
HETATM    9  O   UNL     1     -11.081   8.352  70.613  1.00  0.00    -0.251 OA 
BRANCH   9  10
HETATM   10  C   UNL     1     -10.145   9.419  70.699  1.00  0.00    -0.291 C  
BRANCH  10  11
HETATM   11  C   UNL     1      -9.703   9.836  69.288  1.00  0.00    -0.204 C  
HETATM   12  C   UNL     1     -10.582  10.860  68.529  1.00  0.00    -0.219 C  
HETATM   13  C   UNL     1     -10.661   9.389  68.197  1.00  0.00    -0.261 C  
BRANCH  11  14
HETATM   14  C   UNL     1      -8.172   9.872  69.006  1.00  0.00    -0.124 A  
HETATM   15  C   UNL     1      -7.445   8.726  68.602  1.00  0.00    -0.092 A  
HETATM   16  F   UNL     1      -5.393  12.258  68.887  1.00  0.00    -0.054 F  
HETATM   17  C   UNL     1      -6.079   8.766  68.285  1.00  0.00    -0.050 A  
HETATM   18  C   UNL     1      -7.417  11.057  69.103  1.00  0.00    -0.121 A  
HETATM   19  C   UNL     1      -6.056  11.098  68.790  1.00  0.00    -0.043 A  
HETATM   20  C   UNL     1      -5.380   9.964  68.374  1.00  0.00    -0.036 A  
ENDBRANCH  11  14
BRANCH  12  21
HETATM   21  C   UNL     1     -11.691  11.576  69.243  1.00  0.00    -0.330 C  
HETATM   22  N   UNL     1     -11.300  12.784  69.775  1.00  0.00    -0.495 N  
HETATM   23  H   UNL     1     -10.372  13.132  69.533  1.00  0.00     0.000 HD 
HETATM   24  O   UNL     1     -12.801  11.065  69.295  1.00  0.00    -0.173 OA 
BRANCH  22  25
HETATM   25  C   UNL     1     -12.090  13.568  70.627  1.00  0.00    -0.309 A  
HETATM   26  N   UNL     1     -12.742  13.000  71.660  1.00  0.00    -0.259 NA 
HETATM   27  C   UNL     1     -13.493  13.799  72.454  1.00  0.00    -0.571 A  
HETATM   28  C   UNL     1     -13.621  15.159  72.260  1.00  0.00    -0.462 A  
HETATM   29  C   UNL     1     -12.937  15.746  71.209  1.00  0.00    -0.455 A  
HETATM   30  F   UNL     1     -14.392  15.898  73.065  1.00  0.00    -0.605 F  
HETATM   31  C   UNL     1     -12.149  14.941  70.383  1.00  0.00    -0.386 A  
ENDBRANCH  22  25
ENDBRANCH  12  21
ENDBRANCH  10  11
ENDBRANCH   9  10
ENDBRANCH   5   9
TORSDOF 6
ENDMDL
MODEL      101
REMARK 921   NORMALIZED FREE ENERGY PREDICTED BY IDOCK:   -5.27 KCAL/MOL
REMARK 922        TOTAL FREE ENERGY PREDICTED BY IDOCK:   -8.67 KCAL/MOL
REMARK 923 INTER-LIGAND FREE ENERGY PREDICTED BY IDOCK:   -7.45 KCAL/MOL
REMARK 924 INTRA-LIGAND FREE ENERGY PREDICTED BY IDOCK:   -1.22 KCAL/MOL
REMARK 927      BINDING AFFINITY PREDICTED BY RF-SCORE:    0.00 PKD
ROOT
HETATM    1  C   UNL     1     -12.999  11.739  63.439  1.00  0.00    -0.177 C  
HETATM    2  C   UNL     1     -12.535  12.692  64.492  1.00  0.00    -0.448 A  
HETATM    3  N   UNL     1     -12.426  12.255  65.750  1.00  0.00    -0.423 NA 
HETATM    4  C   UNL     1     -11.995  13.172  66.641  1.00  0.00    -0.389 A  
HETATM    5  C   UNL     1     -11.677  14.495  66.357  1.00  0.00    -0.363 A  
HETATM    6  C   UNL     1     -11.394  16.118  64.343  1.00  0.00    -0.210 C  
HETATM    7  C   UNL     1     -11.799  14.842  65.017  1.00  0.00    -0.299 A  
HETATM    8  N   UNL     1     -12.236  13.939  64.095  1.00  0.00    -0.613 NA 
ENDROOT
BRANCH   5   9
HETATM    9  O   UNL     1     -11.276  15.184  67.461  1.00  0.00    -0.318 OA 
BRANCH   9  10
HETATM   10  C   UNL     1     -10.370  14.558  68.362  1.00  0.00    -0.241 C  
BRANCH  10  11
HETATM   11  C   UNL     1      -9.013  15.275  68.313  1.00  0.00    -0.176 C  
HETATM   12  C   UNL     1      -7.735  14.400  68.284  1.00  0.00    -0.129 C  
HETATM   13  C   UNL     1      -8.176  15.072  69.563  1.00  0.00    -0.106 C  
BRANCH  11  14
HETATM   14  C   UNL     1      -8.955  16.634  67.555  1.00  0.00    -0.204 A  
HETATM   15  C   UNL     1      -9.932  17.646  67.731  1.00  0.00    -0.315 A  
HETATM   16  F   UNL     1      -6.804  18.461  65.218  1.00  0.00    -0.295 F  
HETATM   17  C   UNL     1      -9.852  18.896  67.100  1.00  0.00    -0.368 A  
HETATM   18  C   UNL     1      -7.910  16.959  66.669  1.00  0.00    -0.298 A  
HETATM   19  C   UNL     1      -7.830  18.203  66.039  1.00  0.00    -0.139 A  
HETATM   20  C   UNL     1      -8.788  19.179  66.252  1.00  0.00    -0.308 A  
ENDBRANCH  11  14
BRANCH  12  21
HETATM   21  C   UNL     1      -7.842  12.917  68.087  1.00  0.00    -0.147 C  
HETATM   22  N   UNL     1      -7.847  12.547  66.761  1.00  0.00    -0.394 N  
HETATM   23  H   UNL     1      -7.650  13.268  66.066  1.00  0.00     0.000 HD 
HETATM   24  O   UNL     1      -7.911  12.183  69.063  1.00  0.00     0.008 OA 
BRANCH  22  25
HETATM   25  C   UNL     1      -8.103  11.249  66.301  1.00  0.00    -0.108 A  
HETATM   26  N   UNL     1      -7.155  10.296  66.398  1.00  0.00    -0.106 NA 
HETATM   27  C   UNL     1      -7.450   9.057  65.940  1.00  0.00    -0.094 A  
HETATM   28  C   UNL     1      -8.668   8.723  65.382  1.00  0.00    -0.183 A  
HETATM   29  C   UNL     1      -9.648   9.697  65.298  1.00  0.00    -0.347 A  
HETATM   30  F   UNL     1      -8.898   7.486  64.928  1.00  0.00    -0.022 F  
HETATM   31  C   UNL     1      -9.367  10.980  65.774  1.00  0.00    -0.236 A  
ENDBRANCH  22  25
ENDBRANCH  12  21
ENDBRANCH  10  11
ENDBRANCH   9  10
ENDBRANCH   5   9
TORSDOF 6
ENDMDL
MODEL      102
REMARK 921   NORMALIZED FREE ENERGY PREDICTED BY IDOCK:   -5.27 KCAL/MOL
REMARK 922        TOTAL FREE ENERGY PREDICTED BY IDOCK:   -8.66 KCAL/MOL
REMARK 923 INTER-LIGAND FREE ENERGY PREDICTED BY IDOCK:   -7.77 KCAL/MOL
REMARK 924 INTRA-LIGAND FREE ENERGY PREDICTED BY IDOCK:   -0.89 KCAL/MOL
REMARK 927      BINDING AFFINITY PREDICTED BY RF-SCORE:    0.00 PKD
ROOT
HETATM    1  C   UNL     1     -12.362  14.940  72.084  1.00  0.00    -0.430 C  
HETATM    2  C   UNL     1     -12.303  13.889  71.022  1.00  0.00    -0.376 A  
HETATM    3  N   UNL     1     -12.129  14.268  69.754  1.00  0.00    -0.330 NA 
HETATM    4  C   UNL     1     -12.080  13.262  68.856  1.00  0.00    -0.222 A  
HETATM    5  C   UNL     1     -12.202  11.908  69.144  1.00  0.00    -0.082 A  
HETATM    6  C   UNL     1     -12.355  10.278  71.166  1.00  0.00    -0.501 C  
HETATM    7  C   UNL     1     -12.353  11.618  70.494  1.00  0.00    -0.321 A  
HETATM    8  N   UNL     1     -12.411  12.612  71.424  1.00  0.00    -0.195 NA 
ENDROOT
BRANCH   5   9
HETATM    9  O   UNL     1     -12.118  11.128  68.031  1.00  0.00    -0.635 OA 
BRANCH   9  10
HETATM   10  C   UNL     1     -11.134  10.101  67.993  1.00  0.00    -0.240 C  
BRANCH  10  11
HETATM   11  C   UNL     1      -9.880  10.613  67.268  1.00  0.00    -0.206 C  
HETATM   12  C   UNL     1      -8.504  10.092  67.750  1.00  0.00    -0.114 C  
HETATM   13  C   UNL     1      -8.982  11.470  68.142  1.00  0.00    -0.172 C  
BRANCH  11  14
HETATM   14  C   UNL     1     -10.021  10.937  65.751  1.00  0.00    -0.299 A  
HETATM   15  C   UNL     1      -9.350  10.195  64.748  1.00  0.00    -0.324 A  
HETATM   16  F   UNL     1     -11.839  13.204  63.519  1.00  0.00    -0.483 F  
HETATM   17  C   UNL     1      -9.522  10.441  63.378  1.00  0.00    -0.356 A  
HETATM   18  C   UNL     1     -10.853  11.970  65.276  1.00  0.00    -0.340 A  
HETATM   19  C   UNL     1     -11.023  12.218  63.912  1.00  0.00    -0.406 A  
HETATM   20  C   UNL     1     -10.372  11.458  62.957  1.00  0.00    -0.275 A  
ENDBRANCH  11  14
BRANCH  12  21
HETATM   21  C   UNL     1      -8.429   8.965  68.737  1.00  0.00    -0.131 C  
HETATM   22  N   UNL     1      -8.436   9.392  70.046  1.00  0.00    -0.170 N  
HETATM   23  H   UNL     1      -8.620  10.380  70.223  1.00  0.00     0.000 HD 
HETATM   24  O   UNL     1      -8.374   7.813  68.333  1.00  0.00    -0.123 OA 
BRANCH  22  25
HETATM   25  C   UNL     1      -8.209   8.562  71.152  1.00  0.00    -0.144 A  
HETATM   26  N   UNL     1      -7.066   7.856  71.246  1.00  0.00    -0.053 NA 
HETATM   27  C   UNL     1      -6.893   7.067  72.333  1.00  0.00    -0.061 A  
HETATM   28  C   UNL     1      -7.823   6.955  73.346  1.00  0.00    -0.094 A  
HETATM   29  C   UNL     1      -8.990   7.696  73.259  1.00  0.00    -0.259 A  
HETATM   30  F   UNL     1      -7.608   6.147  74.389  1.00  0.00    -0.093 F  
HETATM   31  C   UNL     1      -9.185   8.522  72.150  1.00  0.00    -0.336 A  
ENDBRANCH  22  25
ENDBRANCH  12  21
ENDBRANCH  10  11
ENDBRANCH   9  10
ENDBRANCH   5   9
TORSDOF 6
ENDMDL
MODEL      103
REMARK 921   NORMALIZED FREE ENERGY PREDICTED BY IDOCK:   -5.22 KCAL/MOL
REMARK 922        TOTAL FREE ENERGY PREDICTED BY IDOCK:   -8.60 KCAL/MOL
REMARK 923 INTER-LIGAND FREE ENERGY PREDICTED BY IDOCK:   -7.15 KCAL/MOL
REMARK 924 INTRA-LIGAND FREE ENERGY PREDICTED BY IDOCK:   -1.46 KCAL/MOL
REMARK 927      BINDING AFFINITY PREDICTED BY RF-SCORE:    0.00 PKD
ROOT
HETATM    1  C   UNL     1     -13.637   9.250  72.552  1.00  0.00    -0.478 C  
HETATM    2  C   UNL     1     -12.701   9.650  71.457  1.00  0.00    -0.387 A  
HETATM    3  N   UNL     1     -11.933   8.714  70.895  1.00  0.00    -0.242 NA 
HETATM    4  C   UNL     1     -11.121   9.152  69.911  1.00  0.00    -0.159 A  
HETATM    5  C   UNL     1     -11.022  10.463  69.461  1.00  0.00    -0.262 A  
HETATM    6  C   UNL     1     -12.149  12.790  69.754  1.00  0.00    -0.305 C  
HETATM    7  C   UNL     1     -11.881  11.354  70.091  1.00  0.00    -0.355 A  
HETATM    8  N   UNL     1     -12.709  10.943  71.092  1.00  0.00    -0.401 NA 
ENDROOT
BRANCH   5   9
HETATM    9  O   UNL     1     -10.111  10.604  68.459  1.00  0.00    -0.159 OA 
BRANCH   9  10
HETATM   10  C   UNL     1      -8.945  11.381  68.704  1.00  0.00    -0.131 C  
BRANCH  10  11
HETATM   11  C   UNL     1      -8.408  11.942  67.379  1.00  0.00    -0.163 C  
HETATM   12  C   UNL     1      -7.675  10.967  66.426  1.00  0.00    -0.154 C  
HETATM   13  C   UNL     1      -6.893  11.931  67.287  1.00  0.00    -0.142 C  
BRANCH  11  14
HETATM   14  C   UNL     1      -9.215  13.100  66.721  1.00  0.00    -0.232 A  
HETATM   15  C   UNL     1     -10.001  12.915  65.557  1.00  0.00    -0.226 A  
HETATM   16  F   UNL     1     -10.013  16.635  67.267  1.00  0.00    -0.248 F  
HETATM   17  C   UNL     1     -10.780  13.937  64.996  1.00  0.00    -0.397 A  
HETATM   18  C   UNL     1      -9.241  14.401  67.260  1.00  0.00    -0.214 A  
HETATM   19  C   UNL     1     -10.015  15.420  66.701  1.00  0.00    -0.260 A  
HETATM   20  C   UNL     1     -10.792  15.199  65.577  1.00  0.00    -0.373 A  
ENDBRANCH  11  14
BRANCH  12  21
HETATM   21  C   UNL     1      -7.692   9.491  66.699  1.00  0.00    -0.098 C  
HETATM   22  N   UNL     1      -8.719   8.836  66.057  1.00  0.00    -0.156 N  
HETATM   23  H   UNL     1      -9.268   9.363  65.378  1.00  0.00     0.000 HD 
HETATM   24  O   UNL     1      -6.841   9.004  67.428  1.00  0.00    -0.075 OA 
BRANCH  22  25
HETATM   25  C   UNL     1      -9.060   7.494  66.272  1.00  0.00    -0.157 A  
HETATM   26  N   UNL     1      -8.195   6.514  65.946  1.00  0.00    -0.125 NA 
HETATM   27  C   UNL     1      -8.570   5.233  66.173  1.00  0.00    -0.120 A  
HETATM   28  C   UNL     1      -9.788   4.884  66.721  1.00  0.00    -0.200 A  
HETATM   29  C   UNL     1     -10.670   5.892  67.073  1.00  0.00    -0.396 A  
HETATM   30  F   UNL     1     -10.114   3.600  66.907  1.00  0.00    -0.172 F  
HETATM   31  C   UNL     1     -10.298   7.220  66.856  1.00  0.00    -0.358 A  
ENDBRANCH  22  25
ENDBRANCH  12  21
ENDBRANCH  10  11
ENDBRANCH   9  10
ENDBRANCH   5   9
TORSDOF 6
ENDMDL
MODEL      104
REMARK 921   NORMALIZED FREE ENERGY PREDICTED BY IDOCK:   -5.22 KCAL/MOL
REMARK 922        TOTAL FREE ENERGY PREDICTED BY IDOCK:   -8.60 KCAL/MOL
REMARK 923 INTER-LIGAND FREE ENERGY PREDICTED BY IDOCK:   -6.84 KCAL/MOL
REMARK 924 INTRA-LIGAND FREE ENERGY PREDICTED BY IDOCK:   -1.76 KCAL/MOL
REMARK 927      BINDING AFFINITY PREDICTED BY RF-SCORE:    0.00 PKD
ROOT
HETATM    1  C   UNL     1      -6.705   5.721  69.269  1.00  0.00    -0.060 C  
HETATM    2  C   UNL     1      -7.381   7.041  69.464  1.00  0.00    -0.094 A  
HETATM    3  N   UNL     1      -6.806   8.136  68.960  1.00  0.00    -0.059 NA 
HETATM    4  C   UNL     1      -7.479   9.286  69.172  1.00  0.00    -0.072 A  
HETATM    5  C   UNL     1      -8.680   9.411  69.860  1.00  0.00    -0.197 A  
HETATM    6  C   UNL     1     -10.542   7.961  70.955  1.00  0.00    -0.227 C  
HETATM    7  C   UNL     1      -9.207   8.212  70.321  1.00  0.00    -0.151 A  
HETATM    8  N   UNL     1      -8.548   7.034  70.127  1.00  0.00    -0.139 NA 
ENDROOT
BRANCH   5   9
HETATM    9  O   UNL     1      -9.117  10.699  69.918  1.00  0.00     0.135 OA 
BRANCH   9  10
HETATM   10  C   UNL     1      -9.234  11.433  68.705  1.00  0.00    -0.146 C  
BRANCH  10  11
HETATM   11  C   UNL     1     -10.710  11.770  68.443  1.00  0.00    -0.249 C  
HETATM   12  C   UNL     1     -11.400  11.096  67.232  1.00  0.00    -0.302 C  
HETATM   13  C   UNL     1     -10.937  12.531  67.149  1.00  0.00    -0.302 C  
BRANCH  11  14
HETATM   14  C   UNL     1     -11.599  12.072  69.685  1.00  0.00    -0.371 A  
HETATM   15  C   UNL     1     -11.977  13.388  70.049  1.00  0.00    -0.407 A  
HETATM   16  F   UNL     1     -13.430  10.311  72.326  1.00  0.00    -0.499 F  
HETATM   17  C   UNL     1     -12.829  13.662  71.129  1.00  0.00    -0.399 A  
HETATM   18  C   UNL     1     -12.113  11.052  70.509  1.00  0.00    -0.470 A  
HETATM   19  C   UNL     1     -12.959  11.324  71.586  1.00  0.00    -0.432 A  
HETATM   20  C   UNL     1     -13.330  12.620  71.900  1.00  0.00    -0.485 A  
ENDBRANCH  11  14
BRANCH  12  21
HETATM   21  C   UNL     1     -10.707   9.992  66.488  1.00  0.00    -0.024 C  
HETATM   22  N   UNL     1     -10.669   8.809  67.191  1.00  0.00    -0.379 N  
HETATM   23  H   UNL     1     -11.207   8.752  68.056  1.00  0.00     0.000 HD 
HETATM   24  O   UNL     1     -10.256  10.209  65.373  1.00  0.00    -0.298 OA 
BRANCH  22  25
HETATM   25  C   UNL     1      -9.941   7.678  66.799  1.00  0.00    -0.247 A  
HETATM   26  N   UNL     1      -8.810   7.815  66.079  1.00  0.00    -0.164 NA 
HETATM   27  C   UNL     1      -8.142   6.692  65.724  1.00  0.00    -0.122 A  
HETATM   28  C   UNL     1      -8.559   5.421  66.063  1.00  0.00    -0.127 A  
HETATM   29  C   UNL     1      -9.711   5.280  66.818  1.00  0.00    -0.174 A  
HETATM   30  F   UNL     1      -7.870   4.345  65.669  1.00  0.00    -0.089 F  
HETATM   31  C   UNL     1     -10.410   6.427  67.203  1.00  0.00    -0.293 A  
ENDBRANCH  22  25
ENDBRANCH  12  21
ENDBRANCH  10  11
ENDBRANCH   9  10
ENDBRANCH   5   9
TORSDOF 6
ENDMDL
MODEL      105
REMARK 921   NORMALIZED FREE ENERGY PREDICTED BY IDOCK:   -5.22 KCAL/MOL
REMARK 922        TOTAL FREE ENERGY PREDICTED BY IDOCK:   -8.59 KCAL/MOL
REMARK 923 INTER-LIGAND FREE ENERGY PREDICTED BY IDOCK:   -7.19 KCAL/MOL
REMARK 924 INTRA-LIGAND FREE ENERGY PREDICTED BY IDOCK:   -1.40 KCAL/MOL
REMARK 927      BINDING AFFINITY PREDICTED BY RF-SCORE:    0.00 PKD
ROOT
HETATM    1  C   UNL     1     -12.009  14.520  67.137  1.00  0.00    -0.373 C  
HETATM    2  C   UNL     1     -11.234  13.257  66.937  1.00  0.00    -0.305 A  
HETATM    3  N   UNL     1     -11.832  12.227  66.333  1.00  0.00    -0.589 NA 
HETATM    4  C   UNL     1     -11.066  11.126  66.184  1.00  0.00    -0.085 A  
HETATM    5  C   UNL     1      -9.749  10.988  66.606  1.00  0.00    -0.195 A  
HETATM    6  C   UNL     1      -7.797  12.377  67.621  1.00  0.00    -0.163 C  
HETATM    7  C   UNL     1      -9.212  12.124  67.199  1.00  0.00    -0.193 A  
HETATM    8  N   UNL     1      -9.963  13.249  67.368  1.00  0.00    -0.230 NA 
ENDROOT
BRANCH   5   9
HETATM    9  O   UNL     1      -9.236   9.760  66.324  1.00  0.00    -0.151 OA 
BRANCH   9  10
HETATM   10  C   UNL     1      -9.937   8.608  66.777  1.00  0.00    -0.273 C  
BRANCH  10  11
HETATM   11  C   UNL     1      -8.951   7.619  67.416  1.00  0.00    -0.130 C  
HETATM   12  C   UNL     1      -8.446   7.925  68.847  1.00  0.00    -0.128 C  
HETATM   13  C   UNL     1      -7.571   8.205  67.648  1.00  0.00    -0.098 C  
BRANCH  11  14
HETATM   14  C   UNL     1      -9.100   6.118  67.025  1.00  0.00    -0.119 A  
HETATM   15  C   UNL     1      -9.359   5.105  67.980  1.00  0.00    -0.144 A  
HETATM   16  F   UNL     1      -9.139   3.979  64.050  1.00  0.00    -0.117 F  
HETATM   17  C   UNL     1      -9.557   3.762  67.628  1.00  0.00    -0.199 A  
HETATM   18  C   UNL     1      -9.019   5.676  65.690  1.00  0.00    -0.139 A  
HETATM   19  C   UNL     1      -9.213   4.339  65.338  1.00  0.00    -0.152 A  
HETATM   20  C   UNL     1      -9.490   3.377  66.294  1.00  0.00    -0.128 A  
ENDBRANCH  11  14
BRANCH  12  21
HETATM   21  C   UNL     1      -9.074   9.028  69.648  1.00  0.00    -0.154 C  
HETATM   22  N   UNL     1     -10.423   8.845  69.852  1.00  0.00    -0.209 N  
HETATM   23  H   UNL     1     -10.830   7.952  69.572  1.00  0.00     0.000 HD 
HETATM   24  O   UNL     1      -8.382   9.955  70.041  1.00  0.00    -0.186 OA 
BRANCH  22  25
HETATM   25  C   UNL     1     -11.276   9.801  70.420  1.00  0.00    -0.300 A  
HETATM   26  N   UNL     1     -11.266  11.071  69.969  1.00  0.00    -0.258 NA 
HETATM   27  C   UNL     1     -12.107  11.958  70.550  1.00  0.00    -0.331 A  
HETATM   28  C   UNL     1     -12.971  11.628  71.575  1.00  0.00    -0.358 A  
HETATM   29  C   UNL     1     -12.994  10.319  72.026  1.00  0.00    -0.503 A  
HETATM   30  F   UNL     1     -13.768  12.550  72.125  1.00  0.00    -0.539 F  
HETATM   31  C   UNL     1     -12.141   9.386  71.434  1.00  0.00    -0.442 A  
ENDBRANCH  22  25
ENDBRANCH  12  21
ENDBRANCH  10  11
ENDBRANCH   9  10
ENDBRANCH   5   9
TORSDOF 6
ENDMDL
MODEL      106
REMARK 921   NORMALIZED FREE ENERGY PREDICTED BY IDOCK:   -5.21 KCAL/MOL
REMARK 922        TOTAL FREE ENERGY PREDICTED BY IDOCK:   -8.58 KCAL/MOL
REMARK 923 INTER-LIGAND FREE ENERGY PREDICTED BY IDOCK:   -7.70 KCAL/MOL
REMARK 924 INTRA-LIGAND FREE ENERGY PREDICTED BY IDOCK:   -0.88 KCAL/MOL
REMARK 927      BINDING AFFINITY PREDICTED BY RF-SCORE:    0.00 PKD
ROOT
HETATM    1  C   UNL     1     -13.692   9.334  72.608  1.00  0.00    -0.386 C  
HETATM    2  C   UNL     1     -12.888  10.065  71.582  1.00  0.00    -0.440 A  
HETATM    3  N   UNL     1     -12.126   9.360  70.742  1.00  0.00    -0.247 NA 
HETATM    4  C   UNL     1     -11.436  10.091  69.842  1.00  0.00    -0.215 A  
HETATM    5  C   UNL     1     -11.453  11.476  69.734  1.00  0.00    -0.286 A  
HETATM    6  C   UNL     1     -12.673  13.563  70.697  1.00  0.00    -0.275 C  
HETATM    7  C   UNL     1     -12.296  12.113  70.636  1.00  0.00    -0.295 A  
HETATM    8  N   UNL     1     -13.001  11.403  71.561  1.00  0.00    -0.440 NA 
ENDROOT
BRANCH   5   9
HETATM    9  O   UNL     1     -10.651  11.932  68.733  1.00  0.00    -0.216 OA 
BRANCH   9  10
HETATM   10  C   UNL     1     -10.985  11.604  67.390  1.00  0.00    -0.261 C  
BRANCH  10  11
HETATM   11  C   UNL     1      -9.797  10.900  66.717  1.00  0.00    -0.231 C  
HETATM   12  C   UNL     1      -8.506  11.723  66.489  1.00  0.00    -0.125 C  
HETATM   13  C   UNL     1      -9.459  11.460  65.347  1.00  0.00    -0.240 C  
BRANCH  11  14
HETATM   14  C   UNL     1      -9.625   9.378  66.995  1.00  0.00    -0.209 A  
HETATM   15  C   UNL     1      -8.455   8.838  67.584  1.00  0.00    -0.125 A  
HETATM   16  F   UNL     1     -11.506   6.243  66.735  1.00  0.00    -0.376 F  
HETATM   17  C   UNL     1      -8.319   7.478  67.895  1.00  0.00    -0.123 A  
HETATM   18  C   UNL     1     -10.638   8.441  66.709  1.00  0.00    -0.227 A  
HETATM   19  C   UNL     1     -10.503   7.085  67.017  1.00  0.00    -0.316 A  
HETATM   20  C   UNL     1      -9.356   6.595  67.615  1.00  0.00    -0.119 A  
ENDBRANCH  11  14
BRANCH  12  21
HETATM   21  C   UNL     1      -8.360  13.083  67.106  1.00  0.00    -0.150 C  
HETATM   22  N   UNL     1      -9.194  14.023  66.544  1.00  0.00    -0.422 N  
HETATM   23  H   UNL     1      -9.899  13.698  65.883  1.00  0.00     0.000 HD 
HETATM   24  O   UNL     1      -7.559  13.249  68.015  1.00  0.00    -0.116 OA 
BRANCH  22  25
HETATM   25  C   UNL     1      -9.140  15.396  66.819  1.00  0.00    -0.259 A  
HETATM   26  N   UNL     1      -8.272  16.186  66.157  1.00  0.00    -0.236 NA 
HETATM   27  C   UNL     1      -8.257  17.506  66.458  1.00  0.00    -0.276 A  
HETATM   28  C   UNL     1      -9.084  18.079  67.404  1.00  0.00    -0.250 A  
HETATM   29  C   UNL     1      -9.988  17.271  68.071  1.00  0.00    -0.304 A  
HETATM   30  F   UNL     1      -9.013  19.387  67.674  1.00  0.00    -0.308 F  
HETATM   31  C   UNL     1     -10.026  15.908  67.769  1.00  0.00    -0.229 A  
ENDBRANCH  22  25
ENDBRANCH  12  21
ENDBRANCH  10  11
ENDBRANCH   9  10
ENDBRANCH   5   9
TORSDOF 6
ENDMDL
MODEL      107
REMARK 921   NORMALIZED FREE ENERGY PREDICTED BY IDOCK:   -5.18 KCAL/MOL
REMARK 922        TOTAL FREE ENERGY PREDICTED BY IDOCK:   -8.54 KCAL/MOL
REMARK 923 INTER-LIGAND FREE ENERGY PREDICTED BY IDOCK:   -8.09 KCAL/MOL
REMARK 924 INTRA-LIGAND FREE ENERGY PREDICTED BY IDOCK:   -0.45 KCAL/MOL
REMARK 927      BINDING AFFINITY PREDICTED BY RF-SCORE:    0.00 PKD
ROOT
HETATM    1  C   UNL     1      -6.849  17.370  68.479  1.00  0.00    -0.203 C  
HETATM    2  C   UNL     1      -7.416  15.987  68.440  1.00  0.00    -0.143 A  
HETATM    3  N   UNL     1      -8.584  15.789  67.824  1.00  0.00    -0.158 NA 
HETATM    4  C   UNL     1      -9.025  14.514  67.826  1.00  0.00    -0.190 A  
HETATM    5  C   UNL     1      -8.380  13.431  68.410  1.00  0.00    -0.137 A  
HETATM    6  C   UNL     1      -6.141  12.801  69.576  1.00  0.00    -0.118 C  
HETATM    7  C   UNL     1      -7.161  13.737  69.002  1.00  0.00    -0.088 A  
HETATM    8  N   UNL     1      -6.691  15.016  69.020  1.00  0.00    -0.109 NA 
ENDROOT
BRANCH   5   9
HETATM    9  O   UNL     1      -9.069  12.267  68.256  1.00  0.00    -0.194 OA 
BRANCH   9  10
HETATM   10  C   UNL     1      -8.691  11.386  67.204  1.00  0.00    -0.155 C  
BRANCH  10  11
HETATM   11  C   UNL     1      -9.944  10.898  66.461  1.00  0.00    -0.255 C  
HETATM   12  C   UNL     1     -10.557   9.544  66.893  1.00  0.00    -0.241 C  
HETATM   13  C   UNL     1      -9.712   9.639  65.646  1.00  0.00    -0.363 C  
BRANCH  11  14
HETATM   14  C   UNL     1     -10.929  11.987  65.941  1.00  0.00    -0.342 A  
HETATM   15  C   UNL     1     -11.662  12.828  66.813  1.00  0.00    -0.459 A  
HETATM   16  F   UNL     1     -12.105  13.437  62.789  1.00  0.00    -0.477 F  
HETATM   17  C   UNL     1     -12.502  13.853  66.352  1.00  0.00    -0.414 A  
HETATM   18  C   UNL     1     -11.128  12.227  64.568  1.00  0.00    -0.368 A  
HETATM   19  C   UNL     1     -11.966  13.245  64.107  1.00  0.00    -0.447 A  
HETATM   20  C   UNL     1     -12.650  14.067  64.986  1.00  0.00    -0.416 A  
ENDBRANCH  11  14
BRANCH  12  21
HETATM   21  C   UNL     1     -10.069   8.857  68.135  1.00  0.00    -0.189 C  
HETATM   22  N   UNL     1     -11.047   8.717  69.094  1.00  0.00    -0.426 N  
HETATM   23  H   UNL     1     -12.004   8.957  68.835  1.00  0.00     0.000 HD 
HETATM   24  O   UNL     1      -8.905   8.490  68.202  1.00  0.00    -0.141 OA 
BRANCH  22  25
HETATM   25  C   UNL     1     -10.817   8.264  70.400  1.00  0.00    -0.235 A  
HETATM   26  N   UNL     1     -11.292   7.067  70.796  1.00  0.00    -0.283 NA 
HETATM   27  C   UNL     1     -11.044   6.674  72.068  1.00  0.00    -0.255 A  
HETATM   28  C   UNL     1     -10.332   7.434  72.973  1.00  0.00    -0.306 A  
HETATM   29  C   UNL     1      -9.829   8.657  72.561  1.00  0.00    -0.268 A  
HETATM   30  F   UNL     1     -10.132   7.005  74.223  1.00  0.00    -0.329 F  
HETATM   31  C   UNL     1     -10.065   9.077  71.250  1.00  0.00    -0.384 A  
ENDBRANCH  22  25
ENDBRANCH  12  21
ENDBRANCH  10  11
ENDBRANCH   9  10
ENDBRANCH   5   9
TORSDOF 6
ENDMDL
MODEL      108
REMARK 921   NORMALIZED FREE ENERGY PREDICTED BY IDOCK:   -5.17 KCAL/MOL
REMARK 922        TOTAL FREE ENERGY PREDICTED BY IDOCK:   -8.54 KCAL/MOL
REMARK 923 INTER-LIGAND FREE ENERGY PREDICTED BY IDOCK:   -7.22 KCAL/MOL
REMARK 924 INTRA-LIGAND FREE ENERGY PREDICTED BY IDOCK:   -1.32 KCAL/MOL
REMARK 927      BINDING AFFINITY PREDICTED BY RF-SCORE:    0.00 PKD
ROOT
HETATM    1  C   UNL     1     -11.159  16.950  68.092  1.00  0.00    -0.205 C  
HETATM    2  C   UNL     1     -11.377  15.477  68.225  1.00  0.00    -0.357 A  
HETATM    3  N   UNL     1     -11.329  14.928  69.441  1.00  0.00    -0.273 NA 
HETATM    4  C   UNL     1     -11.541  13.596  69.478  1.00  0.00    -0.301 A  
HETATM    5  C   UNL     1     -11.788  12.781  68.380  1.00  0.00    -0.310 A  
HETATM    6  C   UNL     1     -12.238  12.919  65.821  1.00  0.00    -0.498 C  
HETATM    7  C   UNL     1     -11.843  13.452  67.165  1.00  0.00    -0.382 A  
HETATM    8  N   UNL     1     -11.628  14.796  67.095  1.00  0.00    -0.374 NA 
ENDROOT
BRANCH   5   9
HETATM    9  O   UNL     1     -11.957  11.475  68.726  1.00  0.00    -0.372 OA 
BRANCH   9  10
HETATM   10  C   UNL     1     -10.935  10.833  69.480  1.00  0.00    -0.266 C  
BRANCH  10  11
HETATM   11  C   UNL     1     -10.245   9.768  68.615  1.00  0.00    -0.210 C  
HETATM   12  C   UNL     1      -8.862  10.113  68.011  1.00  0.00    -0.125 C  
HETATM   13  C   UNL     1     -10.107  10.168  67.157  1.00  0.00    -0.260 C  
BRANCH  11  14
HETATM   14  C   UNL     1     -10.502   8.277  68.987  1.00  0.00    -0.212 A  
HETATM   15  C   UNL     1     -10.321   7.220  68.063  1.00  0.00    -0.243 A  
HETATM   16  F   UNL     1     -11.434   6.222  71.874  1.00  0.00    -0.291 F  
HETATM   17  C   UNL     1     -10.489   5.871  68.409  1.00  0.00    -0.294 A  
HETATM   18  C   UNL     1     -10.900   7.882  70.279  1.00  0.00    -0.241 A  
HETATM   19  C   UNL     1     -11.070   6.540  70.625  1.00  0.00    -0.309 A  
HETATM   20  C   UNL     1     -10.860   5.528  69.704  1.00  0.00    -0.279 A  
ENDBRANCH  11  14
BRANCH  12  21
HETATM   21  C   UNL     1      -8.139  11.354  68.445  1.00  0.00    -0.145 C  
HETATM   22  N   UNL     1      -8.158  12.350  67.493  1.00  0.00    -0.162 N  
HETATM   23  H   UNL     1      -8.748  12.212  66.673  1.00  0.00     0.000 HD 
HETATM   24  O   UNL     1      -7.617  11.392  69.549  1.00  0.00     0.021 OA 
BRANCH  22  25
HETATM   25  C   UNL     1      -7.421  13.539  67.577  1.00  0.00    -0.167 A  
HETATM   26  N   UNL     1      -6.148  13.518  68.017  1.00  0.00    -0.118 NA 
HETATM   27  C   UNL     1      -5.478  14.693  68.080  1.00  0.00    -0.122 A  
HETATM   28  C   UNL     1      -6.031  15.904  67.715  1.00  0.00    -0.147 A  
HETATM   29  C   UNL     1      -7.333  15.923  67.245  1.00  0.00    -0.251 A  
HETATM   30  F   UNL     1      -5.328  17.037  67.815  1.00  0.00    -0.102 F  
HETATM   31  C   UNL     1      -8.039  14.721  67.164  1.00  0.00    -0.226 A  
ENDBRANCH  22  25
ENDBRANCH  12  21
ENDBRANCH  10  11
ENDBRANCH   9  10
ENDBRANCH   5   9
TORSDOF 6
ENDMDL
MODEL      109
REMARK 921   NORMALIZED FREE ENERGY PREDICTED BY IDOCK:   -5.15 KCAL/MOL
REMARK 922        TOTAL FREE ENERGY PREDICTED BY IDOCK:   -8.51 KCAL/MOL
REMARK 923 INTER-LIGAND FREE ENERGY PREDICTED BY IDOCK:   -7.26 KCAL/MOL
REMARK 924 INTRA-LIGAND FREE ENERGY PREDICTED BY IDOCK:   -1.25 KCAL/MOL
REMARK 927      BINDING AFFINITY PREDICTED BY RF-SCORE:    0.00 PKD
ROOT
HETATM    1  C   UNL     1      -6.620   6.237  67.676  1.00  0.00    -0.055 C  
HETATM    2  C   UNL     1      -7.822   7.066  67.997  1.00  0.00    -0.114 A  
HETATM    3  N   UNL     1      -7.743   8.391  67.857  1.00  0.00    -0.102 NA 
HETATM    4  C   UNL     1      -8.870   9.069  68.160  1.00  0.00    -0.133 A  
HETATM    5  C   UNL     1     -10.062   8.508  68.602  1.00  0.00    -0.190 A  
HETATM    6  C   UNL     1     -11.190   6.193  68.975  1.00  0.00    -0.375 C  
HETATM    7  C   UNL     1     -10.049   7.122  68.690  1.00  0.00    -0.173 A  
HETATM    8  N   UNL     1      -8.924   6.410  68.395  1.00  0.00    -0.121 NA 
ENDROOT
BRANCH   5   9
HETATM    9  O   UNL     1     -11.024   9.442  68.834  1.00  0.00    -0.165 OA 
BRANCH   9  10
HETATM   10  C   UNL     1     -10.799  10.413  69.849  1.00  0.00    -0.298 C  
BRANCH  10  11
HETATM   11  C   UNL     1     -12.096  10.648  70.638  1.00  0.00    -0.461 C  
HETATM   12  C   UNL     1     -12.504   9.587  71.689  1.00  0.00    -0.476 C  
HETATM   13  C   UNL     1     -13.180   9.629  70.339  1.00  0.00     0.302 C  
BRANCH  11  14
HETATM   14  C   UNL     1     -12.485  12.126  70.938  1.00  0.00    -0.374 A  
HETATM   15  C   UNL     1     -13.265  12.495  72.062  1.00  0.00    -0.524 A  
HETATM   16  F   UNL     1     -11.912  15.503  69.637  1.00  0.00    -0.304 F  
HETATM   17  C   UNL     1     -13.565  13.829  72.374  1.00  0.00    -0.690 A  
HETATM   18  C   UNL     1     -12.058  13.196  70.129  1.00  0.00    -0.392 A  
HETATM   19  C   UNL     1     -12.358  14.525  70.436  1.00  0.00    -0.338 A  
HETATM   20  C   UNL     1     -13.102  14.854  71.556  1.00  0.00    -0.434 A  
ENDBRANCH  11  14
BRANCH  12  21
HETATM   21  C   UNL     1     -11.548   8.494  72.067  1.00  0.00    -0.362 C  
HETATM   22  N   UNL     1     -10.290   8.961  72.374  1.00  0.00    -0.166 N  
HETATM   23  H   UNL     1     -10.161   9.970  72.447  1.00  0.00     0.000 HD 
HETATM   24  O   UNL     1     -11.933   7.334  72.076  1.00  0.00    -0.289 OA 
BRANCH  22  25
HETATM   25  C   UNL     1      -9.173   8.143  72.596  1.00  0.00    -0.263 A  
HETATM   26  N   UNL     1      -8.485   7.639  71.553  1.00  0.00    -0.113 NA 
HETATM   27  C   UNL     1      -7.415   6.853  71.817  1.00  0.00    -0.089 A  
HETATM   28  C   UNL     1      -6.994   6.548  73.096  1.00  0.00    -0.077 A  
HETATM   29  C   UNL     1      -7.690   7.081  74.168  1.00  0.00    -0.124 A  
HETATM   30  F   UNL     1      -5.939   5.751  73.299  1.00  0.00    -0.041 F  
HETATM   31  C   UNL     1      -8.792   7.900  73.916  1.00  0.00    -0.315 A  
ENDBRANCH  22  25
ENDBRANCH  12  21
ENDBRANCH  10  11
ENDBRANCH   9  10
ENDBRANCH   5   9
TORSDOF 6
ENDMDL
MODEL      110
REMARK 921   NORMALIZED FREE ENERGY PREDICTED BY IDOCK:   -5.14 KCAL/MOL
REMARK 922        TOTAL FREE ENERGY PREDICTED BY IDOCK:   -8.50 KCAL/MOL
REMARK 923 INTER-LIGAND FREE ENERGY PREDICTED BY IDOCK:   -7.19 KCAL/MOL
REMARK 924 INTRA-LIGAND FREE ENERGY PREDICTED BY IDOCK:   -1.31 KCAL/MOL
REMARK 927      BINDING AFFINITY PREDICTED BY RF-SCORE:    0.00 PKD
ROOT
HETATM    1  C   UNL     1      -6.187   9.604  64.817  1.00  0.00    -0.087 C  
HETATM    2  C   UNL     1      -7.499   9.897  65.470  1.00  0.00    -0.126 A  
HETATM    3  N   UNL     1      -7.632   9.664  66.778  1.00  0.00    -0.097 NA 
HETATM    4  C   UNL     1      -8.843   9.960  67.294  1.00  0.00    -0.132 A  
HETATM    5  C   UNL     1      -9.928  10.463  66.587  1.00  0.00    -0.210 A  
HETATM    6  C   UNL     1     -10.559  11.368  64.230  1.00  0.00    -0.416 C  
HETATM    7  C   UNL     1      -9.679  10.694  65.239  1.00  0.00    -0.259 A  
HETATM    8  N   UNL     1      -8.468  10.401  64.688  1.00  0.00    -0.177 NA 
ENDROOT
BRANCH   5   9
HETATM    9  O   UNL     1     -11.021  10.658  67.374  1.00  0.00    -0.286 OA 
BRANCH   9  10
HETATM   10  C   UNL     1     -11.724  11.890  67.270  1.00  0.00    -0.247 C  
BRANCH  10  11
HETATM   11  C   UNL     1     -11.183  12.885  68.307  1.00  0.00    -0.304 C  
HETATM   12  C   UNL     1     -11.304  12.506  69.803  1.00  0.00    -0.111 C  
HETATM   13  C   UNL     1     -12.264  13.494  69.183  1.00  0.00    -0.236 C  
BRANCH  11  14
HETATM   14  C   UNL     1      -9.950  13.741  67.892  1.00  0.00    -0.240 A  
HETATM   15  C   UNL     1      -8.631  13.422  68.298  1.00  0.00    -0.169 A  
HETATM   16  F   UNL     1      -9.116  16.656  65.834  1.00  0.00    -0.314 F  
HETATM   17  C   UNL     1      -7.509  14.151  67.876  1.00  0.00    -0.158 A  
HETATM   18  C   UNL     1     -10.064  14.871  67.059  1.00  0.00    -0.244 A  
HETATM   19  C   UNL     1      -8.948  15.599  66.640  1.00  0.00    -0.284 A  
HETATM   20  C   UNL     1      -7.669  15.246  67.034  1.00  0.00    -0.192 A  
ENDBRANCH  11  14
BRANCH  12  21
HETATM   21  C   UNL     1     -11.731  11.122  70.197  1.00  0.00    -0.353 C  
HETATM   22  N   UNL     1     -10.672  10.302  70.519  1.00  0.00    -0.421 N  
HETATM   23  H   UNL     1      -9.747  10.726  70.588  1.00  0.00     0.000 HD 
HETATM   24  O   UNL     1     -12.920  10.839  70.208  1.00  0.00    -0.257 OA 
BRANCH  22  25
HETATM   25  C   UNL     1     -10.781   8.925  70.757  1.00  0.00    -0.233 A  
HETATM   26  N   UNL     1     -10.880   8.065  69.725  1.00  0.00    -0.229 NA 
HETATM   27  C   UNL     1     -10.983   6.744  70.007  1.00  0.00    -0.295 A  
HETATM   28  C   UNL     1     -10.988   6.239  71.291  1.00  0.00    -0.275 A  
HETATM   29  C   UNL     1     -10.867   7.122  72.351  1.00  0.00    -0.280 A  
HETATM   30  F   UNL     1     -11.111   4.926  71.512  1.00  0.00    -0.133 F  
HETATM   31  C   UNL     1     -10.751   8.488  72.082  1.00  0.00    -0.426 A  
ENDBRANCH  22  25
ENDBRANCH  12  21
ENDBRANCH  10  11
ENDBRANCH   9  10
ENDBRANCH   5   9
TORSDOF 6
ENDMDL
MODEL      111
REMARK 921   NORMALIZED FREE ENERGY PREDICTED BY IDOCK:   -5.03 KCAL/MOL
REMARK 922        TOTAL FREE ENERGY PREDICTED BY IDOCK:   -8.34 KCAL/MOL
REMARK 923 INTER-LIGAND FREE ENERGY PREDICTED BY IDOCK:   -7.72 KCAL/MOL
REMARK 924 INTRA-LIGAND FREE ENERGY PREDICTED BY IDOCK:   -0.62 KCAL/MOL
REMARK 927      BINDING AFFINITY PREDICTED BY RF-SCORE:    0.00 PKD
ROOT
HETATM    1  C   UNL     1     -13.426  13.265  72.561  1.00  0.00    -0.620 C  
HETATM    2  C   UNL     1     -12.894  13.749  71.251  1.00  0.00    -0.357 A  
HETATM    3  N   UNL     1     -13.054  15.035  70.929  1.00  0.00    -0.400 NA 
HETATM    4  C   UNL     1     -12.542  15.395  69.734  1.00  0.00    -0.103 A  
HETATM    5  C   UNL     1     -11.891  14.554  68.840  1.00  0.00    -0.324 A  
HETATM    6  C   UNL     1     -10.979  12.124  68.652  1.00  0.00    -0.284 C  
HETATM    7  C   UNL     1     -11.754  13.243  69.280  1.00  0.00    -0.326 A  
HETATM    8  N   UNL     1     -12.265  12.847  70.480  1.00  0.00    -0.361 NA 
ENDROOT
BRANCH   5   9
HETATM    9  O   UNL     1     -11.488  15.200  67.712  1.00  0.00    -0.325 OA 
BRANCH   9  10
HETATM   10  C   UNL     1     -10.124  15.101  67.321  1.00  0.00    -0.235 C  
BRANCH  10  11
HETATM   11  C   UNL     1      -9.290  16.140  68.085  1.00  0.00    -0.201 C  
HETATM   12  C   UNL     1      -7.876  15.723  68.560  1.00  0.00    -0.139 C  
HETATM   13  C   UNL     1      -9.031  15.763  69.532  1.00  0.00    -0.183 C  
BRANCH  11  14
HETATM   14  C   UNL     1      -9.493  17.635  67.699  1.00  0.00    -0.258 A  
HETATM   15  C   UNL     1      -8.923  18.697  68.442  1.00  0.00    -0.356 A  
HETATM   16  F   UNL     1     -11.059  19.676  65.089  1.00  0.00    -0.501 F  
HETATM   17  C   UNL     1      -9.048  20.042  68.064  1.00  0.00    -0.348 A  
HETATM   18  C   UNL     1     -10.230  18.026  66.564  1.00  0.00    -0.383 A  
HETATM   19  C   UNL     1     -10.358  19.365  66.188  1.00  0.00    -0.504 A  
HETATM   20  C   UNL     1      -9.768  20.378  66.922  1.00  0.00    -0.567 A  
ENDBRANCH  11  14
BRANCH  12  21
HETATM   21  C   UNL     1      -7.275  14.430  68.092  1.00  0.00    -0.128 C  
HETATM   22  N   UNL     1      -7.556  13.371  68.926  1.00  0.00    -0.290 N  
HETATM   23  H   UNL     1      -8.228  13.523  69.678  1.00  0.00     0.000 HD 
HETATM   24  O   UNL     1      -6.619  14.410  67.061  1.00  0.00    -0.056 OA 
BRANCH  22  25
HETATM   25  C   UNL     1      -6.982  12.097  68.810  1.00  0.00    -0.101 A  
HETATM   26  N   UNL     1      -5.646  11.964  68.697  1.00  0.00    -0.049 NA 
HETATM   27  C   UNL     1      -5.139  10.714  68.587  1.00  0.00    -0.041 A  
HETATM   28  C   UNL     1      -5.919   9.575  68.589  1.00  0.00    -0.043 A  
HETATM   29  C   UNL     1      -7.290   9.711  68.725  1.00  0.00    -0.074 A  
HETATM   30  F   UNL     1      -5.366   8.364  68.460  1.00  0.00    -0.030 F  
HETATM   31  C   UNL     1      -7.833  10.991  68.848  1.00  0.00    -0.138 A  
ENDBRANCH  22  25
ENDBRANCH  12  21
ENDBRANCH  10  11
ENDBRANCH   9  10
ENDBRANCH   5   9
TORSDOF 6
ENDMDL
MODEL      112
REMARK 921   NORMALIZED FREE ENERGY PREDICTED BY IDOCK:   -5.02 KCAL/MOL
REMARK 922        TOTAL FREE ENERGY PREDICTED BY IDOCK:   -8.32 KCAL/MOL
REMARK 923 INTER-LIGAND FREE ENERGY PREDICTED BY IDOCK:   -7.18 KCAL/MOL
REMARK 924 INTRA-LIGAND FREE ENERGY PREDICTED BY IDOCK:   -1.14 KCAL/MOL
REMARK 927      BINDING AFFINITY PREDICTED BY RF-SCORE:    0.00 PKD
ROOT
HETATM    1  C   UNL     1      -6.112  17.237  67.012  1.00  0.00    -0.202 C  
HETATM    2  C   UNL     1      -7.085  16.103  67.035  1.00  0.00    -0.213 A  
HETATM    3  N   UNL     1      -6.794  15.022  67.762  1.00  0.00    -0.155 NA 
HETATM    4  C   UNL     1      -7.724  14.045  67.737  1.00  0.00    -0.172 A  
HETATM    5  C   UNL     1      -8.917  14.077  67.025  1.00  0.00    -0.235 A  
HETATM    6  C   UNL     1     -10.370  15.686  65.587  1.00  0.00    -0.408 C  
HETATM    7  C   UNL     1      -9.137  15.254  66.322  1.00  0.00    -0.302 A  
HETATM    8  N   UNL     1      -8.214  16.257  66.324  1.00  0.00    -0.318 NA 
ENDROOT
BRANCH   5   9
HETATM    9  O   UNL     1      -9.653  12.943  67.188  1.00  0.00    -0.213 OA 
BRANCH   9  10
HETATM   10  C   UNL     1      -9.654  12.309  68.462  1.00  0.00    -0.125 C  
BRANCH  10  11
HETATM   11  C   UNL     1     -11.093  12.209  68.989  1.00  0.00    -0.290 C  
HETATM   12  C   UNL     1     -11.614  10.811  69.403  1.00  0.00    -0.380 C  
HETATM   13  C   UNL     1     -12.017  11.419  68.081  1.00  0.00    -0.201 C  
BRANCH  11  14
HETATM   14  C   UNL     1     -11.644  13.432  69.781  1.00  0.00    -0.305 A  
HETATM   15  C   UNL     1     -12.659  13.309  70.761  1.00  0.00    -0.357 A  
HETATM   16  F   UNL     1     -11.077  17.034  70.141  1.00  0.00    -0.254 F  
HETATM   17  C   UNL     1     -13.115  14.395  71.522  1.00  0.00    -0.411 A  
HETATM   18  C   UNL     1     -11.145  14.735  69.595  1.00  0.00    -0.299 A  
HETATM   19  C   UNL     1     -11.600  15.819  70.350  1.00  0.00    -0.360 A  
HETATM   20  C   UNL     1     -12.576  15.660  71.319  1.00  0.00    -0.523 A  
ENDBRANCH  11  14
BRANCH  12  21
HETATM   21  C   UNL     1     -10.669   9.649  69.489  1.00  0.00    -0.232 C  
HETATM   22  N   UNL     1     -10.183   9.442  70.761  1.00  0.00    -0.281 N  
HETATM   23  H   UNL     1     -10.593   9.985  71.521  1.00  0.00     0.000 HD 
HETATM   24  O   UNL     1     -10.414   9.004  68.483  1.00  0.00    -0.211 OA 
BRANCH  22  25
HETATM   25  C   UNL     1      -9.164   8.536  71.083  1.00  0.00    -0.197 A  
HETATM   26  N   UNL     1      -9.456   7.386  71.721  1.00  0.00    -0.149 NA 
HETATM   27  C   UNL     1      -8.437   6.542  72.010  1.00  0.00    -0.114 A  
HETATM   28  C   UNL     1      -7.121   6.800  71.683  1.00  0.00    -0.076 A  
HETATM   29  C   UNL     1      -6.823   7.973  71.010  1.00  0.00    -0.042 A  
HETATM   30  F   UNL     1      -6.152   5.939  72.009  1.00  0.00    -0.034 F  
HETATM   31  C   UNL     1      -7.861   8.853  70.694  1.00  0.00    -0.124 A  
ENDBRANCH  22  25
ENDBRANCH  12  21
ENDBRANCH  10  11
ENDBRANCH   9  10
ENDBRANCH   5   9
TORSDOF 6
ENDMDL
MODEL      113
REMARK 921   NORMALIZED FREE ENERGY PREDICTED BY IDOCK:   -5.01 KCAL/MOL
REMARK 922        TOTAL FREE ENERGY PREDICTED BY IDOCK:   -8.31 KCAL/MOL
REMARK 923 INTER-LIGAND FREE ENERGY PREDICTED BY IDOCK:   -7.29 KCAL/MOL
REMARK 924 INTRA-LIGAND FREE ENERGY PREDICTED BY IDOCK:   -1.03 KCAL/MOL
REMARK 927      BINDING AFFINITY PREDICTED BY RF-SCORE:    0.00 PKD
ROOT
HETATM    1  C   UNL     1     -12.893   8.947  72.166  1.00  0.00    -0.471 C  
HETATM    2  C   UNL     1     -12.144   9.660  71.086  1.00  0.00    -0.362 A  
HETATM    3  N   UNL     1     -12.780  10.589  70.370  1.00  0.00    -0.307 NA 
HETATM    4  C   UNL     1     -12.036  11.191  69.419  1.00  0.00    -0.349 A  
HETATM    5  C   UNL     1     -10.703  10.917  69.135  1.00  0.00    -0.226 A  
HETATM    6  C   UNL     1      -8.690   9.532  70.030  1.00  0.00    -0.242 C  
HETATM    7  C   UNL     1     -10.126   9.953  69.953  1.00  0.00    -0.257 A  
HETATM    8  N   UNL     1     -10.855   9.324  70.918  1.00  0.00    -0.269 NA 
ENDROOT
BRANCH   5   9
HETATM    9  O   UNL     1     -10.218  11.680  68.118  1.00  0.00    -0.184 OA 
BRANCH   9  10
HETATM   10  C   UNL     1      -9.068  11.225  67.414  1.00  0.00    -0.151 C  
BRANCH  10  11
HETATM   11  C   UNL     1      -9.403  11.064  65.924  1.00  0.00    -0.229 C  
HETATM   12  C   UNL     1      -9.504   9.626  65.357  1.00  0.00    -0.343 C  
HETATM   13  C   UNL     1      -8.271  10.463  65.111  1.00  0.00    -0.158 C  
BRANCH  11  14
HETATM   14  C   UNL     1     -10.327  12.142  65.284  1.00  0.00    -0.310 A  
HETATM   15  C   UNL     1     -10.131  13.530  65.486  1.00  0.00    -0.283 A  
HETATM   16  F   UNL     1     -13.187  12.399  63.008  1.00  0.00    -0.217 F  
HETATM   17  C   UNL     1     -10.920  14.507  64.862  1.00  0.00    -0.421 A  
HETATM   18  C   UNL     1     -11.401  11.806  64.436  1.00  0.00    -0.373 A  
HETATM   19  C   UNL     1     -12.189  12.778  63.817  1.00  0.00    -0.489 A  
HETATM   20  C   UNL     1     -11.954  14.127  64.015  1.00  0.00    -0.359 A  
ENDBRANCH  11  14
BRANCH  12  21
HETATM   21  C   UNL     1      -9.493   8.448  66.287  1.00  0.00    -0.224 C  
HETATM   22  N   UNL     1      -8.308   7.748  66.257  1.00  0.00    -0.124 N  
HETATM   23  H   UNL     1      -7.530   8.151  65.733  1.00  0.00     0.000 HD 
HETATM   24  O   UNL     1     -10.480   8.209  66.967  1.00  0.00    -0.312 OA 
BRANCH  22  25
HETATM   25  C   UNL     1      -8.096   6.520  66.898  1.00  0.00    -0.113 A  
HETATM   26  N   UNL     1      -8.203   5.368  66.208  1.00  0.00    -0.109 NA 
HETATM   27  C   UNL     1      -7.990   4.207  66.872  1.00  0.00    -0.097 A  
HETATM   28  C   UNL     1      -7.668   4.147  68.213  1.00  0.00    -0.070 A  
HETATM   29  C   UNL     1      -7.540   5.331  68.918  1.00  0.00    -0.081 A  
HETATM   30  F   UNL     1      -7.486   2.970  68.822  1.00  0.00    -0.048 F  
HETATM   31  C   UNL     1      -7.747   6.540  68.250  1.00  0.00    -0.105 A  
ENDBRANCH  22  25
ENDBRANCH  12  21
ENDBRANCH  10  11
ENDBRANCH   9  10
ENDBRANCH   5   9
TORSDOF 6
ENDMDL
MODEL      114
REMARK 921   NORMALIZED FREE ENERGY PREDICTED BY IDOCK:   -4.98 KCAL/MOL
REMARK 922        TOTAL FREE ENERGY PREDICTED BY IDOCK:   -8.28 KCAL/MOL
REMARK 923 INTER-LIGAND FREE ENERGY PREDICTED BY IDOCK:   -6.66 KCAL/MOL
REMARK 924 INTRA-LIGAND FREE ENERGY PREDICTED BY IDOCK:   -1.62 KCAL/MOL
REMARK 927      BINDING AFFINITY PREDICTED BY RF-SCORE:    0.00 PKD
ROOT
HETATM    1  C   UNL     1     -13.885   9.203  72.443  1.00  0.00    -0.524 C  
HETATM    2  C   UNL     1     -12.793   9.592  71.500  1.00  0.00    -0.377 A  
HETATM    3  N   UNL     1     -11.873   8.680  71.173  1.00  0.00    -0.287 NA 
HETATM    4  C   UNL     1     -10.925   9.105  70.313  1.00  0.00    -0.245 A  
HETATM    5  C   UNL     1     -10.832  10.380  69.768  1.00  0.00    -0.292 A  
HETATM    6  C   UNL     1     -12.145  12.623  69.641  1.00  0.00    -0.277 C  
HETATM    7  C   UNL     1     -11.850  11.245  70.152  1.00  0.00    -0.364 A  
HETATM    8  N   UNL     1     -12.819  10.847  71.023  1.00  0.00    -0.380 NA 
ENDROOT
BRANCH   5   9
HETATM    9  O   UNL     1      -9.764  10.517  68.936  1.00  0.00    -0.181 OA 
BRANCH   9  10
HETATM   10  C   UNL     1      -9.381   9.407  68.132  1.00  0.00    -0.133 C  
BRANCH  10  11
HETATM   11  C   UNL     1      -7.866   9.445  67.884  1.00  0.00    -0.091 C  
HETATM   12  C   UNL     1      -7.361  10.164  66.609  1.00  0.00    -0.106 C  
HETATM   13  C   UNL     1      -7.432   8.656  66.662  1.00  0.00    -0.089 C  
BRANCH  11  14
HETATM   14  C   UNL     1      -6.943   9.499  69.138  1.00  0.00    -0.057 A  
HETATM   15  C   UNL     1      -6.239  10.668  69.515  1.00  0.00    -0.059 A  
HETATM   16  F   UNL     1      -5.887   7.389  71.942  1.00  0.00    -0.036 F  
HETATM   17  C   UNL     1      -5.457  10.742  70.678  1.00  0.00    -0.105 A  
HETATM   18  C   UNL     1      -6.776   8.395  69.997  1.00  0.00    -0.042 A  
HETATM   19  C   UNL     1      -5.997   8.467  71.154  1.00  0.00    -0.035 A  
HETATM   20  C   UNL     1      -5.341   9.633  71.508  1.00  0.00    -0.072 A  
ENDBRANCH  11  14
BRANCH  12  21
HETATM   21  C   UNL     1      -8.309  10.977  65.777  1.00  0.00    -0.092 C  
HETATM   22  N   UNL     1      -8.806  12.074  66.444  1.00  0.00    -0.329 N  
HETATM   23  H   UNL     1      -8.403  12.302  67.352  1.00  0.00     0.000 HD 
HETATM   24  O   UNL     1      -8.555  10.629  64.632  1.00  0.00    -0.175 OA 
BRANCH  22  25
HETATM   25  C   UNL     1      -9.830  12.899  65.958  1.00  0.00    -0.255 A  
HETATM   26  N   UNL     1      -9.542  14.126  65.480  1.00  0.00    -0.114 NA 
HETATM   27  C   UNL     1     -10.565  14.886  65.022  1.00  0.00    -0.422 A  
HETATM   28  C   UNL     1     -11.880  14.467  65.019  1.00  0.00    -0.399 A  
HETATM   29  C   UNL     1     -12.174  13.200  65.493  1.00  0.00    -0.513 A  
HETATM   30  F   UNL     1     -12.854  15.267  64.571  1.00  0.00    -0.263 F  
HETATM   31  C   UNL     1     -11.132  12.396  65.962  1.00  0.00    -0.344 A  
ENDBRANCH  22  25
ENDBRANCH  12  21
ENDBRANCH  10  11
ENDBRANCH   9  10
ENDBRANCH   5   9
TORSDOF 6
ENDMDL
MODEL      115
REMARK 921   NORMALIZED FREE ENERGY PREDICTED BY IDOCK:   -4.97 KCAL/MOL
REMARK 922        TOTAL FREE ENERGY PREDICTED BY IDOCK:   -8.27 KCAL/MOL
REMARK 923 INTER-LIGAND FREE ENERGY PREDICTED BY IDOCK:   -7.38 KCAL/MOL
REMARK 924 INTRA-LIGAND FREE ENERGY PREDICTED BY IDOCK:   -0.89 KCAL/MOL
REMARK 927      BINDING AFFINITY PREDICTED BY RF-SCORE:    0.00 PKD
ROOT
HETATM    1  C   UNL     1     -10.452  12.531  64.100  1.00  0.00    -0.429 C  
HETATM    2  C   UNL     1     -10.433  11.489  65.172  1.00  0.00    -0.286 A  
HETATM    3  N   UNL     1     -11.124  11.709  66.293  1.00  0.00    -0.304 NA 
HETATM    4  C   UNL     1     -11.062  10.721  67.210  1.00  0.00    -0.270 A  
HETATM    5  C   UNL     1     -10.348   9.536  67.080  1.00  0.00    -0.253 A  
HETATM    6  C   UNL     1      -8.960   8.192  65.336  1.00  0.00    -0.024 C  
HETATM    7  C   UNL     1      -9.684   9.392  65.868  1.00  0.00    -0.285 A  
HETATM    8  N   UNL     1      -9.724  10.375  64.925  1.00  0.00    -0.284 NA 
ENDROOT
BRANCH   5   9
HETATM    9  O   UNL     1     -10.469   8.731  68.172  1.00  0.00    -0.216 OA 
BRANCH   9  10
HETATM   10  C   UNL     1      -9.770   9.085  69.359  1.00  0.00    -0.169 C  
BRANCH  10  11
HETATM   11  C   UNL     1     -10.263   8.220  70.529  1.00  0.00    -0.213 C  
HETATM   12  C   UNL     1     -11.453   8.749  71.367  1.00  0.00    -0.366 C  
HETATM   13  C   UNL     1     -10.040   8.856  71.889  1.00  0.00    -0.393 C  
BRANCH  11  14
HETATM   14  C   UNL     1     -10.144   6.676  70.367  1.00  0.00    -0.205 A  
HETATM   15  C   UNL     1      -9.956   6.054  69.108  1.00  0.00    -0.205 A  
HETATM   16  F   UNL     1     -10.044   3.636  72.411  1.00  0.00    -0.201 F  
HETATM   17  C   UNL     1      -9.783   4.670  68.963  1.00  0.00    -0.242 A  
HETATM   18  C   UNL     1     -10.182   5.799  71.468  1.00  0.00    -0.255 A  
HETATM   19  C   UNL     1     -10.013   4.420  71.325  1.00  0.00    -0.175 A  
HETATM   20  C   UNL     1      -9.806   3.846  70.082  1.00  0.00    -0.163 A  
ENDBRANCH  11  14
BRANCH  12  21
HETATM   21  C   UNL     1     -12.224   9.951  70.905  1.00  0.00    -0.328 C  
HETATM   22  N   UNL     1     -11.791  11.124  71.483  1.00  0.00     0.151 N  
HETATM   23  H   UNL     1     -10.939  11.092  72.042  1.00  0.00     0.000 HD 
HETATM   24  O   UNL     1     -13.127   9.811  70.094  1.00  0.00     0.220 OA 
BRANCH  22  25
HETATM   25  C   UNL     1     -12.443  12.358  71.354  1.00  0.00    -0.100 A  
HETATM   26  N   UNL     1     -12.093  13.209  70.370  1.00  0.00    -0.350 NA 
HETATM   27  C   UNL     1     -12.751  14.389  70.286  1.00  0.00    -0.263 A  
HETATM   28  C   UNL     1     -13.758  14.760  71.154  1.00  0.00    -0.351 A  
HETATM   29  C   UNL     1     -14.130  13.878  72.154  1.00  0.00    -0.630 A  
HETATM   30  F   UNL     1     -14.363  15.948  71.036  1.00  0.00    -0.248 F  
HETATM   31  C   UNL     1     -13.470  12.651  72.252  1.00  0.00    -0.541 A  
ENDBRANCH  22  25
ENDBRANCH  12  21
ENDBRANCH  10  11
ENDBRANCH   9  10
ENDBRANCH   5   9
TORSDOF 6
ENDMDL
MODEL      116
REMARK 921   NORMALIZED FREE ENERGY PREDICTED BY IDOCK:   -4.96 KCAL/MOL
REMARK 922        TOTAL FREE ENERGY PREDICTED BY IDOCK:   -8.25 KCAL/MOL
REMARK 923 INTER-LIGAND FREE ENERGY PREDICTED BY IDOCK:   -7.13 KCAL/MOL
REMARK 924 INTRA-LIGAND FREE ENERGY PREDICTED BY IDOCK:   -1.12 KCAL/MOL
REMARK 927      BINDING AFFINITY PREDICTED BY RF-SCORE:    0.00 PKD
ROOT
HETATM    1  C   UNL     1     -13.499  14.872  71.514  1.00  0.00    -0.491 C  
HETATM    2  C   UNL     1     -13.096  13.452  71.274  1.00  0.00    -0.238 A  
HETATM    3  N   UNL     1     -13.343  12.546  72.223  1.00  0.00    -0.483 NA 
HETATM    4  C   UNL     1     -12.956  11.288  71.930  1.00  0.00    -0.365 A  
HETATM    5  C   UNL     1     -12.333  10.881  70.757  1.00  0.00    -0.390 A  
HETATM    6  C   UNL     1     -11.654  11.782  68.411  1.00  0.00    -0.380 C  
HETATM    7  C   UNL     1     -12.144  11.893  69.824  1.00  0.00    -0.252 A  
HETATM    8  N   UNL     1     -12.520  13.175  70.093  1.00  0.00    -0.184 NA 
ENDROOT
BRANCH   5   9
HETATM    9  O   UNL     1     -12.055   9.548  70.747  1.00  0.00    -0.285 OA 
BRANCH   9  10
HETATM   10  C   UNL     1     -10.920   9.085  71.469  1.00  0.00    -0.348 C  
BRANCH  10  11
HETATM   11  C   UNL     1     -10.310   7.871  70.752  1.00  0.00    -0.211 C  
HETATM   12  C   UNL     1      -9.063   8.107  69.865  1.00  0.00    -0.151 C  
HETATM   13  C   UNL     1     -10.428   7.939  69.240  1.00  0.00    -0.221 C  
BRANCH  11  14
HETATM   14  C   UNL     1     -10.412   6.495  71.475  1.00  0.00    -0.245 A  
HETATM   15  C   UNL     1     -11.084   6.333  72.711  1.00  0.00    -0.284 A  
HETATM   16  F   UNL     1      -9.494   2.983  70.976  1.00  0.00    -0.181 F  
HETATM   17  C   UNL     1     -11.235   5.087  73.336  1.00  0.00    -0.391 A  
HETATM   18  C   UNL     1      -9.871   5.316  70.928  1.00  0.00    -0.257 A  
HETATM   19  C   UNL     1     -10.018   4.074  71.551  1.00  0.00    -0.150 A  
HETATM   20  C   UNL     1     -10.702   3.946  72.747  1.00  0.00    -0.165 A  
ENDBRANCH  11  14
BRANCH  12  21
HETATM   21  C   UNL     1      -8.359   9.432  69.893  1.00  0.00    -0.167 C  
HETATM   22  N   UNL     1      -8.542  10.165  68.741  1.00  0.00    -0.126 N  
HETATM   23  H   UNL     1      -9.217   9.819  68.059  1.00  0.00     0.000 HD 
HETATM   24  O   UNL     1      -7.713   9.750  70.881  1.00  0.00    -0.312 OA 
BRANCH  22  25
HETATM   25  C   UNL     1      -7.863  11.354  68.443  1.00  0.00    -0.135 A  
HETATM   26  N   UNL     1      -8.503  12.537  68.518  1.00  0.00    -0.112 NA 
HETATM   27  C   UNL     1      -7.805  13.658  68.219  1.00  0.00    -0.141 A  
HETATM   28  C   UNL     1      -6.476  13.649  67.846  1.00  0.00    -0.156 A  
HETATM   29  C   UNL     1      -5.813  12.435  67.786  1.00  0.00    -0.110 A  
HETATM   30  F   UNL     1      -5.841  14.786  67.545  1.00  0.00    -0.139 F  
HETATM   31  C   UNL     1      -6.513  11.267  68.099  1.00  0.00    -0.056 A  
ENDBRANCH  22  25
ENDBRANCH  12  21
ENDBRANCH  10  11
ENDBRANCH   9  10
ENDBRANCH   5   9
TORSDOF 6
ENDMDL
MODEL      117
REMARK 921   NORMALIZED FREE ENERGY PREDICTED BY IDOCK:   -4.94 KCAL/MOL
REMARK 922        TOTAL FREE ENERGY PREDICTED BY IDOCK:   -8.23 KCAL/MOL
REMARK 923 INTER-LIGAND FREE ENERGY PREDICTED BY IDOCK:   -7.19 KCAL/MOL
REMARK 924 INTRA-LIGAND FREE ENERGY PREDICTED BY IDOCK:   -1.04 KCAL/MOL
REMARK 927      BINDING AFFINITY PREDICTED BY RF-SCORE:    0.00 PKD
ROOT
HETATM    1  C   UNL     1     -11.635   5.784  72.354  1.00  0.00    -0.320 C  
HETATM    2  C   UNL     1     -11.341   7.105  71.719  1.00  0.00    -0.252 A  
HETATM    3  N   UNL     1     -10.303   7.198  70.884  1.00  0.00    -0.201 NA 
HETATM    4  C   UNL     1     -10.107   8.420  70.347  1.00  0.00    -0.187 A  
HETATM    5  C   UNL     1     -10.873   9.552  70.598  1.00  0.00    -0.306 A  
HETATM    6  C   UNL     1     -13.049  10.288  71.821  1.00  0.00    -0.570 C  
HETATM    7  C   UNL     1     -11.943   9.343  71.460  1.00  0.00    -0.382 A  
HETATM    8  N   UNL     1     -12.164   8.122  72.022  1.00  0.00    -0.322 NA 
ENDROOT
BRANCH   5   9
HETATM    9  O   UNL     1     -10.431  10.644  69.917  1.00  0.00    -0.207 OA 
BRANCH   9  10
HETATM   10  C   UNL     1     -10.822  10.803  68.558  1.00  0.00    -0.228 C  
BRANCH  10  11
HETATM   11  C   UNL     1     -10.022  11.947  67.919  1.00  0.00    -0.195 C  
HETATM   12  C   UNL     1      -9.244  11.644  66.615  1.00  0.00    -0.196 C  
HETATM   13  C   UNL     1      -8.521  11.721  67.938  1.00  0.00    -0.154 C  
BRANCH  11  14
HETATM   14  C   UNL     1     -10.589  13.388  68.085  1.00  0.00    -0.255 A  
HETATM   15  C   UNL     1     -11.384  13.771  69.193  1.00  0.00    -0.329 A  
HETATM   16  F   UNL     1     -10.482  16.658  66.434  1.00  0.00    -0.293 F  
HETATM   17  C   UNL     1     -11.845  15.082  69.381  1.00  0.00    -0.358 A  
HETATM   18  C   UNL     1     -10.321  14.414  67.158  1.00  0.00    -0.262 A  
HETATM   19  C   UNL     1     -10.782  15.720  67.342  1.00  0.00    -0.317 A  
HETATM   20  C   UNL     1     -11.535  16.067  68.450  1.00  0.00    -0.331 A  
ENDBRANCH  11  14
BRANCH  12  21
HETATM   21  C   UNL     1      -9.455  10.343  65.897  1.00  0.00    -0.189 C  
HETATM   22  N   UNL     1      -8.573   9.361  66.291  1.00  0.00    -0.129 N  
HETATM   23  H   UNL     1      -7.972   9.555  67.092  1.00  0.00     0.000 HD 
HETATM   24  O   UNL     1     -10.345  10.252  65.065  1.00  0.00    -0.288 OA 
BRANCH  22  25
HETATM   25  C   UNL     1      -8.445   8.114  65.665  1.00  0.00    -0.156 A  
HETATM   26  N   UNL     1      -8.914   7.003  66.266  1.00  0.00    -0.154 NA 
HETATM   27  C   UNL     1      -8.766   5.821  65.621  1.00  0.00    -0.149 A  
HETATM   28  C   UNL     1      -8.165   5.700  64.385  1.00  0.00    -0.120 A  
HETATM   29  C   UNL     1      -7.700   6.844  63.759  1.00  0.00    -0.118 A  
HETATM   30  F   UNL     1      -8.029   4.504  63.802  1.00  0.00    -0.080 F  
HETATM   31  C   UNL     1      -7.850   8.074  64.402  1.00  0.00    -0.139 A  
ENDBRANCH  22  25
ENDBRANCH  12  21
ENDBRANCH  10  11
ENDBRANCH   9  10
ENDBRANCH   5   9
TORSDOF 6
ENDMDL
MODEL      118
REMARK 921   NORMALIZED FREE ENERGY PREDICTED BY IDOCK:   -4.92 KCAL/MOL
REMARK 922        TOTAL FREE ENERGY PREDICTED BY IDOCK:   -8.19 KCAL/MOL
REMARK 923 INTER-LIGAND FREE ENERGY PREDICTED BY IDOCK:   -7.11 KCAL/MOL
REMARK 924 INTRA-LIGAND FREE ENERGY PREDICTED BY IDOCK:   -1.08 KCAL/MOL
REMARK 927      BINDING AFFINITY PREDICTED BY RF-SCORE:    0.00 PKD
ROOT
HETATM    1  C   UNL     1     -11.076   5.442  72.039  1.00  0.00    -0.204 C  
HETATM    2  C   UNL     1     -10.988   6.589  71.085  1.00  0.00    -0.266 A  
HETATM    3  N   UNL     1     -10.474   6.376  69.871  1.00  0.00    -0.197 NA 
HETATM    4  C   UNL     1     -10.433   7.458  69.066  1.00  0.00    -0.210 A  
HETATM    5  C   UNL     1     -10.865   8.736  69.400  1.00  0.00    -0.110 A  
HETATM    6  C   UNL     1     -12.100  10.021  71.296  1.00  0.00    -0.487 C  
HETATM    7  C   UNL     1     -11.406   8.847  70.675  1.00  0.00    -0.259 A  
HETATM    8  N   UNL     1     -11.455   7.773  71.512  1.00  0.00    -0.258 NA 
ENDROOT
BRANCH   5   9
HETATM    9  O   UNL     1     -10.693   9.627  68.385  1.00  0.00    -0.226 OA 
BRANCH   9  10
HETATM   10  C   UNL     1      -9.486  10.378  68.336  1.00  0.00    -0.149 C  
BRANCH  10  11
HETATM   11  C   UNL     1      -9.298  10.965  66.929  1.00  0.00    -0.186 C  
HETATM   12  C   UNL     1      -8.557  10.100  65.880  1.00  0.00    -0.156 C  
HETATM   13  C   UNL     1      -7.847  11.237  66.575  1.00  0.00    -0.133 C  
BRANCH  11  14
HETATM   14  C   UNL     1     -10.414  11.914  66.401  1.00  0.00    -0.258 A  
HETATM   15  C   UNL     1     -10.886  13.022  67.147  1.00  0.00    -0.278 A  
HETATM   16  F   UNL     1     -12.475  12.444  63.418  1.00  0.00    -0.552 F  
HETATM   17  C   UNL     1     -11.846  13.917  66.652  1.00  0.00    -0.447 A  
HETATM   18  C   UNL     1     -11.003  11.751  65.132  1.00  0.00    -0.351 A  
HETATM   19  C   UNL     1     -11.960  12.640  64.639  1.00  0.00    -0.402 A  
HETATM   20  C   UNL     1     -12.382  13.728  65.383  1.00  0.00    -0.504 A  
ENDBRANCH  11  14
BRANCH  12  21
HETATM   21  C   UNL     1      -8.239   8.664  66.175  1.00  0.00    -0.121 C  
HETATM   22  N   UNL     1      -9.009   7.781  65.451  1.00  0.00    -0.380 N  
HETATM   23  H   UNL     1      -9.602   8.162  64.714  1.00  0.00     0.000 HD 
HETATM   24  O   UNL     1      -7.368   8.395  66.990  1.00  0.00    -0.082 OA 
BRANCH  22  25
HETATM   25  C   UNL     1      -9.031   6.395  65.657  1.00  0.00    -0.004 A  
HETATM   26  N   UNL     1      -9.962   5.844  66.459  1.00  0.00    -0.164 NA 
HETATM   27  C   UNL     1      -9.942   4.501  66.628  1.00  0.00    -0.230 A  
HETATM   28  C   UNL     1      -9.021   3.672  66.018  1.00  0.00    -0.144 A  
HETATM   29  C   UNL     1      -8.075   4.236  65.179  1.00  0.00    -0.101 A  
HETATM   30  F   UNL     1      -9.037   2.353  66.235  1.00  0.00    -0.128 F  
HETATM   31  C   UNL     1      -8.084   5.619  64.985  1.00  0.00    -0.122 A  
ENDBRANCH  22  25
ENDBRANCH  12  21
ENDBRANCH  10  11
ENDBRANCH   9  10
ENDBRANCH   5   9
TORSDOF 6
ENDMDL
MODEL      119
REMARK 921   NORMALIZED FREE ENERGY PREDICTED BY IDOCK:   -4.88 KCAL/MOL
REMARK 922        TOTAL FREE ENERGY PREDICTED BY IDOCK:   -8.14 KCAL/MOL
REMARK 923 INTER-LIGAND FREE ENERGY PREDICTED BY IDOCK:   -8.29 KCAL/MOL
REMARK 924 INTRA-LIGAND FREE ENERGY PREDICTED BY IDOCK:    0.15 KCAL/MOL
REMARK 927      BINDING AFFINITY PREDICTED BY RF-SCORE:    0.00 PKD
ROOT
HETATM    1  C   UNL     1      -5.651  10.793  66.899  1.00  0.00    -0.057 C  
HETATM    2  C   UNL     1      -6.736  11.809  67.061  1.00  0.00    -0.139 A  
HETATM    3  N   UNL     1      -6.397  13.074  67.319  1.00  0.00    -0.264 NA 
HETATM    4  C   UNL     1      -7.431  13.931  67.446  1.00  0.00    -0.128 A  
HETATM    5  C   UNL     1      -8.777  13.603  67.341  1.00  0.00    -0.213 A  
HETATM    6  C   UNL     1     -10.328  11.610  66.713  1.00  0.00    -0.257 C  
HETATM    7  C   UNL     1      -9.023  12.268  67.047  1.00  0.00    -0.204 A  
HETATM    8  N   UNL     1      -8.000  11.377  66.918  1.00  0.00    -0.153 NA 
ENDROOT
BRANCH   5   9
HETATM    9  O   UNL     1      -9.593  14.678  67.522  1.00  0.00    -0.203 OA 
BRANCH   9  10
HETATM   10  C   UNL     1      -9.664  15.659  66.495  1.00  0.00    -0.266 C  
BRANCH  10  11
HETATM   11  C   UNL     1      -9.313  17.039  67.071  1.00  0.00    -0.249 C  
HETATM   12  C   UNL     1      -9.692  17.324  68.545  1.00  0.00    -0.296 C  
HETATM   13  C   UNL     1     -10.530  17.878  67.417  1.00  0.00    -0.390 C  
BRANCH  11  14
HETATM   14  C   UNL     1      -8.027  17.728  66.526  1.00  0.00    -0.299 A  
HETATM   15  C   UNL     1      -6.777  17.066  66.463  1.00  0.00    -0.267 A  
HETATM   16  F   UNL     1      -6.959  20.891  65.013  1.00  0.00    -0.226 F  
HETATM   17  C   UNL     1      -5.630  17.659  65.915  1.00  0.00    -0.184 A  
HETATM   18  C   UNL     1      -8.033  19.046  66.029  1.00  0.00    -0.213 A  
HETATM   19  C   UNL     1      -6.891  19.639  65.485  1.00  0.00    -0.294 A  
HETATM   20  C   UNL     1      -5.689  18.955  65.416  1.00  0.00    -0.235 A  
ENDBRANCH  11  14
BRANCH  12  21
HETATM   21  C   UNL     1     -10.180  16.211  69.426  1.00  0.00    -0.266 C  
HETATM   22  N   UNL     1     -11.546  16.048  69.383  1.00  0.00    -0.340 N  
HETATM   23  H   UNL     1     -12.067  16.582  68.687  1.00  0.00     0.000 HD 
HETATM   24  O   UNL     1      -9.375  15.564  70.079  1.00  0.00    -0.157 OA 
BRANCH  22  25
HETATM   25  C   UNL     1     -12.270  15.198  70.230  1.00  0.00    -0.350 A  
HETATM   26  N   UNL     1     -13.264  15.690  70.995  1.00  0.00    -0.553 NA 
HETATM   27  C   UNL     1     -13.933  14.829  71.798  1.00  0.00    -0.477 A  
HETATM   28  C   UNL     1     -13.652  13.479  71.867  1.00  0.00    -0.424 A  
HETATM   29  C   UNL     1     -12.643  12.970  71.066  1.00  0.00    -0.386 A  
HETATM   30  F   UNL     1     -14.334  12.677  72.691  1.00  0.00    -0.395 F  
HETATM   31  C   UNL     1     -11.946  13.840  70.225  1.00  0.00    -0.397 A  
ENDBRANCH  22  25
ENDBRANCH  12  21
ENDBRANCH  10  11
ENDBRANCH   9  10
ENDBRANCH   5   9
TORSDOF 6
ENDMDL
MODEL      120
REMARK 921   NORMALIZED FREE ENERGY PREDICTED BY IDOCK:   -4.85 KCAL/MOL
REMARK 922        TOTAL FREE ENERGY PREDICTED BY IDOCK:   -8.10 KCAL/MOL
REMARK 923 INTER-LIGAND FREE ENERGY PREDICTED BY IDOCK:   -6.88 KCAL/MOL
REMARK 924 INTRA-LIGAND FREE ENERGY PREDICTED BY IDOCK:   -1.22 KCAL/MOL
REMARK 927      BINDING AFFINITY PREDICTED BY RF-SCORE:    0.00 PKD
ROOT
HETATM    1  C   UNL     1     -12.992  11.877  63.131  1.00  0.00    -0.023 C  
HETATM    2  C   UNL     1     -11.963  12.261  64.146  1.00  0.00    -0.432 A  
HETATM    3  N   UNL     1     -10.715  11.813  63.995  1.00  0.00    -0.341 NA 
HETATM    4  C   UNL     1      -9.844  12.207  64.947  1.00  0.00    -0.150 A  
HETATM    5  C   UNL     1     -10.143  13.011  66.040  1.00  0.00    -0.284 A  
HETATM    6  C   UNL     1     -12.083  14.435  67.031  1.00  0.00    -0.374 C  
HETATM    7  C   UNL     1     -11.462  13.444  66.092  1.00  0.00    -0.327 A  
HETATM    8  N   UNL     1     -12.366  13.059  65.148  1.00  0.00    -0.460 NA 
ENDROOT
BRANCH   5   9
HETATM    9  O   UNL     1      -9.061  13.236  66.835  1.00  0.00    -0.231 OA 
BRANCH   9  10
HETATM   10  C   UNL     1      -8.918  12.468  68.024  1.00  0.00    -0.192 C  
BRANCH  10  11
HETATM   11  C   UNL     1      -7.483  12.598  68.556  1.00  0.00    -0.121 C  
HETATM   12  C   UNL     1      -6.957  14.019  68.874  1.00  0.00    -0.110 C  
HETATM   13  C   UNL     1      -6.547  13.318  67.601  1.00  0.00    -0.172 C  
BRANCH  11  14
HETATM   14  C   UNL     1      -6.945  11.432  69.436  1.00  0.00    -0.092 A  
HETATM   15  C   UNL     1      -5.708  11.504  70.122  1.00  0.00    -0.137 A  
HETATM   16  F   UNL     1      -7.952   8.118  70.633  1.00  0.00    -0.085 F  
HETATM   17  C   UNL     1      -5.247  10.483  70.967  1.00  0.00    -0.090 A  
HETATM   18  C   UNL     1      -7.670  10.241  69.633  1.00  0.00    -0.166 A  
HETATM   19  C   UNL     1      -7.211   9.222  70.472  1.00  0.00    -0.110 A  
HETATM   20  C   UNL     1      -6.009   9.335  71.148  1.00  0.00    -0.068 A  
ENDBRANCH  11  14
BRANCH  12  21
HETATM   21  C   UNL     1      -7.897  15.189  68.871  1.00  0.00    -0.164 C  
HETATM   22  N   UNL     1      -7.787  15.966  67.739  1.00  0.00    -0.133 N  
HETATM   23  H   UNL     1      -7.201  15.620  66.980  1.00  0.00     0.000 HD 
HETATM   24  O   UNL     1      -8.653  15.357  69.816  1.00  0.00    -0.218 OA 
BRANCH  22  25
HETATM   25  C   UNL     1      -8.425  17.201  67.561  1.00  0.00    -0.198 A  
HETATM   26  N   UNL     1      -9.590  17.271  66.887  1.00  0.00    -0.258 NA 
HETATM   27  C   UNL     1     -10.168  18.486  66.741  1.00  0.00    -0.393 A  
HETATM   28  C   UNL     1      -9.627  19.651  67.248  1.00  0.00    -0.346 A  
HETATM   29  C   UNL     1      -8.439  19.577  67.956  1.00  0.00    -0.358 A  
HETATM   30  F   UNL     1     -10.232  20.828  67.057  1.00  0.00    -0.546 F  
HETATM   31  C   UNL     1      -7.831  18.331  68.126  1.00  0.00    -0.299 A  
ENDBRANCH  22  25
ENDBRANCH  12  21
ENDBRANCH  10  11
ENDBRANCH   9  10
ENDBRANCH   5   9
TORSDOF 6
ENDMDL
MODEL      121
REMARK 921   NORMALIZED FREE ENERGY PREDICTED BY IDOCK:   -4.84 KCAL/MOL
REMARK 922        TOTAL FREE ENERGY PREDICTED BY IDOCK:   -8.08 KCAL/MOL
REMARK 923 INTER-LIGAND FREE ENERGY PREDICTED BY IDOCK:   -6.84 KCAL/MOL
REMARK 924 INTRA-LIGAND FREE ENERGY PREDICTED BY IDOCK:   -1.25 KCAL/MOL
REMARK 927      BINDING AFFINITY PREDICTED BY RF-SCORE:    0.00 PKD
ROOT
HETATM    1  C   UNL     1     -12.533  13.806  64.744  1.00  0.00    -0.386 C  
HETATM    2  C   UNL     1     -11.563  13.295  65.760  1.00  0.00    -0.337 A  
HETATM    3  N   UNL     1     -10.261  13.532  65.581  1.00  0.00    -0.293 NA 
HETATM    4  C   UNL     1      -9.451  13.044  66.543  1.00  0.00    -0.245 A  
HETATM    5  C   UNL     1      -9.857  12.330  67.664  1.00  0.00    -0.196 A  
HETATM    6  C   UNL     1     -12.015  11.585  68.912  1.00  0.00    -0.364 C  
HETATM    7  C   UNL     1     -11.232  12.159  67.771  1.00  0.00    -0.275 A  
HETATM    8  N   UNL     1     -12.075  12.636  66.812  1.00  0.00    -0.518 NA 
ENDROOT
BRANCH   5   9
HETATM    9  O   UNL     1      -8.813  11.962  68.456  1.00  0.00    -0.169 OA 
BRANCH   9  10
HETATM   10  C   UNL     1      -8.238  10.674  68.270  1.00  0.00    -0.120 C  
BRANCH  10  11
HETATM   11  C   UNL     1      -7.559  10.217  69.569  1.00  0.00    -0.139 C  
HETATM   12  C   UNL     1      -6.409  11.089  70.128  1.00  0.00    -0.147 C  
HETATM   13  C   UNL     1      -6.108   9.811  69.383  1.00  0.00    -0.040 C  
BRANCH  11  14
HETATM   14  C   UNL     1      -8.446   9.467  70.607  1.00  0.00    -0.239 A  
HETATM   15  C   UNL     1      -9.858   9.426  70.513  1.00  0.00    -0.331 A  
HETATM   16  F   UNL     1      -8.113   7.356  73.584  1.00  0.00    -0.121 F  
HETATM   17  C   UNL     1     -10.659   8.700  71.407  1.00  0.00    -0.334 A  
HETATM   18  C   UNL     1      -7.897   8.752  71.689  1.00  0.00    -0.124 A  
HETATM   19  C   UNL     1      -8.692   8.030  72.582  1.00  0.00    -0.191 A  
HETATM   20  C   UNL     1     -10.069   7.990  72.447  1.00  0.00    -0.332 A  
ENDBRANCH  11  14
BRANCH  12  21
HETATM   21  C   UNL     1      -6.131  12.440  69.535  1.00  0.00    -0.117 C  
HETATM   22  N   UNL     1      -6.693  13.471  70.255  1.00  0.00    -0.342 N  
HETATM   23  H   UNL     1      -7.112  13.247  71.158  1.00  0.00     0.000 HD 
HETATM   24  O   UNL     1      -5.462  12.524  68.516  1.00  0.00    -0.054 OA 
BRANCH  22  25
HETATM   25  C   UNL     1      -6.726  14.806  69.832  1.00  0.00    -0.172 A  
HETATM   26  N   UNL     1      -5.709  15.638  70.131  1.00  0.00    -0.148 NA 
HETATM   27  C   UNL     1      -5.787  16.919  69.700  1.00  0.00    -0.210 A  
HETATM   28  C   UNL     1      -6.851  17.412  68.972  1.00  0.00    -0.244 A  
HETATM   29  C   UNL     1      -7.888  16.553  68.649  1.00  0.00    -0.226 A  
HETATM   30  F   UNL     1      -6.885  18.692  68.588  1.00  0.00    -0.240 F  
HETATM   31  C   UNL     1      -7.822  15.225  69.076  1.00  0.00    -0.184 A  
ENDBRANCH  22  25
ENDBRANCH  12  21
ENDBRANCH  10  11
ENDBRANCH   9  10
ENDBRANCH   5   9
TORSDOF 6
ENDMDL
MODEL      122
REMARK 921   NORMALIZED FREE ENERGY PREDICTED BY IDOCK:   -4.83 KCAL/MOL
REMARK 922        TOTAL FREE ENERGY PREDICTED BY IDOCK:   -8.07 KCAL/MOL
REMARK 923 INTER-LIGAND FREE ENERGY PREDICTED BY IDOCK:   -7.08 KCAL/MOL
REMARK 924 INTRA-LIGAND FREE ENERGY PREDICTED BY IDOCK:   -0.99 KCAL/MOL
REMARK 927      BINDING AFFINITY PREDICTED BY RF-SCORE:    0.00 PKD
ROOT
HETATM    1  C   UNL     1      -9.904  19.624  68.220  1.00  0.00    -0.521 C  
HETATM    2  C   UNL     1      -9.717  18.147  68.361  1.00  0.00    -0.355 A  
HETATM    3  N   UNL     1      -8.673  17.573  67.758  1.00  0.00    -0.227 NA 
HETATM    4  C   UNL     1      -8.570  16.239  67.937  1.00  0.00    -0.173 A  
HETATM    5  C   UNL     1      -9.445  15.447  68.670  1.00  0.00    -0.205 A  
HETATM    6  C   UNL     1     -11.500  15.637  70.254  1.00  0.00    -0.361 C  
HETATM    7  C   UNL     1     -10.482  16.143  69.277  1.00  0.00    -0.267 A  
HETATM    8  N   UNL     1     -10.616  17.489  69.111  1.00  0.00    -0.219 NA 
ENDROOT
BRANCH   5   9
HETATM    9  O   UNL     1      -9.087  14.133  68.667  1.00  0.00    -0.192 OA 
BRANCH   9  10
HETATM   10  C   UNL     1     -10.088  13.155  68.411  1.00  0.00    -0.231 C  
BRANCH  10  11
HETATM   11  C   UNL     1      -9.841  12.508  67.040  1.00  0.00    -0.217 C  
HETATM   12  C   UNL     1      -9.316  11.052  67.014  1.00  0.00    -0.186 C  
HETATM   13  C   UNL     1      -8.378  12.209  66.766  1.00  0.00    -0.111 C  
BRANCH  11  14
HETATM   14  C   UNL     1     -10.774  12.944  65.872  1.00  0.00    -0.291 A  
HETATM   15  C   UNL     1     -11.021  14.304  65.561  1.00  0.00    -0.319 A  
HETATM   16  F   UNL     1     -12.758  11.477  63.162  1.00  0.00    -0.655 F  
HETATM   17  C   UNL     1     -11.808  14.703  64.472  1.00  0.00    -0.442 A  
HETATM   18  C   UNL     1     -11.407  12.012  65.026  1.00  0.00    -0.365 A  
HETATM   19  C   UNL     1     -12.193  12.409  63.942  1.00  0.00    -0.513 A  
HETATM   20  C   UNL     1     -12.394  13.747  63.651  1.00  0.00    -0.256 A  
ENDBRANCH  11  14
BRANCH  12  21
HETATM   21  C   UNL     1      -9.268  10.245  68.278  1.00  0.00    -0.139 C  
HETATM   22  N   UNL     1      -7.987   9.914  68.659  1.00  0.00    -0.085 N  
HETATM   23  H   UNL     1      -7.214  10.340  68.148  1.00  0.00     0.000 HD 
HETATM   24  O   UNL     1     -10.310   9.958  68.849  1.00  0.00    -0.187 OA 
BRANCH  22  25
HETATM   25  C   UNL     1      -7.673   9.032  69.702  1.00  0.00    -0.075 A  
HETATM   26  N   UNL     1      -7.920   7.714  69.572  1.00  0.00    -0.122 NA 
HETATM   27  C   UNL     1      -7.600   6.902  70.607  1.00  0.00    -0.094 A  
HETATM   28  C   UNL     1      -7.033   7.355  71.781  1.00  0.00    -0.062 A  
HETATM   29  C   UNL     1      -6.761   8.707  71.907  1.00  0.00    -0.078 A  
HETATM   30  F   UNL     1      -6.753   6.510  72.779  1.00  0.00    -0.061 F  
HETATM   31  C   UNL     1      -7.076   9.560  70.848  1.00  0.00    -0.070 A  
ENDBRANCH  22  25
ENDBRANCH  12  21
ENDBRANCH  10  11
ENDBRANCH   9  10
ENDBRANCH   5   9
TORSDOF 6
ENDMDL
MODEL      123
REMARK 921   NORMALIZED FREE ENERGY PREDICTED BY IDOCK:   -4.80 KCAL/MOL
REMARK 922        TOTAL FREE ENERGY PREDICTED BY IDOCK:   -8.03 KCAL/MOL
REMARK 923 INTER-LIGAND FREE ENERGY PREDICTED BY IDOCK:   -6.86 KCAL/MOL
REMARK 924 INTRA-LIGAND FREE ENERGY PREDICTED BY IDOCK:   -1.17 KCAL/MOL
REMARK 927      BINDING AFFINITY PREDICTED BY RF-SCORE:    0.00 PKD
ROOT
HETATM    1  C   UNL     1     -12.661  12.115  63.365  1.00  0.00    -0.584 C  
HETATM    2  C   UNL     1     -11.814  11.920  64.581  1.00  0.00    -0.205 A  
HETATM    3  N   UNL     1     -10.712  11.172  64.483  1.00  0.00    -0.326 NA 
HETATM    4  C   UNL     1      -9.998  11.048  65.621  1.00  0.00    -0.248 A  
HETATM    5  C   UNL     1     -10.319  11.616  66.848  1.00  0.00    -0.220 A  
HETATM    6  C   UNL     1     -12.015  13.268  67.928  1.00  0.00    -0.349 C  
HETATM    7  C   UNL     1     -11.470  12.395  66.839  1.00  0.00    -0.360 A  
HETATM    8  N   UNL     1     -12.214  12.534  65.706  1.00  0.00    -0.626 NA 
ENDROOT
BRANCH   5   9
HETATM    9  O   UNL     1      -9.414  11.312  67.817  1.00  0.00    -0.164 OA 
BRANCH   9  10
HETATM   10  C   UNL     1      -8.071  11.040  67.433  1.00  0.00    -0.122 C  
BRANCH  10  11
HETATM   11  C   UNL     1      -7.184  10.939  68.683  1.00  0.00    -0.088 C  
HETATM   12  C   UNL     1      -6.495  12.231  69.186  1.00  0.00    -0.100 C  
HETATM   13  C   UNL     1      -5.715  11.199  68.406  1.00  0.00    -0.042 C  
BRANCH  11  14
HETATM   14  C   UNL     1      -7.595   9.893  69.761  1.00  0.00    -0.151 A  
HETATM   15  C   UNL     1      -8.944   9.679  70.140  1.00  0.00    -0.273 A  
HETATM   16  F   UNL     1      -6.095   7.321  71.898  1.00  0.00    -0.037 F  
HETATM   17  C   UNL     1      -9.327   8.695  71.063  1.00  0.00    -0.254 A  
HETATM   18  C   UNL     1      -6.654   9.067  70.406  1.00  0.00    -0.049 A  
HETATM   19  C   UNL     1      -7.034   8.088  71.327  1.00  0.00    -0.056 A  
HETATM   20  C   UNL     1      -8.363   7.888  71.657  1.00  0.00    -0.137 A  
ENDBRANCH  11  14
BRANCH  12  21
HETATM   21  C   UNL     1      -6.865  13.561  68.597  1.00  0.00    -0.098 C  
HETATM   22  N   UNL     1      -8.170  13.918  68.850  1.00  0.00    -0.339 N  
HETATM   23  H   UNL     1      -8.704  13.340  69.499  1.00  0.00     0.000 HD 
HETATM   24  O   UNL     1      -6.028  14.197  67.972  1.00  0.00    -0.120 OA 
BRANCH  22  25
HETATM   25  C   UNL     1      -8.815  15.024  68.278  1.00  0.00    -0.172 A  
HETATM   26  N   UNL     1      -8.890  15.145  66.938  1.00  0.00    -0.239 NA 
HETATM   27  C   UNL     1      -9.522  16.230  66.432  1.00  0.00    -0.294 A  
HETATM   28  C   UNL     1     -10.092  17.212  67.218  1.00  0.00    -0.294 A  
HETATM   29  C   UNL     1     -10.031  17.078  68.595  1.00  0.00    -0.294 A  
HETATM   30  F   UNL     1     -10.689  18.273  66.664  1.00  0.00    -0.371 F  
HETATM   31  C   UNL     1      -9.391  15.961  69.136  1.00  0.00    -0.252 A  
ENDBRANCH  22  25
ENDBRANCH  12  21
ENDBRANCH  10  11
ENDBRANCH   9  10
ENDBRANCH   5   9
TORSDOF 6
ENDMDL
MODEL      124
REMARK 921   NORMALIZED FREE ENERGY PREDICTED BY IDOCK:   -4.79 KCAL/MOL
REMARK 922        TOTAL FREE ENERGY PREDICTED BY IDOCK:   -8.02 KCAL/MOL
REMARK 923 INTER-LIGAND FREE ENERGY PREDICTED BY IDOCK:   -6.91 KCAL/MOL
REMARK 924 INTRA-LIGAND FREE ENERGY PREDICTED BY IDOCK:   -1.11 KCAL/MOL
REMARK 927      BINDING AFFINITY PREDICTED BY RF-SCORE:    0.00 PKD
ROOT
HETATM    1  C   UNL     1      -5.370   8.674  63.797  1.00  0.00    -0.061 C  
HETATM    2  C   UNL     1      -6.362   9.510  64.540  1.00  0.00    -0.089 A  
HETATM    3  N   UNL     1      -5.982  10.099  65.677  1.00  0.00    -0.083 NA 
HETATM    4  C   UNL     1      -6.931  10.841  66.284  1.00  0.00    -0.134 A  
HETATM    5  C   UNL     1      -8.233  11.023  65.835  1.00  0.00    -0.100 A  
HETATM    6  C   UNL     1      -9.757  10.499  63.791  1.00  0.00    -0.385 C  
HETATM    7  C   UNL     1      -8.521  10.389  64.632  1.00  0.00    -0.173 A  
HETATM    8  N   UNL     1      -7.584   9.629  63.997  1.00  0.00    -0.122 NA 
ENDROOT
BRANCH   5   9
HETATM    9  O   UNL     1      -8.965  11.819  66.661  1.00  0.00    -0.186 OA 
BRANCH   9  10
HETATM   10  C   UNL     1     -10.002  12.614  66.097  1.00  0.00    -0.261 C  
BRANCH  10  11
HETATM   11  C   UNL     1     -10.377  13.741  67.070  1.00  0.00    -0.260 C  
HETATM   12  C   UNL     1     -11.183  13.363  68.337  1.00  0.00    -0.311 C  
HETATM   13  C   UNL     1     -11.871  13.998  67.152  1.00  0.00    -0.444 C  
BRANCH  11  14
HETATM   14  C   UNL     1      -9.380  14.931  67.197  1.00  0.00    -0.227 A  
HETATM   15  C   UNL     1      -9.089  15.799  66.115  1.00  0.00    -0.377 A  
HETATM   16  F   UNL     1      -7.298  16.599  69.709  1.00  0.00    -0.161 F  
HETATM   17  C   UNL     1      -8.242  16.909  66.239  1.00  0.00    -0.344 A  
HETATM   18  C   UNL     1      -8.727  15.240  68.405  1.00  0.00    -0.170 A  
HETATM   19  C   UNL     1      -7.880  16.345  68.530  1.00  0.00    -0.197 A  
HETATM   20  C   UNL     1      -7.637  17.188  67.460  1.00  0.00    -0.187 A  
ENDBRANCH  11  14
BRANCH  12  21
HETATM   21  C   UNL     1     -11.388  11.921  68.697  1.00  0.00    -0.276 C  
HETATM   22  N   UNL     1     -10.355  11.400  69.445  1.00  0.00    -0.435 N  
HETATM   23  H   UNL     1      -9.642  12.045  69.786  1.00  0.00     0.000 HD 
HETATM   24  O   UNL     1     -12.399  11.345  68.325  1.00  0.00    -0.506 OA 
BRANCH  22  25
HETATM   25  C   UNL     1     -10.217  10.043  69.769  1.00  0.00    -0.250 A  
HETATM   26  N   UNL     1     -10.915   9.517  70.794  1.00  0.00    -0.292 NA 
HETATM   27  C   UNL     1     -10.747   8.202  71.068  1.00  0.00    -0.217 A  
HETATM   28  C   UNL     1      -9.903   7.378  70.352  1.00  0.00    -0.183 A  
HETATM   29  C   UNL     1      -9.200   7.914  69.286  1.00  0.00    -0.148 A  
HETATM   30  F   UNL     1      -9.762   6.089  70.679  1.00  0.00    -0.177 F  
HETATM   31  C   UNL     1      -9.365   9.267  68.981  1.00  0.00    -0.151 A  
ENDBRANCH  22  25
ENDBRANCH  12  21
ENDBRANCH  10  11
ENDBRANCH   9  10
ENDBRANCH   5   9
TORSDOF 6
ENDMDL
MODEL      125
REMARK 921   NORMALIZED FREE ENERGY PREDICTED BY IDOCK:   -4.78 KCAL/MOL
REMARK 922        TOTAL FREE ENERGY PREDICTED BY IDOCK:   -8.01 KCAL/MOL
REMARK 923 INTER-LIGAND FREE ENERGY PREDICTED BY IDOCK:   -6.37 KCAL/MOL
REMARK 924 INTRA-LIGAND FREE ENERGY PREDICTED BY IDOCK:   -1.64 KCAL/MOL
REMARK 927      BINDING AFFINITY PREDICTED BY RF-SCORE:    0.00 PKD
ROOT
HETATM    1  C   UNL     1     -12.484  13.334  64.319  1.00  0.00    -0.337 C  
HETATM    2  C   UNL     1     -11.510  12.742  65.286  1.00  0.00    -0.325 A  
HETATM    3  N   UNL     1     -10.207  12.790  64.996  1.00  0.00    -0.289 NA 
HETATM    4  C   UNL     1      -9.393  12.241  65.920  1.00  0.00    -0.095 A  
HETATM    5  C   UNL     1      -9.796  11.640  67.106  1.00  0.00    -0.188 A  
HETATM    6  C   UNL     1     -11.924  11.254  68.554  1.00  0.00    -0.288 C  
HETATM    7  C   UNL     1     -11.168  11.663  67.326  1.00  0.00    -0.304 A  
HETATM    8  N   UNL     1     -12.017  12.207  66.408  1.00  0.00    -0.621 NA 
ENDROOT
BRANCH   5   9
HETATM    9  O   UNL     1      -8.749  11.169  67.837  1.00  0.00    -0.129 OA 
BRANCH   9  10
HETATM   10  C   UNL     1      -8.340   9.819  67.649  1.00  0.00    -0.114 C  
BRANCH  10  11
HETATM   11  C   UNL     1      -8.017   9.181  69.008  1.00  0.00    -0.101 C  
HETATM   12  C   UNL     1      -6.820   9.752  69.807  1.00  0.00    -0.074 C  
HETATM   13  C   UNL     1      -6.681   8.460  69.036  1.00  0.00    -0.052 C  
BRANCH  11  14
HETATM   14  C   UNL     1      -9.215   8.624  69.832  1.00  0.00    -0.155 A  
HETATM   15  C   UNL     1      -9.635   9.205  71.053  1.00  0.00    -0.350 A  
HETATM   16  F   UNL     1     -11.791   6.024  69.640  1.00  0.00    -0.430 F  
HETATM   17  C   UNL     1     -10.753   8.748  71.768  1.00  0.00    -0.413 A  
HETATM   18  C   UNL     1      -9.980   7.524  69.398  1.00  0.00    -0.178 A  
HETATM   19  C   UNL     1     -11.091   7.066  70.109  1.00  0.00    -0.285 A  
HETATM   20  C   UNL     1     -11.491   7.672  71.287  1.00  0.00    -0.293 A  
ENDBRANCH  11  14
BRANCH  12  21
HETATM   21  C   UNL     1      -6.152  11.020  69.361  1.00  0.00    -0.060 C  
HETATM   22  N   UNL     1      -6.801  12.153  69.797  1.00  0.00    -0.343 N  
HETATM   23  H   UNL     1      -7.563  12.037  70.465  1.00  0.00     0.000 HD 
HETATM   24  O   UNL     1      -5.136  10.959  68.685  1.00  0.00    -0.041 OA 
BRANCH  22  25
HETATM   25  C   UNL     1      -6.485  13.455  69.386  1.00  0.00    -0.100 A  
HETATM   26  N   UNL     1      -6.696  13.833  68.110  1.00  0.00    -0.107 NA 
HETATM   27  C   UNL     1      -6.374  15.101  67.761  1.00  0.00    -0.160 A  
HETATM   28  C   UNL     1      -5.845  16.021  68.644  1.00  0.00    -0.104 A  
HETATM   29  C   UNL     1      -5.645  15.638  69.960  1.00  0.00    -0.141 A  
HETATM   30  F   UNL     1      -5.528  17.255  68.240  1.00  0.00    -0.124 F  
HETATM   31  C   UNL     1      -5.979  14.337  70.343  1.00  0.00    -0.171 A  
ENDBRANCH  22  25
ENDBRANCH  12  21
ENDBRANCH  10  11
ENDBRANCH   9  10
ENDBRANCH   5   9
TORSDOF 6
ENDMDL
MODEL      126
REMARK 921   NORMALIZED FREE ENERGY PREDICTED BY IDOCK:   -4.77 KCAL/MOL
REMARK 922        TOTAL FREE ENERGY PREDICTED BY IDOCK:   -7.99 KCAL/MOL
REMARK 923 INTER-LIGAND FREE ENERGY PREDICTED BY IDOCK:   -6.71 KCAL/MOL
REMARK 924 INTRA-LIGAND FREE ENERGY PREDICTED BY IDOCK:   -1.28 KCAL/MOL
REMARK 927      BINDING AFFINITY PREDICTED BY RF-SCORE:    0.00 PKD
ROOT
HETATM    1  C   UNL     1     -12.837   9.957  71.949  1.00  0.00    -0.524 C  
HETATM    2  C   UNL     1     -11.750  10.054  70.927  1.00  0.00    -0.374 A  
HETATM    3  N   UNL     1     -12.007  10.676  69.774  1.00  0.00    -0.299 NA 
HETATM    4  C   UNL     1     -10.975  10.727  68.907  1.00  0.00    -0.241 A  
HETATM    5  C   UNL     1      -9.710  10.190  69.115  1.00  0.00    -0.215 A  
HETATM    6  C   UNL     1      -8.277   9.053  70.966  1.00  0.00    -0.220 C  
HETATM    7  C   UNL     1      -9.538   9.587  70.354  1.00  0.00    -0.269 A  
HETATM    8  N   UNL     1     -10.563   9.515  71.249  1.00  0.00    -0.330 NA 
ENDROOT
BRANCH   5   9
HETATM    9  O   UNL     1      -8.876  10.392  68.058  1.00  0.00    -0.128 OA 
BRANCH   9  10
HETATM   10  C   UNL     1      -8.180   9.276  67.518  1.00  0.00    -0.114 C  
BRANCH  10  11
HETATM   11  C   UNL     1      -8.919   8.755  66.276  1.00  0.00    -0.211 C  
HETATM   12  C   UNL     1      -9.780   7.478  66.431  1.00  0.00    -0.180 C  
HETATM   13  C   UNL     1      -8.414   7.408  65.791  1.00  0.00    -0.149 C  
BRANCH  11  14
HETATM   14  C   UNL     1      -9.406   9.816  65.245  1.00  0.00    -0.315 A  
HETATM   15  C   UNL     1      -8.664  10.147  64.084  1.00  0.00    -0.216 A  
HETATM   16  F   UNL     1     -12.279  11.999  64.603  1.00  0.00    -0.420 F  
HETATM   17  C   UNL     1      -9.127  11.054  63.120  1.00  0.00    -0.262 A  
HETATM   18  C   UNL     1     -10.634  10.492  65.384  1.00  0.00    -0.143 A  
HETATM   19  C   UNL     1     -11.095  11.397  64.425  1.00  0.00    -0.259 A  
HETATM   20  C   UNL     1     -10.357  11.680  63.289  1.00  0.00    -0.444 A  
ENDBRANCH  11  14
BRANCH  12  21
HETATM   21  C   UNL     1     -10.051   6.913  67.794  1.00  0.00    -0.161 C  
HETATM   22  N   UNL     1      -9.047   6.083  68.243  1.00  0.00    -0.112 N  
HETATM   23  H   UNL     1      -8.189   6.036  67.694  1.00  0.00     0.000 HD 
HETATM   24  O   UNL     1     -11.082   7.214  68.377  1.00  0.00    -0.072 OA 
BRANCH  22  25
HETATM   25  C   UNL     1      -9.126   5.300  69.402  1.00  0.00    -0.104 A  
HETATM   26  N   UNL     1      -8.806   5.828  70.600  1.00  0.00    -0.138 NA 
HETATM   27  C   UNL     1      -8.897   5.031  71.691  1.00  0.00    -0.133 A  
HETATM   28  C   UNL     1      -9.302   3.713  71.637  1.00  0.00    -0.133 A  
HETATM   29  C   UNL     1      -9.649   3.175  70.409  1.00  0.00    -0.192 A  
HETATM   30  F   UNL     1      -9.356   2.966  72.745  1.00  0.00    -0.100 F  
HETATM   31  C   UNL     1      -9.570   3.983  69.272  1.00  0.00    -0.247 A  
ENDBRANCH  22  25
ENDBRANCH  12  21
ENDBRANCH  10  11
ENDBRANCH   9  10
ENDBRANCH   5   9
TORSDOF 6
ENDMDL
MODEL      127
REMARK 921   NORMALIZED FREE ENERGY PREDICTED BY IDOCK:   -4.73 KCAL/MOL
REMARK 922        TOTAL FREE ENERGY PREDICTED BY IDOCK:   -7.94 KCAL/MOL
REMARK 923 INTER-LIGAND FREE ENERGY PREDICTED BY IDOCK:   -7.21 KCAL/MOL
REMARK 924 INTRA-LIGAND FREE ENERGY PREDICTED BY IDOCK:   -0.73 KCAL/MOL
REMARK 927      BINDING AFFINITY PREDICTED BY RF-SCORE:    0.00 PKD
ROOT
HETATM    1  C   UNL     1      -5.139   2.784  72.719  1.00  0.00     0.000 C  
HETATM    2  C   UNL     1      -6.178   3.856  72.642  1.00  0.00    -0.013 A  
HETATM    3  N   UNL     1      -7.417   3.522  72.274  1.00  0.00    -0.055 NA 
HETATM    4  C   UNL     1      -8.298   4.543  72.234  1.00  0.00    -0.110 A  
HETATM    5  C   UNL     1      -8.018   5.872  72.528  1.00  0.00    -0.102 A  
HETATM    6  C   UNL     1      -6.108   7.376  73.456  1.00  0.00    -0.060 C  
HETATM    7  C   UNL     1      -6.707   6.110  72.923  1.00  0.00    -0.070 A  
HETATM    8  N   UNL     1      -5.793   5.100  72.969  1.00  0.00    -0.022 NA 
ENDROOT
BRANCH   5   9
HETATM    9  O   UNL     1      -9.106   6.678  72.394  1.00  0.00    -0.137 OA 
BRANCH   9  10
HETATM   10  C   UNL     1      -9.365   7.267  71.125  1.00  0.00    -0.156 C  
BRANCH  10  11
HETATM   11  C   UNL     1     -10.617   6.630  70.503  1.00  0.00    -0.270 C  
HETATM   12  C   UNL     1     -11.976   7.336  70.733  1.00  0.00    -0.311 C  
HETATM   13  C   UNL     1     -11.605   6.109  71.531  1.00  0.00    -0.304 C  
BRANCH  11  14
HETATM   14  C   UNL     1     -10.432   5.874  69.155  1.00  0.00    -0.338 A  
HETATM   15  C   UNL     1     -10.788   6.443  67.907  1.00  0.00    -0.404 A  
HETATM   16  F   UNL     1      -9.092   2.717  67.864  1.00  0.00    -0.136 F  
HETATM   17  C   UNL     1     -10.565   5.794  66.684  1.00  0.00    -0.347 A  
HETATM   18  C   UNL     1      -9.867   4.586  69.086  1.00  0.00    -0.222 A  
HETATM   19  C   UNL     1      -9.647   3.936  67.869  1.00  0.00    -0.136 A  
HETATM   20  C   UNL     1      -9.983   4.531  66.665  1.00  0.00    -0.253 A  
ENDBRANCH  11  14
BRANCH  12  21
HETATM   21  C   UNL     1     -12.020   8.704  71.349  1.00  0.00    -0.304 C  
HETATM   22  N   UNL     1     -12.545   9.658  70.507  1.00  0.00    -0.503 N  
HETATM   23  H   UNL     1     -12.963   9.342  69.632  1.00  0.00     0.000 HD 
HETATM   24  O   UNL     1     -11.613   8.863  72.490  1.00  0.00    -0.258 OA 
BRANCH  22  25
HETATM   25  C   UNL     1     -12.546  11.034  70.771  1.00  0.00    -0.369 A  
HETATM   26  N   UNL     1     -11.884  11.881  69.958  1.00  0.00    -0.337 NA 
HETATM   27  C   UNL     1     -11.913  13.201  70.256  1.00  0.00    -0.292 A  
HETATM   28  C   UNL     1     -12.586  13.720  71.344  1.00  0.00    -0.348 A  
HETATM   29  C   UNL     1     -13.281  12.853  72.169  1.00  0.00    -0.552 A  
HETATM   30  F   UNL     1     -12.567  15.032  71.600  1.00  0.00    -0.323 F  
HETATM   31  C   UNL     1     -13.271  11.487  71.875  1.00  0.00    -0.479 A  
ENDBRANCH  22  25
ENDBRANCH  12  21
ENDBRANCH  10  11
ENDBRANCH   9  10
ENDBRANCH   5   9
TORSDOF 6
ENDMDL
MODEL      128
REMARK 921   NORMALIZED FREE ENERGY PREDICTED BY IDOCK:   -4.73 KCAL/MOL
REMARK 922        TOTAL FREE ENERGY PREDICTED BY IDOCK:   -7.93 KCAL/MOL
REMARK 923 INTER-LIGAND FREE ENERGY PREDICTED BY IDOCK:   -6.99 KCAL/MOL
REMARK 924 INTRA-LIGAND FREE ENERGY PREDICTED BY IDOCK:   -0.95 KCAL/MOL
REMARK 927      BINDING AFFINITY PREDICTED BY RF-SCORE:    0.00 PKD
ROOT
HETATM    1  C   UNL     1     -12.520  12.736  64.611  1.00  0.00    -0.525 C  
HETATM    2  C   UNL     1     -11.847  13.676  65.559  1.00  0.00    -0.362 A  
HETATM    3  N   UNL     1     -11.064  14.637  65.062  1.00  0.00    -0.371 NA 
HETATM    4  C   UNL     1     -10.498  15.448  65.980  1.00  0.00    -0.321 A  
HETATM    5  C   UNL     1     -10.656  15.353  67.357  1.00  0.00    -0.289 A  
HETATM    6  C   UNL     1     -12.022  14.053  69.149  1.00  0.00    -0.400 C  
HETATM    7  C   UNL     1     -11.508  14.337  67.770  1.00  0.00    -0.329 A  
HETATM    8  N   UNL     1     -12.092  13.499  66.868  1.00  0.00    -0.387 NA 
ENDROOT
BRANCH   5   9
HETATM    9  O   UNL     1      -9.955  16.307  68.030  1.00  0.00    -0.233 OA 
BRANCH   9  10
HETATM   10  C   UNL     1      -8.912  15.895  68.905  1.00  0.00    -0.228 C  
BRANCH  10  11
HETATM   11  C   UNL     1      -7.549  16.202  68.268  1.00  0.00    -0.146 C  
HETATM   12  C   UNL     1      -6.677  15.005  67.816  1.00  0.00    -0.188 C  
HETATM   13  C   UNL     1      -6.371  15.734  69.103  1.00  0.00    -0.134 C  
BRANCH  11  14
HETATM   14  C   UNL     1      -7.436  17.514  67.435  1.00  0.00    -0.212 A  
HETATM   15  C   UNL     1      -6.657  17.601  66.255  1.00  0.00    -0.301 A  
HETATM   16  F   UNL     1      -8.762  20.929  67.376  1.00  0.00    -0.422 F  
HETATM   17  C   UNL     1      -6.601  18.759  65.466  1.00  0.00    -0.307 A  
HETATM   18  C   UNL     1      -8.127  18.689  67.785  1.00  0.00    -0.269 A  
HETATM   19  C   UNL     1      -8.071  19.844  67.001  1.00  0.00    -0.309 A  
HETATM   20  C   UNL     1      -7.320  19.889  65.839  1.00  0.00    -0.335 A  
ENDBRANCH  11  14
BRANCH  12  21
HETATM   21  C   UNL     1      -7.249  13.618  67.804  1.00  0.00    -0.164 C  
HETATM   22  N   UNL     1      -6.621  12.768  68.687  1.00  0.00    -0.078 N  
HETATM   23  H   UNL     1      -5.946  13.171  69.337  1.00  0.00     0.000 HD 
HETATM   24  O   UNL     1      -8.181  13.358  67.057  1.00  0.00    -0.142 OA 
BRANCH  22  25
HETATM   25  C   UNL     1      -6.848  11.387  68.753  1.00  0.00    -0.082 A  
HETATM   26  N   UNL     1      -7.959  10.910  69.348  1.00  0.00    -0.077 NA 
HETATM   27  C   UNL     1      -8.133   9.568  69.388  1.00  0.00    -0.116 A  
HETATM   28  C   UNL     1      -7.234   8.669  68.850  1.00  0.00    -0.077 A  
HETATM   29  C   UNL     1      -6.101   9.159  68.223  1.00  0.00    -0.053 A  
HETATM   30  F   UNL     1      -7.448   7.352  68.934  1.00  0.00    -0.089 F  
HETATM   31  C   UNL     1      -5.907  10.541  68.163  1.00  0.00    -0.043 A  
ENDBRANCH  22  25
ENDBRANCH  12  21
ENDBRANCH  10  11
ENDBRANCH   9  10
ENDBRANCH   5   9
TORSDOF 6
ENDMDL
MODEL      129
REMARK 921   NORMALIZED FREE ENERGY PREDICTED BY IDOCK:   -4.72 KCAL/MOL
REMARK 922        TOTAL FREE ENERGY PREDICTED BY IDOCK:   -7.93 KCAL/MOL
REMARK 923 INTER-LIGAND FREE ENERGY PREDICTED BY IDOCK:   -6.32 KCAL/MOL
REMARK 924 INTRA-LIGAND FREE ENERGY PREDICTED BY IDOCK:   -1.61 KCAL/MOL
REMARK 927      BINDING AFFINITY PREDICTED BY RF-SCORE:    0.00 PKD
ROOT
HETATM    1  C   UNL     1      -8.083  16.554  66.563  1.00  0.00    -0.341 C  
HETATM    2  C   UNL     1      -8.367  15.107  66.811  1.00  0.00    -0.189 A  
HETATM    3  N   UNL     1      -7.416  14.352  67.365  1.00  0.00    -0.187 NA 
HETATM    4  C   UNL     1      -7.750  13.060  67.562  1.00  0.00    -0.168 A  
HETATM    5  C   UNL     1      -8.967  12.476  67.233  1.00  0.00    -0.192 A  
HETATM    6  C   UNL     1     -11.340  13.100  66.367  1.00  0.00    -0.349 C  
HETATM    7  C   UNL     1      -9.897  13.351  66.686  1.00  0.00    -0.278 A  
HETATM    8  N   UNL     1      -9.587  14.660  66.471  1.00  0.00    -0.275 NA 
ENDROOT
BRANCH   5   9
HETATM    9  O   UNL     1      -9.012  11.151  67.545  1.00  0.00    -0.138 OA 
BRANCH   9  10
HETATM   10  C   UNL     1      -7.892  10.568  68.200  1.00  0.00    -0.109 C  
BRANCH  10  11
HETATM   11  C   UNL     1      -8.033   9.038  68.204  1.00  0.00    -0.101 C  
HETATM   12  C   UNL     1      -8.816   8.388  69.370  1.00  0.00    -0.142 C  
HETATM   13  C   UNL     1      -7.306   8.367  69.355  1.00  0.00    -0.070 C  
BRANCH  11  14
HETATM   14  C   UNL     1      -8.111   8.330  66.819  1.00  0.00    -0.103 A  
HETATM   15  C   UNL     1      -7.469   8.843  65.665  1.00  0.00    -0.086 A  
HETATM   16  F   UNL     1      -9.472   5.292  65.289  1.00  0.00    -0.159 F  
HETATM   17  C   UNL     1      -7.482   8.177  64.430  1.00  0.00    -0.103 A  
HETATM   18  C   UNL     1      -8.798   7.115  66.632  1.00  0.00    -0.142 A  
HETATM   19  C   UNL     1      -8.814   6.453  65.403  1.00  0.00     0.041 A  
HETATM   20  C   UNL     1      -8.155   6.968  64.300  1.00  0.00    -0.040 A  
ENDBRANCH  11  14
BRANCH  12  21
HETATM   21  C   UNL     1      -9.590   9.246  70.329  1.00  0.00    -0.235 C  
HETATM   22  N   UNL     1     -10.768   9.721  69.797  1.00  0.00    -0.240 N  
HETATM   23  H   UNL     1     -11.062   9.356  68.891  1.00  0.00     0.000 HD 
HETATM   24  O   UNL     1      -9.146   9.447  71.450  1.00  0.00    -0.285 OA 
BRANCH  22  25
HETATM   25  C   UNL     1     -11.590  10.672  70.417  1.00  0.00    -0.351 A  
HETATM   26  N   UNL     1     -12.429  10.302  71.403  1.00  0.00    -0.392 NA 
HETATM   27  C   UNL     1     -13.204  11.257  71.970  1.00  0.00    -0.331 A  
HETATM   28  C   UNL     1     -13.173  12.584  71.592  1.00  0.00    -0.284 A  
HETATM   29  C   UNL     1     -12.297  12.968  70.591  1.00  0.00    -0.391 A  
HETATM   30  F   UNL     1     -13.975  13.482  72.175  1.00  0.00    -0.492 F  
HETATM   31  C   UNL     1     -11.483  12.000  69.998  1.00  0.00    -0.183 A  
ENDBRANCH  22  25
ENDBRANCH  12  21
ENDBRANCH  10  11
ENDBRANCH   9  10
ENDBRANCH   5   9
TORSDOF 6
ENDMDL
MODEL      130
REMARK 921   NORMALIZED FREE ENERGY PREDICTED BY IDOCK:   -4.70 KCAL/MOL
REMARK 922        TOTAL FREE ENERGY PREDICTED BY IDOCK:   -7.90 KCAL/MOL
REMARK 923 INTER-LIGAND FREE ENERGY PREDICTED BY IDOCK:   -6.48 KCAL/MOL
REMARK 924 INTRA-LIGAND FREE ENERGY PREDICTED BY IDOCK:   -1.41 KCAL/MOL
REMARK 927      BINDING AFFINITY PREDICTED BY RF-SCORE:    0.00 PKD
ROOT
HETATM    1  C   UNL     1      -8.963  10.941  62.452  1.00  0.00    -0.353 C  
HETATM    2  C   UNL     1      -8.634  10.182  63.697  1.00  0.00    -0.197 A  
HETATM    3  N   UNL     1      -7.359   9.864  63.937  1.00  0.00    -0.128 NA 
HETATM    4  C   UNL     1      -7.143   9.185  65.083  1.00  0.00    -0.088 A  
HETATM    5  C   UNL     1      -8.117   8.797  65.995  1.00  0.00    -0.112 A  
HETATM    6  C   UNL     1     -10.655   9.089  66.487  1.00  0.00    -0.076 C  
HETATM    7  C   UNL     1      -9.406   9.197  65.666  1.00  0.00    -0.235 A  
HETATM    8  N   UNL     1      -9.657   9.880  64.513  1.00  0.00    -0.279 NA 
ENDROOT
BRANCH   5   9
HETATM    9  O   UNL     1      -7.599   8.119  67.055  1.00  0.00    -0.093 OA 
BRANCH   9  10
HETATM   10  C   UNL     1      -7.029   8.862  68.126  1.00  0.00    -0.077 C  
BRANCH  10  11
HETATM   11  C   UNL     1      -8.018   8.921  69.300  1.00  0.00    -0.104 C  
HETATM   12  C   UNL     1      -8.728  10.268  69.579  1.00  0.00    -0.155 C  
HETATM   13  C   UNL     1      -7.562   9.825  70.431  1.00  0.00    -0.165 C  
BRANCH  11  14
HETATM   14  C   UNL     1      -8.816   7.622  69.620  1.00  0.00    -0.140 A  
HETATM   15  C   UNL     1      -8.181   6.406  69.973  1.00  0.00    -0.125 A  
HETATM   16  F   UNL     1     -12.275   6.458  69.949  1.00  0.00    -0.410 F  
HETATM   17  C   UNL     1      -8.895   5.251  70.324  1.00  0.00    -0.145 A  
HETATM   18  C   UNL     1     -10.224   7.583  69.612  1.00  0.00    -0.205 A  
HETATM   19  C   UNL     1     -10.936   6.432  69.960  1.00  0.00    -0.337 A  
HETATM   20  C   UNL     1     -10.285   5.267  70.324  1.00  0.00    -0.345 A  
ENDBRANCH  11  14
BRANCH  12  21
HETATM   21  C   UNL     1      -8.612  11.398  68.599  1.00  0.00    -0.126 C  
HETATM   22  N   UNL     1      -9.779  12.116  68.462  1.00  0.00    -0.328 N  
HETATM   23  H   UNL     1     -10.542  11.911  69.107  1.00  0.00     0.000 HD 
HETATM   24  O   UNL     1      -7.549  11.592  68.026  1.00  0.00    -0.104 OA 
BRANCH  22  25
HETATM   25  C   UNL     1      -9.990  13.109  67.496  1.00  0.00    -0.223 A  
HETATM   26  N   UNL     1      -9.944  14.411  67.841  1.00  0.00    -0.225 NA 
HETATM   27  C   UNL     1     -10.155  15.333  66.873  1.00  0.00    -0.256 A  
HETATM   28  C   UNL     1     -10.411  15.007  65.556  1.00  0.00    -0.373 A  
HETATM   29  C   UNL     1     -10.440  13.670  65.197  1.00  0.00    -0.388 A  
HETATM   30  F   UNL     1     -10.630  15.960  64.644  1.00  0.00    -0.420 F  
HETATM   31  C   UNL     1     -10.216  12.703  66.180  1.00  0.00    -0.272 A  
ENDBRANCH  22  25
ENDBRANCH  12  21
ENDBRANCH  10  11
ENDBRANCH   9  10
ENDBRANCH   5   9
TORSDOF 6
ENDMDL
MODEL      131
REMARK 921   NORMALIZED FREE ENERGY PREDICTED BY IDOCK:   -4.69 KCAL/MOL
REMARK 922        TOTAL FREE ENERGY PREDICTED BY IDOCK:   -7.89 KCAL/MOL
REMARK 923 INTER-LIGAND FREE ENERGY PREDICTED BY IDOCK:   -6.75 KCAL/MOL
REMARK 924 INTRA-LIGAND FREE ENERGY PREDICTED BY IDOCK:   -1.14 KCAL/MOL
REMARK 927      BINDING AFFINITY PREDICTED BY RF-SCORE:    0.00 PKD
ROOT
HETATM    1  C   UNL     1      -9.225   4.481  72.205  1.00  0.00    -0.157 C  
HETATM    2  C   UNL     1      -9.611   5.857  71.768  1.00  0.00    -0.151 A  
HETATM    3  N   UNL     1      -8.645   6.741  71.505  1.00  0.00    -0.120 NA 
HETATM    4  C   UNL     1      -9.073   7.958  71.110  1.00  0.00    -0.143 A  
HETATM    5  C   UNL     1     -10.399   8.348  70.970  1.00  0.00    -0.198 A  
HETATM    6  C   UNL     1     -12.811   7.374  71.045  1.00  0.00    -0.226 C  
HETATM    7  C   UNL     1     -11.325   7.349  71.243  1.00  0.00    -0.265 A  
HETATM    8  N   UNL     1     -10.924   6.111  71.649  1.00  0.00    -0.257 NA 
ENDROOT
BRANCH   5   9
HETATM    9  O   UNL     1     -10.523   9.641  70.561  1.00  0.00    -0.264 OA 
BRANCH   9  10
HETATM   10  C   UNL     1      -9.615  10.135  69.584  1.00  0.00    -0.210 C  
BRANCH  10  11
HETATM   11  C   UNL     1     -10.200   9.925  68.180  1.00  0.00    -0.210 C  
HETATM   12  C   UNL     1     -10.479  11.181  67.318  1.00  0.00    -0.263 C  
HETATM   13  C   UNL     1     -11.609  10.468  68.023  1.00  0.00    -0.107 C  
BRANCH  11  14
HETATM   14  C   UNL     1      -9.782   8.629  67.424  1.00  0.00    -0.227 A  
HETATM   15  C   UNL     1      -8.471   8.427  66.928  1.00  0.00    -0.117 A  
HETATM   16  F   UNL     1     -11.165   5.383  66.434  1.00  0.00    -0.263 F  
HETATM   17  C   UNL     1      -8.070   7.236  66.303  1.00  0.00    -0.121 A  
HETATM   18  C   UNL     1     -10.673   7.559  67.215  1.00  0.00    -0.365 A  
HETATM   19  C   UNL     1     -10.277   6.373  66.592  1.00  0.00    -0.152 A  
HETATM   20  C   UNL     1      -8.980   6.198  66.140  1.00  0.00    -0.164 A  
ENDBRANCH  11  14
BRANCH  12  21
HETATM   21  C   UNL     1      -9.985  12.526  67.765  1.00  0.00    -0.210 C  
HETATM   22  N   UNL     1     -10.998  13.442  67.940  1.00  0.00    -0.249 N  
HETATM   23  H   UNL     1     -11.959  13.104  67.885  1.00  0.00     0.000 HD 
HETATM   24  O   UNL     1      -8.788  12.701  67.935  1.00  0.00    -0.165 OA 
BRANCH  22  25
HETATM   25  C   UNL     1     -10.799  14.806  68.189  1.00  0.00    -0.254 A  
HETATM   26  N   UNL     1     -10.699  15.256  69.455  1.00  0.00    -0.251 NA 
HETATM   27  C   UNL     1     -10.507  16.583  69.645  1.00  0.00    -0.267 A  
HETATM   28  C   UNL     1     -10.406  17.492  68.611  1.00  0.00    -0.369 A  
HETATM   29  C   UNL     1     -10.490  17.027  67.310  1.00  0.00    -0.301 A  
HETATM   30  F   UNL     1     -10.234  18.795  68.857  1.00  0.00    -0.391 F  
HETATM   31  C   UNL     1     -10.679  15.661  67.092  1.00  0.00    -0.314 A  
ENDBRANCH  22  25
ENDBRANCH  12  21
ENDBRANCH  10  11
ENDBRANCH   9  10
ENDBRANCH   5   9
TORSDOF 6
ENDMDL
MODEL      132
REMARK 921   NORMALIZED FREE ENERGY PREDICTED BY IDOCK:   -4.68 KCAL/MOL
REMARK 922        TOTAL FREE ENERGY PREDICTED BY IDOCK:   -7.88 KCAL/MOL
REMARK 923 INTER-LIGAND FREE ENERGY PREDICTED BY IDOCK:   -7.47 KCAL/MOL
REMARK 924 INTRA-LIGAND FREE ENERGY PREDICTED BY IDOCK:   -0.41 KCAL/MOL
REMARK 927      BINDING AFFINITY PREDICTED BY RF-SCORE:    0.00 PKD
ROOT
HETATM    1  C   UNL     1     -13.283  14.374  72.873  1.00  0.00    -0.613 C  
HETATM    2  C   UNL     1     -12.724  14.631  71.510  1.00  0.00    -0.338 A  
HETATM    3  N   UNL     1     -12.468  15.891  71.149  1.00  0.00    -0.430 NA 
HETATM    4  C   UNL     1     -11.959  16.040  69.908  1.00  0.00    -0.173 A  
HETATM    5  C   UNL     1     -11.700  15.015  69.007  1.00  0.00    -0.325 A  
HETATM    6  C   UNL     1     -11.674  12.417  68.853  1.00  0.00    -0.372 C  
HETATM    7  C   UNL     1     -11.977  13.741  69.488  1.00  0.00    -0.345 A  
HETATM    8  N   UNL     1     -12.496  13.559  70.735  1.00  0.00    -0.362 NA 
ENDROOT
BRANCH   5   9
HETATM    9  O   UNL     1     -11.193  15.471  67.828  1.00  0.00    -0.314 OA 
BRANCH   9  10
HETATM   10  C   UNL     1     -10.102  14.772  67.241  1.00  0.00    -0.236 C  
BRANCH  10  11
HETATM   11  C   UNL     1      -8.777  15.360  67.749  1.00  0.00    -0.167 C  
HETATM   12  C   UNL     1      -7.648  14.372  68.132  1.00  0.00    -0.128 C  
HETATM   13  C   UNL     1      -8.486  15.031  69.202  1.00  0.00    -0.192 C  
BRANCH  11  14
HETATM   14  C   UNL     1      -8.343  16.737  67.166  1.00  0.00    -0.207 A  
HETATM   15  C   UNL     1      -7.161  16.903  66.402  1.00  0.00    -0.269 A  
HETATM   16  F   UNL     1      -9.537  20.194  66.935  1.00  0.00    -0.435 F  
HETATM   17  C   UNL     1      -6.798  18.126  65.820  1.00  0.00    -0.305 A  
HETATM   18  C   UNL     1      -9.116  17.903  67.332  1.00  0.00    -0.245 A  
HETATM   19  C   UNL     1      -8.754  19.122  66.756  1.00  0.00    -0.307 A  
HETATM   20  C   UNL     1      -7.605  19.244  65.994  1.00  0.00    -0.290 A  
ENDBRANCH  11  14
BRANCH  12  21
HETATM   21  C   UNL     1      -7.780  12.914  67.803  1.00  0.00    -0.151 C  
HETATM   22  N   UNL     1      -8.512  12.215  68.737  1.00  0.00    -0.358 N  
HETATM   23  H   UNL     1      -8.991  12.748  69.462  1.00  0.00     0.000 HD 
HETATM   24  O   UNL     1      -7.260  12.476  66.787  1.00  0.00     0.058 OA 
BRANCH  22  25
HETATM   25  C   UNL     1      -8.643  10.819  68.757  1.00  0.00    -0.156 A  
HETATM   26  N   UNL     1      -9.208  10.177  67.716  1.00  0.00    -0.137 NA 
HETATM   27  C   UNL     1      -9.314   8.829  67.783  1.00  0.00    -0.141 A  
HETATM   28  C   UNL     1      -8.871   8.084  68.857  1.00  0.00    -0.141 A  
HETATM   29  C   UNL     1      -8.274   8.743  69.919  1.00  0.00    -0.118 A  
HETATM   30  F   UNL     1      -9.017   6.755  68.878  1.00  0.00    -0.130 F  
HETATM   31  C   UNL     1      -8.147  10.132  69.866  1.00  0.00    -0.139 A  
ENDBRANCH  22  25
ENDBRANCH  12  21
ENDBRANCH  10  11
ENDBRANCH   9  10
ENDBRANCH   5   9
TORSDOF 6
ENDMDL
MODEL      133
REMARK 921   NORMALIZED FREE ENERGY PREDICTED BY IDOCK:   -4.66 KCAL/MOL
REMARK 922        TOTAL FREE ENERGY PREDICTED BY IDOCK:   -7.84 KCAL/MOL
REMARK 923 INTER-LIGAND FREE ENERGY PREDICTED BY IDOCK:   -6.98 KCAL/MOL
REMARK 924 INTRA-LIGAND FREE ENERGY PREDICTED BY IDOCK:   -0.86 KCAL/MOL
REMARK 927      BINDING AFFINITY PREDICTED BY RF-SCORE:    0.00 PKD
ROOT
HETATM    1  C   UNL     1      -8.883   4.428  65.318  1.00  0.00    -0.135 C  
HETATM    2  C   UNL     1      -9.402   5.631  66.039  1.00  0.00    -0.134 A  
HETATM    3  N   UNL     1     -10.607   5.566  66.610  1.00  0.00    -0.300 NA 
HETATM    4  C   UNL     1     -11.002   6.689  67.246  1.00  0.00    -0.385 A  
HETATM    5  C   UNL     1     -10.274   7.869  67.339  1.00  0.00    -0.251 A  
HETATM    6  C   UNL     1      -7.929   8.848  66.778  1.00  0.00    -0.107 C  
HETATM    7  C   UNL     1      -9.024   7.825  66.734  1.00  0.00    -0.139 A  
HETATM    8  N   UNL     1      -8.600   6.707  66.080  1.00  0.00    -0.141 NA 
ENDROOT
BRANCH   5   9
HETATM    9  O   UNL     1     -10.932   8.834  68.039  1.00  0.00    -0.054 OA 
BRANCH   9  10
HETATM   10  C   UNL     1     -10.291  10.090  68.233  1.00  0.00    -0.193 C  
BRANCH  10  11
HETATM   11  C   UNL     1     -11.116  10.948  69.204  1.00  0.00    -0.301 C  
HETATM   12  C   UNL     1     -11.362  10.393  70.628  1.00  0.00    -0.411 C  
HETATM   13  C   UNL     1     -12.448  10.324  69.581  1.00  0.00     0.127 C  
BRANCH  11  14
HETATM   14  C   UNL     1     -10.999  12.494  69.058  1.00  0.00    -0.237 A  
HETATM   15  C   UNL     1      -9.990  13.111  68.278  1.00  0.00    -0.236 A  
HETATM   16  F   UNL     1     -12.744  15.553  70.073  1.00  0.00    -0.376 F  
HETATM   17  C   UNL     1      -9.917  14.499  68.091  1.00  0.00    -0.220 A  
HETATM   18  C   UNL     1     -11.911  13.379  69.665  1.00  0.00    -0.386 A  
HETATM   19  C   UNL     1     -11.839  14.761  69.481  1.00  0.00    -0.326 A  
HETATM   20  C   UNL     1     -10.854  15.331  68.693  1.00  0.00    -0.253 A  
ENDBRANCH  11  14
BRANCH  12  21
HETATM   21  C   UNL     1     -10.630   9.170  71.097  1.00  0.00    -0.309 C  
HETATM   22  N   UNL     1     -11.328   8.005  70.874  1.00  0.00    -0.275 N  
HETATM   23  H   UNL     1     -12.179   8.060  70.315  1.00  0.00     0.000 HD 
HETATM   24  O   UNL     1      -9.527   9.289  71.611  1.00  0.00    -0.294 OA 
BRANCH  22  25
HETATM   25  C   UNL     1     -10.948   6.747  71.363  1.00  0.00    -0.242 A  
HETATM   26  N   UNL     1     -11.355   6.343  72.582  1.00  0.00    -0.254 NA 
HETATM   27  C   UNL     1     -10.962   5.121  73.011  1.00  0.00    -0.294 A  
HETATM   28  C   UNL     1     -10.171   4.272  72.263  1.00  0.00    -0.175 A  
HETATM   29  C   UNL     1      -9.768   4.679  71.003  1.00  0.00    -0.258 A  
HETATM   30  F   UNL     1      -9.797   3.081  72.744  1.00  0.00    -0.149 F  
HETATM   31  C   UNL     1     -10.170   5.933  70.538  1.00  0.00    -0.271 A  
ENDBRANCH  22  25
ENDBRANCH  12  21
ENDBRANCH  10  11
ENDBRANCH   9  10
ENDBRANCH   5   9
TORSDOF 6
ENDMDL
MODEL      134
REMARK 921   NORMALIZED FREE ENERGY PREDICTED BY IDOCK:   -4.62 KCAL/MOL
REMARK 922        TOTAL FREE ENERGY PREDICTED BY IDOCK:   -7.78 KCAL/MOL
REMARK 923 INTER-LIGAND FREE ENERGY PREDICTED BY IDOCK:   -6.92 KCAL/MOL
REMARK 924 INTRA-LIGAND FREE ENERGY PREDICTED BY IDOCK:   -0.86 KCAL/MOL
REMARK 927      BINDING AFFINITY PREDICTED BY RF-SCORE:    0.00 PKD
ROOT
HETATM    1  C   UNL     1     -12.630  12.925  63.241  1.00  0.00    -0.185 C  
HETATM    2  C   UNL     1     -11.635  13.014  64.354  1.00  0.00    -0.369 A  
HETATM    3  N   UNL     1     -11.330  11.905  65.032  1.00  0.00    -0.302 NA 
HETATM    4  C   UNL     1     -10.421  12.066  66.016  1.00  0.00    -0.249 A  
HETATM    5  C   UNL     1      -9.807  13.261  66.369  1.00  0.00    -0.281 A  
HETATM    6  C   UNL     1      -9.599  15.734  65.587  1.00  0.00    -0.299 C  
HETATM    7  C   UNL     1     -10.174  14.350  65.587  1.00  0.00    -0.350 A  
HETATM    8  N   UNL     1     -11.093  14.220  64.590  1.00  0.00    -0.379 NA 
ENDROOT
BRANCH   5   9
HETATM    9  O   UNL     1      -8.937  13.116  67.406  1.00  0.00    -0.182 OA 
BRANCH   9  10
HETATM   10  C   UNL     1      -7.807  12.268  67.232  1.00  0.00    -0.171 C  
BRANCH  10  11
HETATM   11  C   UNL     1      -7.315  11.775  68.601  1.00  0.00    -0.115 C  
HETATM   12  C   UNL     1      -6.604  12.795  69.523  1.00  0.00    -0.031 C  
HETATM   13  C   UNL     1      -5.803  11.782  68.739  1.00  0.00    -0.047 C  
BRANCH  11  14
HETATM   14  C   UNL     1      -8.150  10.657  69.294  1.00  0.00    -0.133 A  
HETATM   15  C   UNL     1      -7.556   9.638  70.078  1.00  0.00    -0.151 A  
HETATM   16  F   UNL     1     -11.639   9.652  69.784  1.00  0.00    -0.223 F  
HETATM   17  C   UNL     1      -8.306   8.667  70.756  1.00  0.00    -0.172 A  
HETATM   18  C   UNL     1      -9.555  10.608  69.213  1.00  0.00    -0.164 A  
HETATM   19  C   UNL     1     -10.304   9.640  69.886  1.00  0.00    -0.249 A  
HETATM   20  C   UNL     1      -9.693   8.672  70.665  1.00  0.00    -0.221 A  
ENDBRANCH  11  14
BRANCH  12  21
HETATM   21  C   UNL     1      -6.602  14.254  69.173  1.00  0.00    -0.114 C  
HETATM   22  N   UNL     1      -7.792  14.881  69.471  1.00  0.00    -0.360 N  
HETATM   23  H   UNL     1      -8.486  14.356  70.001  1.00  0.00     0.000 HD 
HETATM   24  O   UNL     1      -5.602  14.754  68.680  1.00  0.00    -0.085 OA 
BRANCH  22  25
HETATM   25  C   UNL     1      -8.112  16.193  69.094  1.00  0.00    -0.230 A  
HETATM   26  N   UNL     1      -7.138  17.112  68.947  1.00  0.00    -0.232 NA 
HETATM   27  C   UNL     1      -7.497  18.365  68.583  1.00  0.00    -0.296 A  
HETATM   28  C   UNL     1      -8.804  18.745  68.353  1.00  0.00    -0.342 A  
HETATM   29  C   UNL     1      -9.803  17.795  68.486  1.00  0.00    -0.355 A  
HETATM   30  F   UNL     1      -9.103  20.003  68.012  1.00  0.00    -0.378 F  
HETATM   31  C   UNL     1      -9.453  16.494  68.853  1.00  0.00    -0.260 A  
ENDBRANCH  22  25
ENDBRANCH  12  21
ENDBRANCH  10  11
ENDBRANCH   9  10
ENDBRANCH   5   9
TORSDOF 6
ENDMDL
MODEL      135
REMARK 921   NORMALIZED FREE ENERGY PREDICTED BY IDOCK:   -4.60 KCAL/MOL
REMARK 922        TOTAL FREE ENERGY PREDICTED BY IDOCK:   -7.76 KCAL/MOL
REMARK 923 INTER-LIGAND FREE ENERGY PREDICTED BY IDOCK:   -6.90 KCAL/MOL
REMARK 924 INTRA-LIGAND FREE ENERGY PREDICTED BY IDOCK:   -0.86 KCAL/MOL
REMARK 927      BINDING AFFINITY PREDICTED BY RF-SCORE:    0.00 PKD
ROOT
HETATM    1  C   UNL     1     -12.320  14.842  70.354  1.00  0.00    -0.402 C  
HETATM    2  C   UNL     1     -12.122  13.360  70.366  1.00  0.00    -0.333 A  
HETATM    3  N   UNL     1     -12.704  12.643  71.331  1.00  0.00    -0.315 NA 
HETATM    4  C   UNL     1     -12.484  11.314  71.271  1.00  0.00    -0.336 A  
HETATM    5  C   UNL     1     -11.714  10.659  70.317  1.00  0.00    -0.344 A  
HETATM    6  C   UNL     1     -10.434  11.110  68.097  1.00  0.00    -0.215 C  
HETATM    7  C   UNL     1     -11.173  11.491  69.344  1.00  0.00    -0.259 A  
HETATM    8  N   UNL     1     -11.374  12.838  69.381  1.00  0.00    -0.234 NA 
ENDROOT
BRANCH   5   9
HETATM    9  O   UNL     1     -11.668   9.313  70.516  1.00  0.00    -0.257 OA 
BRANCH   9  10
HETATM   10  C   UNL     1     -10.423   8.718  70.859  1.00  0.00    -0.221 C  
BRANCH  10  11
HETATM   11  C   UNL     1     -10.521   7.192  70.714  1.00  0.00    -0.227 C  
HETATM   12  C   UNL     1      -9.911   6.547  69.446  1.00  0.00    -0.161 C  
HETATM   13  C   UNL     1     -11.403   6.749  69.561  1.00  0.00    -0.292 C  
BRANCH  11  14
HETATM   14  C   UNL     1     -10.479   6.351  72.024  1.00  0.00    -0.236 A  
HETATM   15  C   UNL     1     -10.207   6.926  73.290  1.00  0.00    -0.286 A  
HETATM   16  F   UNL     1     -11.036   2.918  73.180  1.00  0.00    -0.250 F  
HETATM   17  C   UNL     1     -10.231   6.187  74.481  1.00  0.00    -0.318 A  
HETATM   18  C   UNL     1     -10.742   4.967  72.039  1.00  0.00    -0.205 A  
HETATM   19  C   UNL     1     -10.764   4.229  73.225  1.00  0.00    -0.220 A  
HETATM   20  C   UNL     1     -10.519   4.827  74.449  1.00  0.00    -0.331 A  
ENDBRANCH  11  14
BRANCH  12  21
HETATM   21  C   UNL     1      -9.066   7.367  68.515  1.00  0.00    -0.136 C  
HETATM   22  N   UNL     1      -9.571   7.422  67.235  1.00  0.00    -0.143 N  
HETATM   23  H   UNL     1     -10.500   7.033  67.074  1.00  0.00     0.000 HD 
HETATM   24  O   UNL     1      -8.049   7.899  68.936  1.00  0.00    -0.121 OA 
BRANCH  22  25
HETATM   25  C   UNL     1      -8.896   7.978  66.140  1.00  0.00    -0.166 A  
HETATM   26  N   UNL     1      -7.982   7.251  65.468  1.00  0.00    -0.115 NA 
HETATM   27  C   UNL     1      -7.356   7.832  64.417  1.00  0.00    -0.088 A  
HETATM   28  C   UNL     1      -7.609   9.123  64.002  1.00  0.00    -0.113 A  
HETATM   29  C   UNL     1      -8.561   9.864  64.681  1.00  0.00    -0.195 A  
HETATM   30  F   UNL     1      -6.947   9.653  62.967  1.00  0.00    -0.098 F  
HETATM   31  C   UNL     1      -9.225   9.281  65.762  1.00  0.00    -0.283 A  
ENDBRANCH  22  25
ENDBRANCH  12  21
ENDBRANCH  10  11
ENDBRANCH   9  10
ENDBRANCH   5   9
TORSDOF 6
ENDMDL
MODEL      136
REMARK 921   NORMALIZED FREE ENERGY PREDICTED BY IDOCK:   -4.58 KCAL/MOL
REMARK 922        TOTAL FREE ENERGY PREDICTED BY IDOCK:   -7.73 KCAL/MOL
REMARK 923 INTER-LIGAND FREE ENERGY PREDICTED BY IDOCK:   -6.66 KCAL/MOL
REMARK 924 INTRA-LIGAND FREE ENERGY PREDICTED BY IDOCK:   -1.08 KCAL/MOL
REMARK 927      BINDING AFFINITY PREDICTED BY RF-SCORE:    0.00 PKD
ROOT
HETATM    1  C   UNL     1      -9.539   5.954  66.353  1.00  0.00    -0.173 C  
HETATM    2  C   UNL     1      -9.355   7.437  66.316  1.00  0.00    -0.111 A  
HETATM    3  N   UNL     1     -10.400   8.220  66.594  1.00  0.00    -0.286 NA 
HETATM    4  C   UNL     1     -10.153   9.546  66.546  1.00  0.00    -0.256 A  
HETATM    5  C   UNL     1      -8.935  10.135  66.231  1.00  0.00    -0.148 A  
HETATM    6  C   UNL     1      -6.449   9.516  65.773  1.00  0.00    -0.074 C  
HETATM    7  C   UNL     1      -7.906   9.234  65.984  1.00  0.00    -0.102 A  
HETATM    8  N   UNL     1      -8.126   7.890  66.020  1.00  0.00    -0.106 NA 
ENDROOT
BRANCH   5   9
HETATM    9  O   UNL     1      -8.990  11.495  66.257  1.00  0.00    -0.193 OA 
BRANCH   9  10
HETATM   10  C   UNL     1     -10.261  12.122  66.377  1.00  0.00    -0.220 C  
BRANCH  10  11
HETATM   11  C   UNL     1     -10.192  13.236  67.433  1.00  0.00    -0.229 C  
HETATM   12  C   UNL     1     -10.839  12.964  68.813  1.00  0.00    -0.277 C  
HETATM   13  C   UNL     1     -11.548  13.818  67.789  1.00  0.00    -0.381 C  
BRANCH  11  14
HETATM   14  C   UNL     1      -8.937  14.157  67.410  1.00  0.00    -0.205 A  
HETATM   15  C   UNL     1      -8.890  15.362  66.666  1.00  0.00    -0.330 A  
HETATM   16  F   UNL     1      -5.607  14.408  68.919  1.00  0.00    -0.082 F  
HETATM   17  C   UNL     1      -7.787  16.228  66.692  1.00  0.00    -0.310 A  
HETATM   18  C   UNL     1      -7.777  13.868  68.155  1.00  0.00    -0.142 A  
HETATM   19  C   UNL     1      -6.677  14.728  68.179  1.00  0.00    -0.129 A  
HETATM   20  C   UNL     1      -6.673  15.911  67.460  1.00  0.00    -0.215 A  
ENDBRANCH  11  14
BRANCH  12  21
HETATM   21  C   UNL     1     -11.313  11.584  69.164  1.00  0.00    -0.286 C  
HETATM   22  N   UNL     1     -10.410  10.883  69.932  1.00  0.00    -0.418 N  
HETATM   23  H   UNL     1      -9.599  11.387  70.291  1.00  0.00     0.000 HD 
HETATM   24  O   UNL     1     -12.404  11.203  68.768  1.00  0.00    -0.539 OA 
BRANCH  22  25
HETATM   25  C   UNL     1     -10.531   9.525  70.255  1.00  0.00    -0.268 A  
HETATM   26  N   UNL     1     -11.748   8.953  70.337  1.00  0.00    -0.115 NA 
HETATM   27  C   UNL     1     -11.813   7.638  70.652  1.00  0.00    -0.147 A  
HETATM   28  C   UNL     1     -10.700   6.858  70.891  1.00  0.00    -0.230 A  
HETATM   29  C   UNL     1      -9.448   7.441  70.789  1.00  0.00    -0.167 A  
HETATM   30  F   UNL     1     -10.824   5.567  71.217  1.00  0.00    -0.301 F  
HETATM   31  C   UNL     1      -9.358   8.794  70.456  1.00  0.00    -0.219 A  
ENDBRANCH  22  25
ENDBRANCH  12  21
ENDBRANCH  10  11
ENDBRANCH   9  10
ENDBRANCH   5   9
TORSDOF 6
ENDMDL
MODEL      137
REMARK 921   NORMALIZED FREE ENERGY PREDICTED BY IDOCK:   -4.58 KCAL/MOL
REMARK 922        TOTAL FREE ENERGY PREDICTED BY IDOCK:   -7.73 KCAL/MOL
REMARK 923 INTER-LIGAND FREE ENERGY PREDICTED BY IDOCK:   -6.99 KCAL/MOL
REMARK 924 INTRA-LIGAND FREE ENERGY PREDICTED BY IDOCK:   -0.74 KCAL/MOL
REMARK 927      BINDING AFFINITY PREDICTED BY RF-SCORE:    0.00 PKD
ROOT
HETATM    1  C   UNL     1     -12.843  11.825  63.534  1.00  0.00    -0.347 C  
HETATM    2  C   UNL     1     -12.262  12.661  64.628  1.00  0.00    -0.452 A  
HETATM    3  N   UNL     1     -12.107  12.118  65.838  1.00  0.00    -0.571 NA 
HETATM    4  C   UNL     1     -11.571  12.933  66.770  1.00  0.00    -0.360 A  
HETATM    5  C   UNL     1     -11.190  14.255  66.572  1.00  0.00    -0.332 A  
HETATM    6  C   UNL     1     -10.926  16.019  64.677  1.00  0.00    -0.297 C  
HETATM    7  C   UNL     1     -11.368  14.717  65.273  1.00  0.00    -0.363 A  
HETATM    8  N   UNL     1     -11.911  13.919  64.312  1.00  0.00    -0.443 NA 
ENDROOT
BRANCH   5   9
HETATM    9  O   UNL     1     -10.686  14.828  67.699  1.00  0.00    -0.262 OA 
BRANCH   9  10
HETATM   10  C   UNL     1      -9.654  14.149  68.404  1.00  0.00    -0.225 C  
BRANCH  10  11
HETATM   11  C   UNL     1      -8.340  14.935  68.285  1.00  0.00    -0.148 C  
HETATM   12  C   UNL     1      -7.076  14.166  67.830  1.00  0.00    -0.185 C  
HETATM   13  C   UNL     1      -7.284  14.505  69.287  1.00  0.00    -0.131 C  
BRANCH  11  14
HETATM   14  C   UNL     1      -8.445  16.432  67.866  1.00  0.00    -0.171 A  
HETATM   15  C   UNL     1      -7.978  16.907  66.617  1.00  0.00    -0.300 A  
HETATM   16  F   UNL     1      -9.782  19.610  69.108  1.00  0.00    -0.438 F  
HETATM   17  C   UNL     1      -8.127  18.240  66.207  1.00  0.00    -0.254 A  
HETATM   18  C   UNL     1      -9.043  17.404  68.691  1.00  0.00    -0.261 A  
HETATM   19  C   UNL     1      -9.191  18.732  68.286  1.00  0.00    -0.331 A  
HETATM   20  C   UNL     1      -8.745  19.160  67.047  1.00  0.00    -0.313 A  
ENDBRANCH  11  14
BRANCH  12  21
HETATM   21  C   UNL     1      -7.194  12.761  67.315  1.00  0.00    -0.082 C  
HETATM   22  N   UNL     1      -5.994  12.085  67.312  1.00  0.00    -0.133 N  
HETATM   23  H   UNL     1      -5.196  12.531  67.763  1.00  0.00     0.000 HD 
HETATM   24  O   UNL     1      -8.285  12.340  66.959  1.00  0.00    -0.177 OA 
BRANCH  22  25
HETATM   25  C   UNL     1      -5.796  10.826  66.729  1.00  0.00    -0.075 A  
HETATM   26  N   UNL     1      -6.001   9.706  67.450  1.00  0.00    -0.048 NA 
HETATM   27  C   UNL     1      -5.796   8.514  66.844  1.00  0.00    -0.049 A  
HETATM   28  C   UNL     1      -5.391   8.389  65.530  1.00  0.00    -0.035 A  
HETATM   29  C   UNL     1      -5.197   9.539  64.784  1.00  0.00    -0.050 A  
HETATM   30  F   UNL     1      -5.185   7.184  64.987  1.00  0.00    -0.025 F  
HETATM   31  C   UNL     1      -5.412  10.780  65.388  1.00  0.00    -0.133 A  
ENDBRANCH  22  25
ENDBRANCH  12  21
ENDBRANCH  10  11
ENDBRANCH   9  10
ENDBRANCH   5   9
TORSDOF 6
ENDMDL
MODEL      138
REMARK 921   NORMALIZED FREE ENERGY PREDICTED BY IDOCK:   -4.54 KCAL/MOL
REMARK 922        TOTAL FREE ENERGY PREDICTED BY IDOCK:   -7.68 KCAL/MOL
REMARK 923 INTER-LIGAND FREE ENERGY PREDICTED BY IDOCK:   -6.55 KCAL/MOL
REMARK 924 INTRA-LIGAND FREE ENERGY PREDICTED BY IDOCK:   -1.14 KCAL/MOL
REMARK 927      BINDING AFFINITY PREDICTED BY RF-SCORE:    0.00 PKD
ROOT
HETATM    1  C   UNL     1     -12.038   7.915  72.254  1.00  0.00    -0.363 C  
HETATM    2  C   UNL     1     -11.149   8.335  71.127  1.00  0.00    -0.250 A  
HETATM    3  N   UNL     1     -10.258   9.306  71.341  1.00  0.00    -0.324 NA 
HETATM    4  C   UNL     1      -9.489   9.624  70.279  1.00  0.00    -0.248 A  
HETATM    5  C   UNL     1      -9.560   9.040  69.020  1.00  0.00    -0.160 A  
HETATM    6  C   UNL     1     -10.733   7.089  67.760  1.00  0.00    -0.300 C  
HETATM    7  C   UNL     1     -10.501   8.024  68.908  1.00  0.00    -0.191 A  
HETATM    8  N   UNL     1     -11.296   7.684  69.962  1.00  0.00    -0.138 NA 
ENDROOT
BRANCH   5   9
HETATM    9  O   UNL     1      -8.661   9.571  68.146  1.00  0.00    -0.120 OA 
BRANCH   9  10
HETATM   10  C   UNL     1      -8.898  10.878  67.636  1.00  0.00    -0.133 C  
BRANCH  10  11
HETATM   11  C   UNL     1      -9.312  10.791  66.160  1.00  0.00    -0.209 C  
HETATM   12  C   UNL     1     -10.071  11.995  65.550  1.00  0.00    -0.281 C  
HETATM   13  C   UNL     1     -10.816  10.745  65.954  1.00  0.00    -0.077 C  
BRANCH  11  14
HETATM   14  C   UNL     1      -8.376   9.990  65.207  1.00  0.00    -0.157 A  
HETATM   15  C   UNL     1      -8.672   8.672  64.780  1.00  0.00    -0.099 A  
HETATM   16  F   UNL     1      -5.275  10.415  63.302  1.00  0.00    -0.093 F  
HETATM   17  C   UNL     1      -7.866   7.969  63.872  1.00  0.00    -0.142 A  
HETATM   18  C   UNL     1      -7.190  10.537  64.682  1.00  0.00     0.068 A  
HETATM   19  C   UNL     1      -6.385   9.837  63.780  1.00  0.00    -0.118 A  
HETATM   20  C   UNL     1      -6.716   8.560  63.363  1.00  0.00    -0.089 A  
ENDBRANCH  11  14
BRANCH  12  21
HETATM   21  C   UNL     1     -10.192  13.277  66.320  1.00  0.00    -0.296 C  
HETATM   22  N   UNL     1      -9.334  14.257  65.874  1.00  0.00    -0.524 N  
HETATM   23  H   UNL     1      -8.815  14.079  65.014  1.00  0.00     0.000 HD 
HETATM   24  O   UNL     1     -10.999  13.356  67.235  1.00  0.00    -0.266 OA 
BRANCH  22  25
HETATM   25  C   UNL     1      -9.128  15.484  66.519  1.00  0.00    -0.302 A  
HETATM   26  N   UNL     1      -9.357  16.640  65.867  1.00  0.00    -0.505 NA 
HETATM   27  C   UNL     1      -9.143  17.799  66.533  1.00  0.00    -0.264 A  
HETATM   28  C   UNL     1      -8.706  17.854  67.841  1.00  0.00    -0.252 A  
HETATM   29  C   UNL     1      -8.488  16.666  68.518  1.00  0.00    -0.233 A  
HETATM   30  F   UNL     1      -8.493  19.028  68.445  1.00  0.00    -0.322 F  
HETATM   31  C   UNL     1      -8.711  15.459  67.851  1.00  0.00    -0.160 A  
ENDBRANCH  22  25
ENDBRANCH  12  21
ENDBRANCH  10  11
ENDBRANCH   9  10
ENDBRANCH   5   9
TORSDOF 6
ENDMDL
MODEL      139
REMARK 921   NORMALIZED FREE ENERGY PREDICTED BY IDOCK:   -4.52 KCAL/MOL
REMARK 922        TOTAL FREE ENERGY PREDICTED BY IDOCK:   -7.65 KCAL/MOL
REMARK 923 INTER-LIGAND FREE ENERGY PREDICTED BY IDOCK:   -6.51 KCAL/MOL
REMARK 924 INTRA-LIGAND FREE ENERGY PREDICTED BY IDOCK:   -1.14 KCAL/MOL
REMARK 927      BINDING AFFINITY PREDICTED BY RF-SCORE:    0.00 PKD
ROOT
HETATM    1  C   UNL     1      -5.601  13.476  70.830  1.00  0.00    -0.197 C  
HETATM    2  C   UNL     1      -5.911  12.209  70.099  1.00  0.00    -0.162 A  
HETATM    3  N   UNL     1      -5.797  12.192  68.769  1.00  0.00    -0.054 NA 
HETATM    4  C   UNL     1      -6.087  11.012  68.183  1.00  0.00    -0.049 A  
HETATM    5  C   UNL     1      -6.491   9.855  68.839  1.00  0.00    -0.045 A  
HETATM    6  C   UNL     1      -6.794   8.895  71.239  1.00  0.00    -0.090 C  
HETATM    7  C   UNL     1      -6.553   9.970  70.223  1.00  0.00    -0.127 A  
HETATM    8  N   UNL     1      -6.271  11.150  70.843  1.00  0.00    -0.315 NA 
ENDROOT
BRANCH   5   9
HETATM    9  O   UNL     1      -6.719   8.821  67.984  1.00  0.00    -0.066 OA 
BRANCH   9  10
HETATM   10  C   UNL     1      -7.686   8.990  66.955  1.00  0.00    -0.098 C  
BRANCH  10  11
HETATM   11  C   UNL     1      -8.963   8.215  67.312  1.00  0.00    -0.149 C  
HETATM   12  C   UNL     1     -10.322   8.837  66.909  1.00  0.00    -0.344 C  
HETATM   13  C   UNL     1      -9.834   8.920  68.335  1.00  0.00    -0.191 C  
BRANCH  11  14
HETATM   14  C   UNL     1      -8.871   6.660  67.314  1.00  0.00    -0.116 A  
HETATM   15  C   UNL     1      -8.227   5.934  66.282  1.00  0.00    -0.114 A  
HETATM   16  F   UNL     1      -9.759   3.795  69.419  1.00  0.00    -0.243 F  
HETATM   17  C   UNL     1      -8.084   4.539  66.309  1.00  0.00    -0.103 A  
HETATM   18  C   UNL     1      -9.394   5.876  68.361  1.00  0.00    -0.124 A  
HETATM   19  C   UNL     1      -9.255   4.487  68.389  1.00  0.00    -0.133 A  
HETATM   20  C   UNL     1      -8.598   3.810  67.376  1.00  0.00    -0.112 A  
ENDBRANCH  11  14
BRANCH  12  21
HETATM   21  C   UNL     1     -10.364  10.039  66.011  1.00  0.00    -0.152 C  
HETATM   22  N   UNL     1     -10.840  11.167  66.641  1.00  0.00    -0.268 N  
HETATM   23  H   UNL     1     -10.987  11.122  67.649  1.00  0.00     0.000 HD 
HETATM   24  O   UNL     1      -9.991   9.937  64.851  1.00  0.00    -0.306 OA 
BRANCH  22  25
HETATM   25  C   UNL     1     -11.136  12.372  65.990  1.00  0.00    -0.308 A  
HETATM   26  N   UNL     1     -12.398  12.642  65.603  1.00  0.00    -0.630 NA 
HETATM   27  C   UNL     1     -12.633  13.819  64.978  1.00  0.00    -0.389 A  
HETATM   28  C   UNL     1     -11.650  14.754  64.722  1.00  0.00    -0.418 A  
HETATM   29  C   UNL     1     -10.356  14.485  65.136  1.00  0.00    -0.438 A  
HETATM   30  F   UNL     1     -11.936  15.893  64.084  1.00  0.00    -0.477 F  
HETATM   31  C   UNL     1     -10.094  13.280  65.791  1.00  0.00    -0.293 A  
ENDBRANCH  22  25
ENDBRANCH  12  21
ENDBRANCH  10  11
ENDBRANCH   9  10
ENDBRANCH   5   9
TORSDOF 6
ENDMDL
MODEL      140
REMARK 921   NORMALIZED FREE ENERGY PREDICTED BY IDOCK:   -4.49 KCAL/MOL
REMARK 922        TOTAL FREE ENERGY PREDICTED BY IDOCK:   -7.62 KCAL/MOL
REMARK 923 INTER-LIGAND FREE ENERGY PREDICTED BY IDOCK:   -6.47 KCAL/MOL
REMARK 924 INTRA-LIGAND FREE ENERGY PREDICTED BY IDOCK:   -1.15 KCAL/MOL
REMARK 927      BINDING AFFINITY PREDICTED BY RF-SCORE:    0.00 PKD
ROOT
HETATM    1  C   UNL     1     -12.164   8.195  72.680  1.00  0.00    -0.270 C  
HETATM    2  C   UNL     1     -11.228   8.277  71.517  1.00  0.00    -0.262 A  
HETATM    3  N   UNL     1     -10.223   9.155  71.563  1.00  0.00    -0.341 NA 
HETATM    4  C   UNL     1      -9.419   9.165  70.481  1.00  0.00    -0.242 A  
HETATM    5  C   UNL     1      -9.559   8.361  69.356  1.00  0.00    -0.170 A  
HETATM    6  C   UNL     1     -10.963   6.359  68.465  1.00  0.00    -0.396 C  
HETATM    7  C   UNL     1     -10.619   7.464  69.417  1.00  0.00    -0.226 A  
HETATM    8  N   UNL     1     -11.452   7.435  70.496  1.00  0.00    -0.277 NA 
ENDROOT
BRANCH   5   9
HETATM    9  O   UNL     1      -8.599   8.599  68.420  1.00  0.00    -0.133 OA 
BRANCH   9  10
HETATM   10  C   UNL     1      -8.614   9.843  67.731  1.00  0.00    -0.121 C  
BRANCH  10  11
HETATM   11  C   UNL     1      -8.893   9.606  66.239  1.00  0.00    -0.172 C  
HETATM   12  C   UNL     1      -9.996  10.460  65.567  1.00  0.00    -0.348 C  
HETATM   13  C   UNL     1     -10.271   9.030  65.965  1.00  0.00    -0.013 C  
BRANCH  11  14
HETATM   14  C   UNL     1      -7.686   9.183  65.351  1.00  0.00    -0.098 A  
HETATM   15  C   UNL     1      -6.519   9.975  65.225  1.00  0.00    -0.112 A  
HETATM   16  F   UNL     1      -6.586   6.389  63.250  1.00  0.00    -0.033 F  
HETATM   17  C   UNL     1      -5.403   9.570  64.478  1.00  0.00    -0.059 A  
HETATM   18  C   UNL     1      -7.665   7.967  64.640  1.00  0.00    -0.126 A  
HETATM   19  C   UNL     1      -6.555   7.564  63.893  1.00  0.00    -0.053 A  
HETATM   20  C   UNL     1      -5.419   8.350  63.811  1.00  0.00    -0.061 A  
ENDBRANCH  11  14
BRANCH  12  21
HETATM   21  C   UNL     1     -10.602  11.621  66.299  1.00  0.00    -0.258 C  
HETATM   22  N   UNL     1      -9.839  12.765  66.223  1.00  0.00    -0.264 N  
HETATM   23  H   UNL     1      -9.037  12.760  65.593  1.00  0.00     0.000 HD 
HETATM   24  O   UNL     1     -11.670  11.477  66.876  1.00  0.00    -0.533 OA 
BRANCH  22  25
HETATM   25  C   UNL     1     -10.091  13.935  66.951  1.00  0.00    -0.260 A  
HETATM   26  N   UNL     1     -10.059  13.915  68.298  1.00  0.00    -0.235 NA 
HETATM   27  C   UNL     1     -10.309  15.071  68.957  1.00  0.00    -0.243 A  
HETATM   28  C   UNL     1     -10.591  16.263  68.321  1.00  0.00    -0.300 A  
HETATM   29  C   UNL     1     -10.606  16.288  66.937  1.00  0.00    -0.270 A  
HETATM   30  F   UNL     1     -10.849  17.371  69.023  1.00  0.00    -0.286 F  
HETATM   31  C   UNL     1     -10.341  15.108  66.237  1.00  0.00    -0.303 A  
ENDBRANCH  22  25
ENDBRANCH  12  21
ENDBRANCH  10  11
ENDBRANCH   9  10
ENDBRANCH   5   9
TORSDOF 6
ENDMDL
MODEL      141
REMARK 921   NORMALIZED FREE ENERGY PREDICTED BY IDOCK:   -4.48 KCAL/MOL
REMARK 922        TOTAL FREE ENERGY PREDICTED BY IDOCK:   -7.60 KCAL/MOL
REMARK 923 INTER-LIGAND FREE ENERGY PREDICTED BY IDOCK:   -5.99 KCAL/MOL
REMARK 924 INTRA-LIGAND FREE ENERGY PREDICTED BY IDOCK:   -1.62 KCAL/MOL
REMARK 927      BINDING AFFINITY PREDICTED BY RF-SCORE:    0.00 PKD
ROOT
HETATM    1  C   UNL     1      -9.841  10.136  64.581  1.00  0.00    -0.361 C  
HETATM    2  C   UNL     1      -9.307   9.222  65.637  1.00  0.00    -0.244 A  
HETATM    3  N   UNL     1      -7.990   9.201  65.861  1.00  0.00    -0.104 NA 
HETATM    4  C   UNL     1      -7.586   8.357  66.832  1.00  0.00    -0.091 A  
HETATM    5  C   UNL     1      -8.411   7.529  67.585  1.00  0.00    -0.118 A  
HETATM    6  C   UNL     1     -10.929   7.029  68.007  1.00  0.00    -0.185 C  
HETATM    7  C   UNL     1      -9.764   7.645  67.293  1.00  0.00    -0.169 A  
HETATM    8  N   UNL     1     -10.202   8.485  66.314  1.00  0.00    -0.145 NA 
ENDROOT
BRANCH   5   9
HETATM    9  O   UNL     1      -7.717   6.783  68.488  1.00  0.00    -0.108 OA 
BRANCH   9  10
HETATM   10  C   UNL     1      -7.013   7.454  69.527  1.00  0.00    -0.057 C  
BRANCH  10  11
HETATM   11  C   UNL     1      -7.902   7.552  70.776  1.00  0.00    -0.098 C  
HETATM   12  C   UNL     1      -8.589   8.908  71.068  1.00  0.00    -0.255 C  
HETATM   13  C   UNL     1      -7.356   8.493  71.834  1.00  0.00    -0.119 C  
BRANCH  11  14
HETATM   14  C   UNL     1      -8.667   6.265  71.204  1.00  0.00    -0.128 A  
HETATM   15  C   UNL     1      -8.073   4.979  71.170  1.00  0.00    -0.109 A  
HETATM   16  F   UNL     1     -11.904   5.249  72.590  1.00  0.00    -0.320 F  
HETATM   17  C   UNL     1      -8.734   3.825  71.614  1.00  0.00    -0.130 A  
HETATM   18  C   UNL     1      -9.990   6.301  71.686  1.00  0.00    -0.202 A  
HETATM   19  C   UNL     1     -10.650   5.152  72.127  1.00  0.00    -0.211 A  
HETATM   20  C   UNL     1     -10.033   3.914  72.103  1.00  0.00    -0.243 A  
ENDBRANCH  11  14
BRANCH  12  21
HETATM   21  C   UNL     1      -8.558  10.005  70.044  1.00  0.00    -0.090 C  
HETATM   22  N   UNL     1      -9.814  10.417  69.657  1.00  0.00    -0.377 N  
HETATM   23  H   UNL     1     -10.614  10.054  70.175  1.00  0.00     0.000 HD 
HETATM   24  O   UNL     1      -7.482  10.431  69.651  1.00  0.00    -0.136 OA 
BRANCH  22  25
HETATM   25  C   UNL     1     -10.066  11.303  68.601  1.00  0.00    -0.208 A  
HETATM   26  N   UNL     1      -9.064  12.035  68.076  1.00  0.00    -0.182 NA 
HETATM   27  C   UNL     1      -9.358  12.877  67.057  1.00  0.00    -0.235 A  
HETATM   28  C   UNL     1     -10.626  13.020  66.532  1.00  0.00    -0.282 A  
HETATM   29  C   UNL     1     -11.653  12.255  67.059  1.00  0.00    -0.418 A  
HETATM   30  F   UNL     1     -10.864  13.881  65.536  1.00  0.00    -0.285 F  
HETATM   31  C   UNL     1     -11.369  11.373  68.104  1.00  0.00    -0.374 A  
ENDBRANCH  22  25
ENDBRANCH  12  21
ENDBRANCH  10  11
ENDBRANCH   9  10
ENDBRANCH   5   9
TORSDOF 6
ENDMDL
MODEL      142
REMARK 921   NORMALIZED FREE ENERGY PREDICTED BY IDOCK:   -4.46 KCAL/MOL
REMARK 922        TOTAL FREE ENERGY PREDICTED BY IDOCK:   -7.57 KCAL/MOL
REMARK 923 INTER-LIGAND FREE ENERGY PREDICTED BY IDOCK:   -7.00 KCAL/MOL
REMARK 924 INTRA-LIGAND FREE ENERGY PREDICTED BY IDOCK:   -0.57 KCAL/MOL
REMARK 927      BINDING AFFINITY PREDICTED BY RF-SCORE:    0.00 PKD
ROOT
HETATM    1  C   UNL     1     -10.929   5.732  72.399  1.00  0.00    -0.308 C  
HETATM    2  C   UNL     1     -10.874   7.098  71.794  1.00  0.00    -0.225 A  
HETATM    3  N   UNL     1     -12.011   7.785  71.655  1.00  0.00    -0.286 NA 
HETATM    4  C   UNL     1     -11.878   9.011  71.108  1.00  0.00    -0.301 A  
HETATM    5  C   UNL     1     -10.687   9.588  70.685  1.00  0.00    -0.309 A  
HETATM    6  C   UNL     1      -8.118   9.170  70.709  1.00  0.00    -0.207 C  
HETATM    7  C   UNL     1      -9.560   8.803  70.896  1.00  0.00    -0.221 A  
HETATM    8  N   UNL     1      -9.663   7.559  71.443  1.00  0.00    -0.167 NA 
ENDROOT
BRANCH   5   9
HETATM    9  O   UNL     1     -10.865  10.834  70.167  1.00  0.00    -0.234 OA 
BRANCH   9  10
HETATM   10  C   UNL     1      -9.925  11.316  69.214  1.00  0.00     0.049 C  
BRANCH  10  11
HETATM   11  C   UNL     1     -10.530  11.236  67.804  1.00  0.00    -0.218 C  
HETATM   12  C   UNL     1     -11.119  12.533  67.197  1.00  0.00    -0.321 C  
HETATM   13  C   UNL     1     -12.029  11.474  67.774  1.00  0.00    -0.100 C  
BRANCH  11  14
HETATM   14  C   UNL     1      -9.887  10.221  66.813  1.00  0.00    -0.246 A  
HETATM   15  C   UNL     1      -9.605  10.548  65.464  1.00  0.00    -0.282 A  
HETATM   16  F   UNL     1      -8.535   6.815  66.762  1.00  0.00    -0.110 F  
HETATM   17  C   UNL     1      -8.969   9.660  64.584  1.00  0.00    -0.274 A  
HETATM   18  C   UNL     1      -9.513   8.921  67.205  1.00  0.00    -0.195 A  
HETATM   19  C   UNL     1      -8.881   8.035  66.329  1.00  0.00    -0.162 A  
HETATM   20  C   UNL     1      -8.597   8.394  65.023  1.00  0.00    -0.133 A  
ENDBRANCH  11  14
BRANCH  12  21
HETATM   21  C   UNL     1     -10.900  13.851  67.879  1.00  0.00    -0.244 C  
HETATM   22  N   UNL     1     -10.472  14.838  67.021  1.00  0.00    -0.267 N  
HETATM   23  H   UNL     1     -10.471  14.632  66.022  1.00  0.00     0.000 HD 
HETATM   24  O   UNL     1     -11.109  13.950  69.080  1.00  0.00    -0.254 OA 
BRANCH  22  25
HETATM   25  C   UNL     1     -10.037  16.108  67.426  1.00  0.00    -0.257 A  
HETATM   26  N   UNL     1      -8.949  16.232  68.211  1.00  0.00    -0.188 NA 
HETATM   27  C   UNL     1      -8.568  17.479  68.576  1.00  0.00    -0.276 A  
HETATM   28  C   UNL     1      -9.235  18.622  68.185  1.00  0.00    -0.313 A  
HETATM   29  C   UNL     1     -10.342  18.496  67.363  1.00  0.00    -0.432 A  
HETATM   30  F   UNL     1      -8.825  19.829  68.591  1.00  0.00    -0.371 F  
HETATM   31  C   UNL     1     -10.746  17.219  66.967  1.00  0.00    -0.152 A  
ENDBRANCH  22  25
ENDBRANCH  12  21
ENDBRANCH  10  11
ENDBRANCH   9  10
ENDBRANCH   5   9
TORSDOF 6
ENDMDL
MODEL      143
REMARK 921   NORMALIZED FREE ENERGY PREDICTED BY IDOCK:   -4.45 KCAL/MOL
REMARK 922        TOTAL FREE ENERGY PREDICTED BY IDOCK:   -7.57 KCAL/MOL
REMARK 923 INTER-LIGAND FREE ENERGY PREDICTED BY IDOCK:   -6.21 KCAL/MOL
REMARK 924 INTRA-LIGAND FREE ENERGY PREDICTED BY IDOCK:   -1.36 KCAL/MOL
REMARK 927      BINDING AFFINITY PREDICTED BY RF-SCORE:    0.00 PKD
ROOT
HETATM    1  C   UNL     1      -6.213  12.674  69.790  1.00  0.00    -0.111 C  
HETATM    2  C   UNL     1      -6.568  11.228  69.659  1.00  0.00    -0.136 A  
HETATM    3  N   UNL     1      -6.757  10.722  68.437  1.00  0.00    -0.058 NA 
HETATM    4  C   UNL     1      -7.068   9.410  68.401  1.00  0.00    -0.072 A  
HETATM    5  C   UNL     1      -7.210   8.577  69.504  1.00  0.00    -0.060 A  
HETATM    6  C   UNL     1      -6.877   8.567  72.085  1.00  0.00    -0.093 C  
HETATM    7  C   UNL     1      -6.967   9.193  70.726  1.00  0.00    -0.097 A  
HETATM    8  N   UNL     1      -6.656  10.518  70.795  1.00  0.00    -0.341 NA 
ENDROOT
BRANCH   5   9
HETATM    9  O   UNL     1      -7.534   7.301  69.157  1.00  0.00    -0.089 OA 
BRANCH   9  10
HETATM   10  C   UNL     1      -8.685   7.087  68.350  1.00  0.00    -0.125 C  
BRANCH  10  11
HETATM   11  C   UNL     1      -9.184   5.646  68.530  1.00  0.00    -0.131 C  
HETATM   12  C   UNL     1     -10.001   5.318  69.804  1.00  0.00    -0.306 C  
HETATM   13  C   UNL     1      -8.546   4.927  69.705  1.00  0.00    -0.102 C  
BRANCH  11  14
HETATM   14  C   UNL     1      -9.540   4.852  67.238  1.00  0.00    -0.173 A  
HETATM   15  C   UNL     1     -10.588   5.244  66.369  1.00  0.00    -0.338 A  
HETATM   16  F   UNL     1      -8.378   1.967  65.301  1.00  0.00    -0.079 F  
HETATM   17  C   UNL     1     -10.873   4.571  65.171  1.00  0.00    -0.078 A  
HETATM   18  C   UNL     1      -8.822   3.711  66.833  1.00  0.00    -0.140 A  
HETATM   19  C   UNL     1      -9.106   3.038  65.643  1.00  0.00    -0.149 A  
HETATM   20  C   UNL     1     -10.121   3.462  64.802  1.00  0.00    -0.037 A  
ENDBRANCH  11  14
BRANCH  12  21
HETATM   21  C   UNL     1     -10.468   6.424  70.704  1.00  0.00    -0.219 C  
HETATM   22  N   UNL     1     -11.583   7.076  70.225  1.00  0.00    -0.475 N  
HETATM   23  H   UNL     1     -12.050   6.681  69.408  1.00  0.00     0.000 HD 
HETATM   24  O   UNL     1      -9.862   6.653  71.741  1.00  0.00    -0.163 OA 
BRANCH  22  25
HETATM   25  C   UNL     1     -12.119   8.244  70.783  1.00  0.00    -0.058 A  
HETATM   26  N   UNL     1     -13.101   8.167  71.701  1.00  0.00    -0.338 NA 
HETATM   27  C   UNL     1     -13.587   9.324  72.211  1.00  0.00    -0.480 A  
HETATM   28  C   UNL     1     -13.126  10.571  71.839  1.00  0.00    -0.462 A  
HETATM   29  C   UNL     1     -12.104  10.649  70.909  1.00  0.00    -0.489 A  
HETATM   30  F   UNL     1     -13.655  11.682  72.362  1.00  0.00    -0.536 F  
HETATM   31  C   UNL     1     -11.582   9.468  70.377  1.00  0.00    -0.268 A  
ENDBRANCH  22  25
ENDBRANCH  12  21
ENDBRANCH  10  11
ENDBRANCH   9  10
ENDBRANCH   5   9
TORSDOF 6
ENDMDL
MODEL      144
REMARK 921   NORMALIZED FREE ENERGY PREDICTED BY IDOCK:   -4.45 KCAL/MOL
REMARK 922        TOTAL FREE ENERGY PREDICTED BY IDOCK:   -7.56 KCAL/MOL
REMARK 923 INTER-LIGAND FREE ENERGY PREDICTED BY IDOCK:   -6.35 KCAL/MOL
REMARK 924 INTRA-LIGAND FREE ENERGY PREDICTED BY IDOCK:   -1.21 KCAL/MOL
REMARK 927      BINDING AFFINITY PREDICTED BY RF-SCORE:    0.00 PKD
ROOT
HETATM    1  C   UNL     1      -9.473  10.095  63.728  1.00  0.00    -0.330 C  
HETATM    2  C   UNL     1      -9.319   9.225  64.933  1.00  0.00    -0.073 A  
HETATM    3  N   UNL     1     -10.114   9.438  65.985  1.00  0.00    -0.283 NA 
HETATM    4  C   UNL     1      -9.918   8.608  67.030  1.00  0.00    -0.249 A  
HETATM    5  C   UNL     1      -8.976   7.588  67.094  1.00  0.00    -0.126 A  
HETATM    6  C   UNL     1      -7.234   6.351  65.609  1.00  0.00    -0.074 C  
HETATM    7  C   UNL     1      -8.216   7.433  65.941  1.00  0.00    -0.134 A  
HETATM    8  N   UNL     1      -8.388   8.259  64.871  1.00  0.00    -0.156 NA 
ENDROOT
BRANCH   5   9
HETATM    9  O   UNL     1      -9.007   6.921  68.280  1.00  0.00    -0.125 OA 
BRANCH   9  10
HETATM   10  C   UNL     1     -10.211   6.939  69.039  1.00  0.00    -0.181 C  
BRANCH  10  11
HETATM   11  C   UNL     1      -9.884   7.153  70.524  1.00  0.00    -0.181 C  
HETATM   12  C   UNL     1     -10.145   8.555  71.126  1.00  0.00    -0.263 C  
HETATM   13  C   UNL     1      -8.744   8.128  70.759  1.00  0.00    -0.145 C  
BRANCH  11  14
HETATM   14  C   UNL     1     -10.065   5.931  71.473  1.00  0.00    -0.238 A  
HETATM   15  C   UNL     1     -10.693   6.037  72.739  1.00  0.00    -0.269 A  
HETATM   16  F   UNL     1      -9.457   2.319  71.552  1.00  0.00    -0.150 F  
HETATM   17  C   UNL     1     -10.917   4.930  73.571  1.00  0.00    -0.397 A  
HETATM   18  C   UNL     1      -9.645   4.634  71.120  1.00  0.00    -0.238 A  
HETATM   19  C   UNL     1      -9.865   3.532  71.948  1.00  0.00    -0.167 A  
HETATM   20  C   UNL     1     -10.505   3.665  73.168  1.00  0.00    -0.259 A  
ENDBRANCH  11  14
BRANCH  12  21
HETATM   21  C   UNL     1     -10.895   9.587  70.336  1.00  0.00    -0.282 C  
HETATM   22  N   UNL     1     -10.095  10.619  69.899  1.00  0.00    -0.427 N  
HETATM   23  H   UNL     1      -9.088  10.527  70.029  1.00  0.00     0.000 HD 
HETATM   24  O   UNL     1     -12.094   9.443  70.144  1.00  0.00     0.022 OA 
BRANCH  22  25
HETATM   25  C   UNL     1     -10.572  11.787  69.288  1.00  0.00    -0.008 A  
HETATM   26  N   UNL     1     -10.188  12.100  68.035  1.00  0.00    -0.195 NA 
HETATM   27  C   UNL     1     -10.675  13.239  67.487  1.00  0.00    -0.250 A  
HETATM   28  C   UNL     1     -11.542  14.088  68.145  1.00  0.00    -0.334 A  
HETATM   29  C   UNL     1     -11.950  13.756  69.426  1.00  0.00    -0.397 A  
HETATM   30  F   UNL     1     -11.977  15.210  67.562  1.00  0.00    -0.344 F  
HETATM   31  C   UNL     1     -11.467  12.581  70.006  1.00  0.00    -0.095 A  
ENDBRANCH  22  25
ENDBRANCH  12  21
ENDBRANCH  10  11
ENDBRANCH   9  10
ENDBRANCH   5   9
TORSDOF 6
ENDMDL
MODEL      145
REMARK 921   NORMALIZED FREE ENERGY PREDICTED BY IDOCK:   -4.44 KCAL/MOL
REMARK 922        TOTAL FREE ENERGY PREDICTED BY IDOCK:   -7.54 KCAL/MOL
REMARK 923 INTER-LIGAND FREE ENERGY PREDICTED BY IDOCK:   -6.64 KCAL/MOL
REMARK 924 INTRA-LIGAND FREE ENERGY PREDICTED BY IDOCK:   -0.90 KCAL/MOL
REMARK 927      BINDING AFFINITY PREDICTED BY RF-SCORE:    0.00 PKD
ROOT
HETATM    1  C   UNL     1      -5.738   9.676  70.870  1.00  0.00    -0.071 C  
HETATM    2  C   UNL     1      -6.025  11.075  70.427  1.00  0.00    -0.141 A  
HETATM    3  N   UNL     1      -6.667  11.263  69.271  1.00  0.00    -0.099 NA 
HETATM    4  C   UNL     1      -6.894  12.552  68.943  1.00  0.00    -0.098 A  
HETATM    5  C   UNL     1      -6.512  13.660  69.690  1.00  0.00    -0.083 A  
HETATM    6  C   UNL     1      -5.474  14.286  71.993  1.00  0.00    -0.182 C  
HETATM    7  C   UNL     1      -5.874  13.357  70.886  1.00  0.00    -0.127 A  
HETATM    8  N   UNL     1      -5.626  12.065  71.242  1.00  0.00    -0.382 NA 
ENDROOT
BRANCH   5   9
HETATM    9  O   UNL     1      -6.873  14.835  69.103  1.00  0.00    -0.114 OA 
BRANCH   9  10
HETATM   10  C   UNL     1      -8.231  15.249  69.187  1.00  0.00    -0.234 C  
BRANCH  10  11
HETATM   11  C   UNL     1      -8.654  15.910  67.867  1.00  0.00    -0.164 C  
HETATM   12  C   UNL     1      -9.464  15.059  66.860  1.00  0.00    -0.252 C  
HETATM   13  C   UNL     1      -7.990  15.302  66.645  1.00  0.00     0.007 C  
BRANCH  11  14
HETATM   14  C   UNL     1      -8.955  17.438  67.904  1.00  0.00    -0.251 A  
HETATM   15  C   UNL     1      -9.959  17.996  68.733  1.00  0.00    -0.380 A  
HETATM   16  F   UNL     1      -7.720  20.582  66.483  1.00  0.00    -0.302 F  
HETATM   17  C   UNL     1     -10.193  19.376  68.819  1.00  0.00    -0.417 A  
HETATM   18  C   UNL     1      -8.224  18.368  67.140  1.00  0.00    -0.248 A  
HETATM   19  C   UNL     1      -8.457  19.743  67.223  1.00  0.00    -0.317 A  
HETATM   20  C   UNL     1      -9.430  20.258  68.062  1.00  0.00    -0.337 A  
ENDBRANCH  11  14
BRANCH  12  21
HETATM   21  C   UNL     1      -9.999  13.717  67.266  1.00  0.00    -0.240 C  
HETATM   22  N   UNL     1      -9.254  12.668  66.774  1.00  0.00    -0.223 N  
HETATM   23  H   UNL     1      -8.371  12.887  66.313  1.00  0.00     0.000 HD 
HETATM   24  O   UNL     1     -10.998  13.654  67.967  1.00  0.00    -0.240 OA 
BRANCH  22  25
HETATM   25  C   UNL     1      -9.627  11.320  66.865  1.00  0.00    -0.191 A  
HETATM   26  N   UNL     1     -10.228  10.857  67.979  1.00  0.00    -0.173 NA 
HETATM   27  C   UNL     1     -10.569   9.547  68.019  1.00  0.00    -0.230 A  
HETATM   28  C   UNL     1     -10.335   8.669  66.980  1.00  0.00    -0.298 A  
HETATM   29  C   UNL     1      -9.734   9.149  65.829  1.00  0.00    -0.299 A  
HETATM   30  F   UNL     1     -10.676   7.380  67.082  1.00  0.00    -0.329 F  
HETATM   31  C   UNL     1      -9.382  10.499  65.763  1.00  0.00    -0.229 A  
ENDBRANCH  22  25
ENDBRANCH  12  21
ENDBRANCH  10  11
ENDBRANCH   9  10
ENDBRANCH   5   9
TORSDOF 6
ENDMDL
MODEL      146
REMARK 921   NORMALIZED FREE ENERGY PREDICTED BY IDOCK:   -4.41 KCAL/MOL
REMARK 922        TOTAL FREE ENERGY PREDICTED BY IDOCK:   -7.51 KCAL/MOL
REMARK 923 INTER-LIGAND FREE ENERGY PREDICTED BY IDOCK:   -6.47 KCAL/MOL
REMARK 924 INTRA-LIGAND FREE ENERGY PREDICTED BY IDOCK:   -1.04 KCAL/MOL
REMARK 927      BINDING AFFINITY PREDICTED BY RF-SCORE:    0.00 PKD
ROOT
HETATM    1  C   UNL     1      -5.442  16.632  67.179  1.00  0.00    -0.170 C  
HETATM    2  C   UNL     1      -6.246  15.474  67.675  1.00  0.00    -0.149 A  
HETATM    3  N   UNL     1      -7.294  15.065  66.956  1.00  0.00    -0.123 NA 
HETATM    4  C   UNL     1      -7.965  14.012  67.466  1.00  0.00    -0.187 A  
HETATM    5  C   UNL     1      -7.660  13.349  68.649  1.00  0.00    -0.101 A  
HETATM    6  C   UNL     1      -5.842  13.268  70.509  1.00  0.00    -0.154 C  
HETATM    7  C   UNL     1      -6.538  13.835  69.309  1.00  0.00    -0.113 A  
HETATM    8  N   UNL     1      -5.843  14.901  68.821  1.00  0.00    -0.083 NA 
ENDROOT
BRANCH   5   9
HETATM    9  O   UNL     1      -8.519  12.326  68.911  1.00  0.00     0.051 OA 
BRANCH   9  10
HETATM   10  C   UNL     1      -9.483  11.977  67.925  1.00  0.00    -0.196 C  
BRANCH  10  11
HETATM   11  C   UNL     1     -10.884  11.954  68.554  1.00  0.00    -0.257 C  
HETATM   12  C   UNL     1     -11.357  10.636  69.214  1.00  0.00    -0.346 C  
HETATM   13  C   UNL     1     -11.852  11.027  67.842  1.00  0.00    -0.085 C  
BRANCH  11  14
HETATM   14  C   UNL     1     -11.402  13.283  69.179  1.00  0.00    -0.336 A  
HETATM   15  C   UNL     1     -11.252  14.536  68.535  1.00  0.00    -0.285 A  
HETATM   16  F   UNL     1     -13.252  14.479  72.107  1.00  0.00    -0.349 F  
HETATM   17  C   UNL     1     -11.772  15.728  69.061  1.00  0.00    -0.405 A  
HETATM   18  C   UNL     1     -12.083  13.321  70.411  1.00  0.00    -0.401 A  
HETATM   19  C   UNL     1     -12.599  14.507  70.937  1.00  0.00    -0.344 A  
HETATM   20  C   UNL     1     -12.458  15.711  70.270  1.00  0.00    -0.369 A  
ENDBRANCH  11  14
BRANCH  12  21
HETATM   21  C   UNL     1     -10.391   9.507  69.420  1.00  0.00    -0.214 C  
HETATM   22  N   UNL     1     -10.662   8.414  68.627  1.00  0.00    -0.414 N  
HETATM   23  H   UNL     1     -11.379   8.514  67.908  1.00  0.00     0.000 HD 
HETATM   24  O   UNL     1      -9.482   9.632  70.227  1.00  0.00    -0.242 OA 
BRANCH  22  25
HETATM   25  C   UNL     1     -10.020   7.173  68.741  1.00  0.00    -0.163 A  
HETATM   26  N   UNL     1      -8.868   6.943  68.081  1.00  0.00    -0.125 NA 
HETATM   27  C   UNL     1      -8.286   5.729  68.223  1.00  0.00    -0.107 A  
HETATM   28  C   UNL     1      -8.810   4.722  69.008  1.00  0.00    -0.093 A  
HETATM   29  C   UNL     1      -9.984   4.965  69.701  1.00  0.00    -0.302 A  
HETATM   30  F   UNL     1      -8.202   3.534  69.097  1.00  0.00    -0.060 F  
HETATM   31  C   UNL     1     -10.596   6.214  69.576  1.00  0.00    -0.350 A  
ENDBRANCH  22  25
ENDBRANCH  12  21
ENDBRANCH  10  11
ENDBRANCH   9  10
ENDBRANCH   5   9
TORSDOF 6
ENDMDL
MODEL      147
REMARK 921   NORMALIZED FREE ENERGY PREDICTED BY IDOCK:   -4.41 KCAL/MOL
REMARK 922        TOTAL FREE ENERGY PREDICTED BY IDOCK:   -7.50 KCAL/MOL
REMARK 923 INTER-LIGAND FREE ENERGY PREDICTED BY IDOCK:   -7.17 KCAL/MOL
REMARK 924 INTRA-LIGAND FREE ENERGY PREDICTED BY IDOCK:   -0.33 KCAL/MOL
REMARK 927      BINDING AFFINITY PREDICTED BY RF-SCORE:    0.00 PKD
ROOT
HETATM    1  C   UNL     1      -5.741   9.643  70.840  1.00  0.00    -0.071 C  
HETATM    2  C   UNL     1      -6.116  10.989  70.306  1.00  0.00    -0.144 A  
HETATM    3  N   UNL     1      -6.861  11.055  69.201  1.00  0.00    -0.084 NA 
HETATM    4  C   UNL     1      -7.163  12.303  68.786  1.00  0.00    -0.098 A  
HETATM    5  C   UNL     1      -6.761  13.483  69.399  1.00  0.00    -0.051 A  
HETATM    6  C   UNL     1      -5.553  14.339  71.539  1.00  0.00    -0.200 C  
HETATM    7  C   UNL     1      -6.011  13.305  70.555  1.00  0.00    -0.110 A  
HETATM    8  N   UNL     1      -5.686  12.058  70.996  1.00  0.00    -0.372 NA 
ENDROOT
BRANCH   5   9
HETATM    9  O   UNL     1      -7.213  14.590  68.748  1.00  0.00    -0.112 OA 
BRANCH   9  10
HETATM   10  C   UNL     1      -8.502  15.094  69.078  1.00  0.00    -0.214 C  
BRANCH  10  11
HETATM   11  C   UNL     1      -9.081  15.863  67.881  1.00  0.00    -0.190 C  
HETATM   12  C   UNL     1     -10.580  15.664  67.551  1.00  0.00    -0.297 C  
HETATM   13  C   UNL     1      -9.517  14.964  66.738  1.00  0.00    -0.269 C  
BRANCH  11  14
HETATM   14  C   UNL     1      -8.470  17.262  67.576  1.00  0.00    -0.210 A  
HETATM   15  C   UNL     1      -8.494  18.324  68.513  1.00  0.00    -0.325 A  
HETATM   16  F   UNL     1      -6.609  19.004  64.942  1.00  0.00    -0.297 F  
HETATM   17  C   UNL     1      -7.889  19.567  68.270  1.00  0.00    -0.362 A  
HETATM   18  C   UNL     1      -7.823  17.553  66.359  1.00  0.00    -0.329 A  
HETATM   19  C   UNL     1      -7.223  18.790  66.114  1.00  0.00    -0.263 A  
HETATM   20  C   UNL     1      -7.243  19.799  67.061  1.00  0.00    -0.242 A  
ENDBRANCH  11  14
BRANCH  12  21
HETATM   21  C   UNL     1     -11.469  14.921  68.504  1.00  0.00    -0.315 C  
HETATM   22  N   UNL     1     -10.879  13.790  69.023  1.00  0.00    -0.326 N  
HETATM   23  H   UNL     1      -9.890  13.638  68.827  1.00  0.00     0.000 HD 
HETATM   24  O   UNL     1     -12.589  15.350  68.742  1.00  0.00     0.155 OA 
BRANCH  22  25
HETATM   25  C   UNL     1     -11.546  12.834  69.801  1.00  0.00    -0.218 A  
HETATM   26  N   UNL     1     -12.267  13.216  70.873  1.00  0.00    -0.320 NA 
HETATM   27  C   UNL     1     -12.892  12.255  71.593  1.00  0.00    -0.273 A  
HETATM   28  C   UNL     1     -12.831  10.912  71.284  1.00  0.00    -0.433 A  
HETATM   29  C   UNL     1     -12.105  10.521  70.171  1.00  0.00    -0.380 A  
HETATM   30  F   UNL     1     -13.454  10.003  72.042  1.00  0.00    -0.445 F  
HETATM   31  C   UNL     1     -11.459  11.497  69.409  1.00  0.00    -0.376 A  
ENDBRANCH  22  25
ENDBRANCH  12  21
ENDBRANCH  10  11
ENDBRANCH   9  10
ENDBRANCH   5   9
TORSDOF 6
ENDMDL
MODEL      148
REMARK 921   NORMALIZED FREE ENERGY PREDICTED BY IDOCK:   -4.39 KCAL/MOL
REMARK 922        TOTAL FREE ENERGY PREDICTED BY IDOCK:   -7.48 KCAL/MOL
REMARK 923 INTER-LIGAND FREE ENERGY PREDICTED BY IDOCK:   -5.88 KCAL/MOL
REMARK 924 INTRA-LIGAND FREE ENERGY PREDICTED BY IDOCK:   -1.60 KCAL/MOL
REMARK 927      BINDING AFFINITY PREDICTED BY RF-SCORE:    0.00 PKD
ROOT
HETATM    1  C   UNL     1     -14.158   8.809  72.589  1.00  0.00    -0.323 C  
HETATM    2  C   UNL     1     -13.117   9.104  71.557  1.00  0.00    -0.349 A  
HETATM    3  N   UNL     1     -13.016  10.349  71.085  1.00  0.00    -0.391 NA 
HETATM    4  C   UNL     1     -12.050  10.536  70.163  1.00  0.00    -0.300 A  
HETATM    5  C   UNL     1     -11.188   9.560  69.678  1.00  0.00    -0.108 A  
HETATM    6  C   UNL     1     -10.511   7.080  70.082  1.00  0.00    -0.232 C  
HETATM    7  C   UNL     1     -11.357   8.306  70.251  1.00  0.00    -0.129 A  
HETATM    8  N   UNL     1     -12.328   8.084  71.182  1.00  0.00    -0.264 NA 
ENDROOT
BRANCH   5   9
HETATM    9  O   UNL     1     -10.320  10.044  68.748  1.00  0.00    -0.180 OA 
BRANCH   9  10
HETATM   10  C   UNL     1     -10.546   9.731  67.378  1.00  0.00    -0.267 C  
BRANCH  10  11
HETATM   11  C   UNL     1      -9.204   9.465  66.680  1.00  0.00    -0.193 C  
HETATM   12  C   UNL     1      -8.472  10.670  66.040  1.00  0.00    -0.165 C  
HETATM   13  C   UNL     1      -9.245   9.699  65.180  1.00  0.00    -0.305 C  
BRANCH  11  14
HETATM   14  C   UNL     1      -8.315   8.326  67.261  1.00  0.00    -0.124 A  
HETATM   15  C   UNL     1      -7.413   8.535  68.332  1.00  0.00    -0.095 A  
HETATM   16  F   UNL     1      -7.733   4.730  66.854  1.00  0.00    -0.087 F  
HETATM   17  C   UNL     1      -6.657   7.501  68.903  1.00  0.00    -0.048 A  
HETATM   18  C   UNL     1      -8.376   7.003  66.779  1.00  0.00    -0.116 A  
HETATM   19  C   UNL     1      -7.623   5.972  67.344  1.00  0.00    -0.093 A  
HETATM   20  C   UNL     1      -6.768   6.206  68.408  1.00  0.00    -0.064 A  
ENDBRANCH  11  14
BRANCH  12  21
HETATM   21  C   UNL     1      -8.956  12.067  66.295  1.00  0.00    -0.129 C  
HETATM   22  N   UNL     1      -8.735  12.487  67.588  1.00  0.00    -0.166 N  
HETATM   23  H   UNL     1      -8.168  11.891  68.191  1.00  0.00     0.000 HD 
HETATM   24  O   UNL     1      -9.478  12.698  65.388  1.00  0.00    -0.045 OA 
BRANCH  22  25
HETATM   25  C   UNL     1      -9.237  13.678  68.131  1.00  0.00    -0.204 A  
HETATM   26  N   UNL     1      -8.398  14.578  68.679  1.00  0.00    -0.162 NA 
HETATM   27  C   UNL     1      -8.930  15.713  69.191  1.00  0.00    -0.257 A  
HETATM   28  C   UNL     1     -10.281  15.993  69.176  1.00  0.00    -0.242 A  
HETATM   29  C   UNL     1     -11.142  15.076  68.596  1.00  0.00    -0.272 A  
HETATM   30  F   UNL     1     -10.755  17.123  69.713  1.00  0.00    -0.315 F  
HETATM   31  C   UNL     1     -10.612  13.903  68.054  1.00  0.00    -0.252 A  
ENDBRANCH  22  25
ENDBRANCH  12  21
ENDBRANCH  10  11
ENDBRANCH   9  10
ENDBRANCH   5   9
TORSDOF 6
ENDMDL
MODEL      149
REMARK 921   NORMALIZED FREE ENERGY PREDICTED BY IDOCK:   -4.38 KCAL/MOL
REMARK 922        TOTAL FREE ENERGY PREDICTED BY IDOCK:   -7.46 KCAL/MOL
REMARK 923 INTER-LIGAND FREE ENERGY PREDICTED BY IDOCK:   -6.14 KCAL/MOL
REMARK 924 INTRA-LIGAND FREE ENERGY PREDICTED BY IDOCK:   -1.32 KCAL/MOL
REMARK 927      BINDING AFFINITY PREDICTED BY RF-SCORE:    0.00 PKD
ROOT
HETATM    1  C   UNL     1     -13.901   9.080  72.611  1.00  0.00    -0.414 C  
HETATM    2  C   UNL     1     -12.873   9.278  71.544  1.00  0.00    -0.354 A  
HETATM    3  N   UNL     1     -12.205   8.214  71.091  1.00  0.00    -0.278 NA 
HETATM    4  C   UNL     1     -11.300   8.473  70.124  1.00  0.00    -0.069 A  
HETATM    5  C   UNL     1     -11.016   9.725  69.591  1.00  0.00    -0.241 A  
HETATM    6  C   UNL     1     -11.850  12.188  69.661  1.00  0.00    -0.391 C  
HETATM    7  C   UNL     1     -11.782  10.760  70.111  1.00  0.00    -0.339 A  
HETATM    8  N   UNL     1     -12.701  10.530  71.091  1.00  0.00    -0.383 NA 
ENDROOT
BRANCH   5   9
HETATM    9  O   UNL     1     -10.050   9.677  68.632  1.00  0.00    -0.167 OA 
BRANCH   9  10
HETATM   10  C   UNL     1      -9.032  10.670  68.642  1.00  0.00    -0.170 C  
BRANCH  10  11
HETATM   11  C   UNL     1      -8.472  10.852  67.223  1.00  0.00    -0.125 C  
HETATM   12  C   UNL     1      -7.263   9.979  66.807  1.00  0.00    -0.091 C  
HETATM   13  C   UNL     1      -7.067  11.425  67.196  1.00  0.00    -0.134 C  
BRANCH  11  14
HETATM   14  C   UNL     1      -9.486  11.236  66.105  1.00  0.00    -0.232 A  
HETATM   15  C   UNL     1     -10.717  11.879  66.381  1.00  0.00    -0.303 A  
HETATM   16  F   UNL     1      -9.807  11.156  62.455  1.00  0.00    -0.254 F  
HETATM   17  C   UNL     1     -11.605  12.285  65.374  1.00  0.00    -0.412 A  
HETATM   18  C   UNL     1      -9.228  10.996  64.741  1.00  0.00    -0.198 A  
HETATM   19  C   UNL     1     -10.113  11.397  63.737  1.00  0.00    -0.362 A  
HETATM   20  C   UNL     1     -11.297  12.047  64.040  1.00  0.00    -0.478 A  
ENDBRANCH  11  14
BRANCH  12  21
HETATM   21  C   UNL     1      -6.811   8.850  67.686  1.00  0.00    -0.070 C  
HETATM   22  N   UNL     1      -7.689   7.789  67.694  1.00  0.00    -0.119 N  
HETATM   23  H   UNL     1      -8.463   7.806  67.030  1.00  0.00     0.000 HD 
HETATM   24  O   UNL     1      -5.755   8.946  68.294  1.00  0.00    -0.038 OA 
BRANCH  22  25
HETATM   25  C   UNL     1      -7.590   6.686  68.553  1.00  0.00    -0.097 A  
HETATM   26  N   UNL     1      -7.099   5.516  68.100  1.00  0.00    -0.065 NA 
HETATM   27  C   UNL     1      -7.024   4.479  68.968  1.00  0.00    -0.051 A  
HETATM   28  C   UNL     1      -7.420   4.563  70.287  1.00  0.00    -0.050 A  
HETATM   29  C   UNL     1      -7.907   5.770  70.758  1.00  0.00    -0.101 A  
HETATM   30  F   UNL     1      -7.341   3.501  71.096  1.00  0.00    -0.032 F  
HETATM   31  C   UNL     1      -7.985   6.855  69.881  1.00  0.00    -0.120 A  
ENDBRANCH  22  25
ENDBRANCH  12  21
ENDBRANCH  10  11
ENDBRANCH   9  10
ENDBRANCH   5   9
TORSDOF 6
ENDMDL
MODEL      150
REMARK 921   NORMALIZED FREE ENERGY PREDICTED BY IDOCK:   -4.34 KCAL/MOL
REMARK 922        TOTAL FREE ENERGY PREDICTED BY IDOCK:   -7.41 KCAL/MOL
REMARK 923 INTER-LIGAND FREE ENERGY PREDICTED BY IDOCK:   -6.44 KCAL/MOL
REMARK 924 INTRA-LIGAND FREE ENERGY PREDICTED BY IDOCK:   -0.97 KCAL/MOL
REMARK 927      BINDING AFFINITY PREDICTED BY RF-SCORE:    0.00 PKD
ROOT
HETATM    1  C   UNL     1     -10.784   4.134  64.625  1.00  0.00    -0.155 C  
HETATM    2  C   UNL     1     -10.213   4.557  65.941  1.00  0.00    -0.263 A  
HETATM    3  N   UNL     1     -10.895   5.430  66.686  1.00  0.00    -0.231 NA 
HETATM    4  C   UNL     1     -10.318   5.757  67.861  1.00  0.00    -0.214 A  
HETATM    5  C   UNL     1      -9.103   5.275  68.332  1.00  0.00    -0.110 A  
HETATM    6  C   UNL     1      -7.263   3.527  67.757  1.00  0.00    -0.058 C  
HETATM    7  C   UNL     1      -8.485   4.354  67.495  1.00  0.00    -0.103 A  
HETATM    8  N   UNL     1      -9.041   4.007  66.300  1.00  0.00    -0.131 NA 
ENDROOT
BRANCH   5   9
HETATM    9  O   UNL     1      -8.773   5.788  69.548  1.00  0.00    -0.110 OA 
BRANCH   9  10
HETATM   10  C   UNL     1      -8.613   7.197  69.672  1.00  0.00    -0.137 C  
BRANCH  10  11
HETATM   11  C   UNL     1      -9.257   7.679  70.980  1.00  0.00    -0.152 C  
HETATM   12  C   UNL     1     -10.076   8.992  70.941  1.00  0.00    -0.329 C  
HETATM   13  C   UNL     1      -8.673   8.981  71.499  1.00  0.00    -0.145 C  
BRANCH  11  14
HETATM   14  C   UNL     1      -9.724   6.585  71.986  1.00  0.00    -0.156 A  
HETATM   15  C   UNL     1      -8.840   5.970  72.906  1.00  0.00    -0.122 A  
HETATM   16  F   UNL     1     -12.780   4.868  73.052  1.00  0.00    -0.217 F  
HETATM   17  C   UNL     1      -9.266   5.031  73.857  1.00  0.00    -0.118 A  
HETATM   18  C   UNL     1     -11.064   6.160  72.067  1.00  0.00    -0.322 A  
HETATM   19  C   UNL     1     -11.489   5.223  73.012  1.00  0.00    -0.269 A  
HETATM   20  C   UNL     1     -10.604   4.659  73.914  1.00  0.00    -0.337 A  
ENDBRANCH  11  14
BRANCH  12  21
HETATM   21  C   UNL     1     -10.404   9.636  69.625  1.00  0.00    -0.227 C  
HETATM   22  N   UNL     1      -9.983  10.945  69.546  1.00  0.00    -0.437 N  
HETATM   23  H   UNL     1      -9.394  11.302  70.298  1.00  0.00     0.000 HD 
HETATM   24  O   UNL     1     -10.986   8.990  68.767  1.00  0.00    -0.085 OA 
BRANCH  22  25
HETATM   25  C   UNL     1     -10.307  11.820  68.500  1.00  0.00    -0.217 A  
HETATM   26  N   UNL     1      -9.445  12.008  67.482  1.00  0.00    -0.175 NA 
HETATM   27  C   UNL     1      -9.804  12.863  66.495  1.00  0.00    -0.254 A  
HETATM   28  C   UNL     1     -11.004  13.546  66.480  1.00  0.00    -0.291 A  
HETATM   29  C   UNL     1     -11.898  13.338  67.517  1.00  0.00    -0.403 A  
HETATM   30  F   UNL     1     -11.299  14.393  65.489  1.00  0.00    -0.309 F  
HETATM   31  C   UNL     1     -11.551  12.453  68.540  1.00  0.00    -0.358 A  
ENDBRANCH  22  25
ENDBRANCH  12  21
ENDBRANCH  10  11
ENDBRANCH   9  10
ENDBRANCH   5   9
TORSDOF 6
ENDMDL
MODEL      151
REMARK 921   NORMALIZED FREE ENERGY PREDICTED BY IDOCK:   -4.31 KCAL/MOL
REMARK 922        TOTAL FREE ENERGY PREDICTED BY IDOCK:   -7.37 KCAL/MOL
REMARK 923 INTER-LIGAND FREE ENERGY PREDICTED BY IDOCK:   -6.20 KCAL/MOL
REMARK 924 INTRA-LIGAND FREE ENERGY PREDICTED BY IDOCK:   -1.18 KCAL/MOL
REMARK 927      BINDING AFFINITY PREDICTED BY RF-SCORE:    0.00 PKD
ROOT
HETATM    1  C   UNL     1     -10.203   4.622  72.193  1.00  0.00    -0.259 C  
HETATM    2  C   UNL     1     -10.267   5.971  71.552  1.00  0.00    -0.204 A  
HETATM    3  N   UNL     1     -11.402   6.344  70.955  1.00  0.00    -0.322 NA 
HETATM    4  C   UNL     1     -11.383   7.576  70.405  1.00  0.00    -0.233 A  
HETATM    5  C   UNL     1     -10.303   8.451  70.407  1.00  0.00    -0.205 A  
HETATM    6  C   UNL     1      -7.913   8.709  71.403  1.00  0.00    -0.174 C  
HETATM    7  C   UNL     1      -9.180   7.979  71.075  1.00  0.00    -0.149 A  
HETATM    8  N   UNL     1      -9.167   6.736  71.636  1.00  0.00    -0.145 NA 
ENDROOT
BRANCH   5   9
HETATM    9  O   UNL     1     -10.578   9.622  69.770  1.00  0.00    -0.213 OA 
BRANCH   9  10
HETATM   10  C   UNL     1      -9.520  10.297  69.100  1.00  0.00    -0.215 C  
BRANCH  10  11
HETATM   11  C   UNL     1      -9.493   9.879  67.622  1.00  0.00    -0.167 C  
HETATM   12  C   UNL     1     -10.254  10.767  66.607  1.00  0.00    -0.283 C  
HETATM   13  C   UNL     1     -10.852   9.465  67.085  1.00  0.00    -0.132 C  
BRANCH  11  14
HETATM   14  C   UNL     1      -8.208   9.164  67.111  1.00  0.00    -0.113 A  
HETATM   15  C   UNL     1      -7.414   9.684  66.059  1.00  0.00    -0.099 A  
HETATM   16  F   UNL     1      -6.137   6.234  67.857  1.00  0.00    -0.019 F  
HETATM   17  C   UNL     1      -6.221   9.078  65.637  1.00  0.00    -0.056 A  
HETATM   18  C   UNL     1      -7.734   7.968  67.685  1.00  0.00    -0.110 A  
HETATM   19  C   UNL     1      -6.547   7.363  67.264  1.00  0.00    -0.061 A  
HETATM   20  C   UNL     1      -5.781   7.911  66.250  1.00  0.00    -0.036 A  
ENDBRANCH  11  14
BRANCH  12  21
HETATM   21  C   UNL     1     -10.802  12.098  67.032  1.00  0.00    -0.247 C  
HETATM   22  N   UNL     1      -9.880  13.116  66.937  1.00  0.00    -0.243 N  
HETATM   23  H   UNL     1      -8.991  12.912  66.481  1.00  0.00     0.000 HD 
HETATM   24  O   UNL     1     -11.962  12.179  67.407  1.00  0.00    -0.563 OA 
BRANCH  22  25
HETATM   25  C   UNL     1     -10.080  14.414  67.426  1.00  0.00    -0.243 A  
HETATM   26  N   UNL     1     -10.388  15.416  66.579  1.00  0.00    -0.280 NA 
HETATM   27  C   UNL     1     -10.571  16.653  67.098  1.00  0.00    -0.264 A  
HETATM   28  C   UNL     1     -10.462  16.936  68.445  1.00  0.00    -0.355 A  
HETATM   29  C   UNL     1     -10.163  15.903  69.317  1.00  0.00    -0.250 A  
HETATM   30  F   UNL     1     -10.636  18.181  68.901  1.00  0.00    -0.321 F  
HETATM   31  C   UNL     1      -9.979  14.618  68.803  1.00  0.00    -0.235 A  
ENDBRANCH  22  25
ENDBRANCH  12  21
ENDBRANCH  10  11
ENDBRANCH   9  10
ENDBRANCH   5   9
TORSDOF 6
ENDMDL
MODEL      152
REMARK 921   NORMALIZED FREE ENERGY PREDICTED BY IDOCK:   -4.30 KCAL/MOL
REMARK 922        TOTAL FREE ENERGY PREDICTED BY IDOCK:   -7.35 KCAL/MOL
REMARK 923 INTER-LIGAND FREE ENERGY PREDICTED BY IDOCK:   -5.82 KCAL/MOL
REMARK 924 INTRA-LIGAND FREE ENERGY PREDICTED BY IDOCK:   -1.53 KCAL/MOL
REMARK 927      BINDING AFFINITY PREDICTED BY RF-SCORE:    0.00 PKD
ROOT
HETATM    1  C   UNL     1      -5.994  14.137  70.240  1.00  0.00    -0.158 C  
HETATM    2  C   UNL     1      -6.258  12.762  69.716  1.00  0.00    -0.108 A  
HETATM    3  N   UNL     1      -6.693  12.626  68.461  1.00  0.00    -0.082 NA 
HETATM    4  C   UNL     1      -6.902  11.354  68.061  1.00  0.00    -0.067 A  
HETATM    5  C   UNL     1      -6.711  10.216  68.835  1.00  0.00    -0.053 A  
HETATM    6  C   UNL     1      -5.772   9.479  71.147  1.00  0.00    -0.068 C  
HETATM    7  C   UNL     1      -6.232  10.464  70.115  1.00  0.00    -0.108 A  
HETATM    8  N   UNL     1      -6.017  11.737  70.550  1.00  0.00    -0.281 NA 
ENDROOT
BRANCH   5   9
HETATM    9  O   UNL     1      -7.009   9.071  68.162  1.00  0.00    -0.074 OA 
BRANCH   9  10
HETATM   10  C   UNL     1      -8.374   8.777  67.890  1.00  0.00    -0.118 C  
BRANCH  10  11
HETATM   11  C   UNL     1      -8.695   7.344  68.340  1.00  0.00    -0.123 C  
HETATM   12  C   UNL     1      -9.383   7.155  69.714  1.00  0.00    -0.146 C  
HETATM   13  C   UNL     1      -7.904   6.899  69.556  1.00  0.00    -0.120 C  
BRANCH  11  14
HETATM   14  C   UNL     1      -9.047   6.314  67.226  1.00  0.00    -0.116 A  
HETATM   15  C   UNL     1     -10.303   5.661  67.162  1.00  0.00    -0.301 A  
HETATM   16  F   UNL     1      -7.602   4.851  64.192  1.00  0.00    -0.062 F  
HETATM   17  C   UNL     1     -10.649   4.781  66.126  1.00  0.00    -0.282 A  
HETATM   18  C   UNL     1      -8.149   5.989  66.190  1.00  0.00    -0.110 A  
HETATM   19  C   UNL     1      -8.492   5.111  65.160  1.00  0.00    -0.147 A  
HETATM   20  C   UNL     1      -9.737   4.508  65.112  1.00  0.00    -0.162 A  
ENDBRANCH  11  14
BRANCH  12  21
HETATM   21  C   UNL     1      -9.910   8.344  70.463  1.00  0.00    -0.184 C  
HETATM   22  N   UNL     1     -11.182   8.704  70.078  1.00  0.00    -0.424 N  
HETATM   23  H   UNL     1     -11.682   8.079  69.445  1.00  0.00     0.000 HD 
HETATM   24  O   UNL     1      -9.213   8.876  71.314  1.00  0.00    -0.219 OA 
BRANCH  22  25
HETATM   25  C   UNL     1     -11.836   9.871  70.496  1.00  0.00    -0.270 A  
HETATM   26  N   UNL     1     -11.540  11.055  69.927  1.00  0.00    -0.307 NA 
HETATM   27  C   UNL     1     -12.199  12.154  70.366  1.00  0.00    -0.294 A  
HETATM   28  C   UNL     1     -13.155  12.120  71.360  1.00  0.00    -0.187 A  
HETATM   29  C   UNL     1     -13.473  10.900  71.933  1.00  0.00    -0.306 A  
HETATM   30  F   UNL     1     -13.762  13.240  71.768  1.00  0.00    -0.439 F  
HETATM   31  C   UNL     1     -12.811   9.753  71.488  1.00  0.00    -0.502 A  
ENDBRANCH  22  25
ENDBRANCH  12  21
ENDBRANCH  10  11
ENDBRANCH   9  10
ENDBRANCH   5   9
TORSDOF 6
ENDMDL
MODEL      153
REMARK 921   NORMALIZED FREE ENERGY PREDICTED BY IDOCK:   -4.27 KCAL/MOL
REMARK 922        TOTAL FREE ENERGY PREDICTED BY IDOCK:   -7.32 KCAL/MOL
REMARK 923 INTER-LIGAND FREE ENERGY PREDICTED BY IDOCK:   -6.99 KCAL/MOL
REMARK 924 INTRA-LIGAND FREE ENERGY PREDICTED BY IDOCK:   -0.33 KCAL/MOL
REMARK 927      BINDING AFFINITY PREDICTED BY RF-SCORE:    0.00 PKD
ROOT
HETATM    1  C   UNL     1     -10.678  18.475  67.827  1.00  0.00    -0.378 C  
HETATM    2  C   UNL     1     -10.408  17.025  68.074  1.00  0.00    -0.341 A  
HETATM    3  N   UNL     1      -9.206  16.534  67.762  1.00  0.00    -0.201 NA 
HETATM    4  C   UNL     1      -9.038  15.221  68.020  1.00  0.00    -0.176 A  
HETATM    5  C   UNL     1      -9.994  14.369  68.560  1.00  0.00    -0.237 A  
HETATM    6  C   UNL     1     -12.378  14.408  69.603  1.00  0.00    -0.300 C  
HETATM    7  C   UNL     1     -11.201  14.982  68.873  1.00  0.00    -0.277 A  
HETATM    8  N   UNL     1     -11.402  16.306  68.619  1.00  0.00    -0.361 NA 
ENDROOT
BRANCH   5   9
HETATM    9  O   UNL     1      -9.538  13.094  68.701  1.00  0.00    -0.152 OA 
BRANCH   9  10
HETATM   10  C   UNL     1     -10.342  12.026  68.214  1.00  0.00    -0.204 C  
BRANCH  10  11
HETATM   11  C   UNL     1      -9.951  11.702  66.764  1.00  0.00    -0.229 C  
HETATM   12  C   UNL     1      -9.461  10.267  66.452  1.00  0.00    -0.218 C  
HETATM   13  C   UNL     1      -8.474  11.402  66.588  1.00  0.00    -0.171 C  
BRANCH  11  14
HETATM   14  C   UNL     1     -10.730  12.444  65.638  1.00  0.00    -0.299 A  
HETATM   15  C   UNL     1     -11.592  11.771  64.738  1.00  0.00    -0.241 A  
HETATM   16  F   UNL     1     -11.298  15.839  64.381  1.00  0.00    -0.418 F  
HETATM   17  C   UNL     1     -12.345  12.441  63.762  1.00  0.00    -0.625 A  
HETATM   18  C   UNL     1     -10.653  13.840  65.463  1.00  0.00    -0.312 A  
HETATM   19  C   UNL     1     -11.400  14.508  64.491  1.00  0.00    -0.316 A  
HETATM   20  C   UNL     1     -12.253  13.823  63.643  1.00  0.00    -0.311 A  
ENDBRANCH  11  14
BRANCH  12  21
HETATM   21  C   UNL     1      -9.581   9.188  67.487  1.00  0.00    -0.150 C  
HETATM   22  N   UNL     1      -8.370   8.828  68.034  1.00  0.00    -0.118 N  
HETATM   23  H   UNL     1      -7.554   9.394  67.798  1.00  0.00     0.000 HD 
HETATM   24  O   UNL     1     -10.683   8.733  67.758  1.00  0.00    -0.218 OA 
BRANCH  22  25
HETATM   25  C   UNL     1      -8.181   7.739  68.895  1.00  0.00    -0.127 A  
HETATM   26  N   UNL     1      -7.103   6.943  68.755  1.00  0.00    -0.086 NA 
HETATM   27  C   UNL     1      -6.965   5.903  69.610  1.00  0.00    -0.067 A  
HETATM   28  C   UNL     1      -7.868   5.620  70.615  1.00  0.00    -0.100 A  
HETATM   29  C   UNL     1      -8.967   6.448  70.770  1.00  0.00    -0.144 A  
HETATM   30  F   UNL     1      -7.692   4.567  71.420  1.00  0.00    -0.073 F  
HETATM   31  C   UNL     1      -9.124   7.532  69.904  1.00  0.00    -0.144 A  
ENDBRANCH  22  25
ENDBRANCH  12  21
ENDBRANCH  10  11
ENDBRANCH   9  10
ENDBRANCH   5   9
TORSDOF 6
ENDMDL
MODEL      154
REMARK 921   NORMALIZED FREE ENERGY PREDICTED BY IDOCK:   -4.26 KCAL/MOL
REMARK 922        TOTAL FREE ENERGY PREDICTED BY IDOCK:   -7.30 KCAL/MOL
REMARK 923 INTER-LIGAND FREE ENERGY PREDICTED BY IDOCK:   -6.07 KCAL/MOL
REMARK 924 INTRA-LIGAND FREE ENERGY PREDICTED BY IDOCK:   -1.23 KCAL/MOL
REMARK 927      BINDING AFFINITY PREDICTED BY RF-SCORE:    0.00 PKD
ROOT
HETATM    1  C   UNL     1     -11.352  12.387  66.291  1.00  0.00    -0.388 C  
HETATM    2  C   UNL     1     -10.974  11.499  67.433  1.00  0.00    -0.265 A  
HETATM    3  N   UNL     1     -11.931  11.083  68.267  1.00  0.00    -0.597 NA 
HETATM    4  C   UNL     1     -11.512  10.281  69.267  1.00  0.00    -0.160 A  
HETATM    5  C   UNL     1     -10.201   9.878  69.492  1.00  0.00    -0.225 A  
HETATM    6  C   UNL     1      -7.840   9.981  68.402  1.00  0.00    -0.089 C  
HETATM    7  C   UNL     1      -9.287  10.343  68.555  1.00  0.00    -0.160 A  
HETATM    8  N   UNL     1      -9.679  11.159  67.536  1.00  0.00    -0.175 NA 
ENDROOT
BRANCH   5   9
HETATM    9  O   UNL     1     -10.081   9.073  70.583  1.00  0.00    -0.197 OA 
BRANCH   9  10
HETATM   10  C   UNL     1      -9.383   7.841  70.447  1.00  0.00    -0.160 C  
BRANCH  10  11
HETATM   11  C   UNL     1     -10.312   6.675  70.817  1.00  0.00    -0.232 C  
HETATM   12  C   UNL     1     -10.982   5.891  69.662  1.00  0.00    -0.447 C  
HETATM   13  C   UNL     1     -11.764   6.917  70.447  1.00  0.00    -0.377 C  
BRANCH  11  14
HETATM   14  C   UNL     1      -9.965   5.874  72.106  1.00  0.00    -0.196 A  
HETATM   15  C   UNL     1     -10.958   5.293  72.933  1.00  0.00    -0.343 A  
HETATM   16  F   UNL     1      -7.046   4.682  73.975  1.00  0.00    -0.068 F  
HETATM   17  C   UNL     1     -10.651   4.517  74.060  1.00  0.00    -0.338 A  
HETATM   18  C   UNL     1      -8.637   5.647  72.517  1.00  0.00    -0.124 A  
HETATM   19  C   UNL     1      -8.329   4.877  73.641  1.00  0.00    -0.106 A  
HETATM   20  C   UNL     1      -9.323   4.302  74.413  1.00  0.00    -0.121 A  
ENDBRANCH  11  14
BRANCH  12  21
HETATM   21  C   UNL     1     -10.556   6.130  68.243  1.00  0.00    -0.262 C  
HETATM   22  N   UNL     1      -9.500   5.335  67.855  1.00  0.00    -0.120 N  
HETATM   23  H   UNL     1      -9.203   4.596  68.491  1.00  0.00     0.000 HD 
HETATM   24  O   UNL     1     -11.145   6.963  67.570  1.00  0.00    -0.270 OA 
BRANCH  22  25
HETATM   25  C   UNL     1      -8.806   5.474  66.645  1.00  0.00    -0.117 A  
HETATM   26  N   UNL     1      -9.190   4.773  65.560  1.00  0.00    -0.151 NA 
HETATM   27  C   UNL     1      -8.488   4.941  64.415  1.00  0.00    -0.137 A  
HETATM   28  C   UNL     1      -7.406   5.792  64.304  1.00  0.00    -0.066 A  
HETATM   29  C   UNL     1      -7.024   6.526  65.414  1.00  0.00    -0.052 A  
HETATM   30  F   UNL     1      -6.738   5.905  63.152  1.00  0.00    -0.030 F  
HETATM   31  C   UNL     1      -7.740   6.374  66.603  1.00  0.00    -0.099 A  
ENDBRANCH  22  25
ENDBRANCH  12  21
ENDBRANCH  10  11
ENDBRANCH   9  10
ENDBRANCH   5   9
TORSDOF 6
ENDMDL
MODEL      155
REMARK 921   NORMALIZED FREE ENERGY PREDICTED BY IDOCK:   -4.23 KCAL/MOL
REMARK 922        TOTAL FREE ENERGY PREDICTED BY IDOCK:   -7.26 KCAL/MOL
REMARK 923 INTER-LIGAND FREE ENERGY PREDICTED BY IDOCK:   -6.07 KCAL/MOL
REMARK 924 INTRA-LIGAND FREE ENERGY PREDICTED BY IDOCK:   -1.19 KCAL/MOL
REMARK 927      BINDING AFFINITY PREDICTED BY RF-SCORE:    0.00 PKD
ROOT
HETATM    1  C   UNL     1     -12.230  14.437  63.845  1.00  0.00    -0.178 C  
HETATM    2  C   UNL     1     -11.558  13.209  64.370  1.00  0.00    -0.377 A  
HETATM    3  N   UNL     1     -11.976  12.696  65.530  1.00  0.00    -0.437 NA 
HETATM    4  C   UNL     1     -11.325  11.585  65.933  1.00  0.00    -0.108 A  
HETATM    5  C   UNL     1     -10.282  10.963  65.258  1.00  0.00    -0.288 A  
HETATM    6  C   UNL     1      -8.984  11.070  63.005  1.00  0.00    -0.248 C  
HETATM    7  C   UNL     1      -9.940  11.559  64.051  1.00  0.00    -0.303 A  
HETATM    8  N   UNL     1     -10.576  12.685  63.619  1.00  0.00    -0.400 NA 
ENDROOT
BRANCH   5   9
HETATM    9  O   UNL     1      -9.819   9.862  65.912  1.00  0.00    -0.237 OA 
BRANCH   9  10
HETATM   10  C   UNL     1      -8.511   9.903  66.471  1.00  0.00    -0.125 C  
BRANCH  10  11
HETATM   11  C   UNL     1      -8.554   9.412  67.926  1.00  0.00    -0.120 C  
HETATM   12  C   UNL     1      -8.670  10.476  69.044  1.00  0.00    -0.160 C  
HETATM   13  C   UNL     1      -7.341   9.826  68.740  1.00  0.00    -0.074 C  
BRANCH  11  14
HETATM   14  C   UNL     1      -9.229   8.033  68.189  1.00  0.00    -0.134 A  
HETATM   15  C   UNL     1     -10.318   7.877  69.080  1.00  0.00    -0.225 A  
HETATM   16  F   UNL     1      -9.044   4.552  67.059  1.00  0.00    -0.113 F  
HETATM   17  C   UNL     1     -10.972   6.651  69.274  1.00  0.00    -0.346 A  
HETATM   18  C   UNL     1      -8.820   6.857  67.531  1.00  0.00    -0.118 A  
HETATM   19  C   UNL     1      -9.468   5.635  67.724  1.00  0.00    -0.115 A  
HETATM   20  C   UNL     1     -10.547   5.521  68.584  1.00  0.00    -0.215 A  
ENDBRANCH  11  14
BRANCH  12  21
HETATM   21  C   UNL     1      -8.954  11.908  68.695  1.00  0.00    -0.041 C  
HETATM   22  N   UNL     1      -7.813  12.642  68.460  1.00  0.00    -0.217 N  
HETATM   23  H   UNL     1      -6.926  12.141  68.413  1.00  0.00     0.000 HD 
HETATM   24  O   UNL     1     -10.111  12.297  68.643  1.00  0.00    -0.212 OA 
BRANCH  22  25
HETATM   25  C   UNL     1      -7.788  14.032  68.281  1.00  0.00    -0.140 A  
HETATM   26  N   UNL     1      -7.563  14.847  69.330  1.00  0.00    -0.168 NA 
HETATM   27  C   UNL     1      -7.549  16.182  69.106  1.00  0.00    -0.230 A  
HETATM   28  C   UNL     1      -7.750  16.746  67.862  1.00  0.00    -0.171 A  
HETATM   29  C   UNL     1      -7.963  15.908  66.781  1.00  0.00    -0.287 A  
HETATM   30  F   UNL     1      -7.744  18.074  67.702  1.00  0.00    -0.205 F  
HETATM   31  C   UNL     1      -7.973  14.527  66.989  1.00  0.00    -0.074 A  
ENDBRANCH  22  25
ENDBRANCH  12  21
ENDBRANCH  10  11
ENDBRANCH   9  10
ENDBRANCH   5   9
TORSDOF 6
ENDMDL
MODEL      156
REMARK 921   NORMALIZED FREE ENERGY PREDICTED BY IDOCK:   -4.22 KCAL/MOL
REMARK 922        TOTAL FREE ENERGY PREDICTED BY IDOCK:   -7.25 KCAL/MOL
REMARK 923 INTER-LIGAND FREE ENERGY PREDICTED BY IDOCK:   -6.50 KCAL/MOL
REMARK 924 INTRA-LIGAND FREE ENERGY PREDICTED BY IDOCK:   -0.75 KCAL/MOL
REMARK 927      BINDING AFFINITY PREDICTED BY RF-SCORE:    0.00 PKD
ROOT
HETATM    1  C   UNL     1      -5.126  13.856  68.418  1.00  0.00    -0.102 C  
HETATM    2  C   UNL     1      -6.482  13.238  68.295  1.00  0.00    -0.099 A  
HETATM    3  N   UNL     1      -6.743  12.122  68.981  1.00  0.00    -0.098 NA 
HETATM    4  C   UNL     1      -7.989  11.629  68.823  1.00  0.00    -0.086 A  
HETATM    5  C   UNL     1      -8.984  12.175  68.020  1.00  0.00    -0.189 A  
HETATM    6  C   UNL     1      -9.481  14.273  66.563  1.00  0.00    -0.306 C  
HETATM    7  C   UNL     1      -8.621  13.348  67.370  1.00  0.00    -0.204 A  
HETATM    8  N   UNL     1      -7.368  13.867  67.506  1.00  0.00    -0.176 NA 
ENDROOT
BRANCH   5   9
HETATM    9  O   UNL     1     -10.138  11.454  68.056  1.00  0.00    -0.171 OA 
BRANCH   9  10
HETATM   10  C   UNL     1     -10.059  10.037  67.959  1.00  0.00    -0.167 C  
BRANCH  10  11
HETATM   11  C   UNL     1      -9.751   9.634  66.509  1.00  0.00    -0.272 C  
HETATM   12  C   UNL     1      -9.751   8.125  66.164  1.00  0.00    -0.154 C  
HETATM   13  C   UNL     1      -8.450   8.867  66.357  1.00  0.00    -0.123 C  
BRANCH  11  14
HETATM   14  C   UNL     1     -10.207  10.615  65.388  1.00  0.00    -0.341 A  
HETATM   15  C   UNL     1      -9.462  10.811  64.199  1.00  0.00    -0.309 A  
HETATM   16  F   UNL     1     -13.000  12.840  64.565  1.00  0.00    -0.431 F  
HETATM   17  C   UNL     1      -9.899  11.644  63.159  1.00  0.00    -0.407 A  
HETATM   18  C   UNL     1     -11.407  11.347  65.471  1.00  0.00    -0.067 A  
HETATM   19  C   UNL     1     -11.842  12.179  64.437  1.00  0.00    -0.358 A  
HETATM   20  C   UNL     1     -11.103  12.329  63.276  1.00  0.00    -0.389 A  
ENDBRANCH  11  14
BRANCH  12  21
HETATM   21  C   UNL     1     -10.252   7.123  67.163  1.00  0.00    -0.257 C  
HETATM   22  N   UNL     1      -9.363   6.895  68.189  1.00  0.00    -0.125 N  
HETATM   23  H   UNL     1      -8.542   7.497  68.251  1.00  0.00     0.000 HD 
HETATM   24  O   UNL     1     -11.351   6.613  67.005  1.00  0.00    -0.348 OA 
BRANCH  22  25
HETATM   25  C   UNL     1      -9.511   5.891  69.157  1.00  0.00    -0.128 A  
HETATM   26  N   UNL     1      -9.941   6.202  70.395  1.00  0.00    -0.177 NA 
HETATM   27  C   UNL     1     -10.067   5.197  71.294  1.00  0.00    -0.210 A  
HETATM   28  C   UNL     1      -9.781   3.879  71.006  1.00  0.00    -0.182 A  
HETATM   29  C   UNL     1      -9.356   3.557  69.728  1.00  0.00    -0.244 A  
HETATM   30  F   UNL     1      -9.906   2.929  71.939  1.00  0.00    -0.201 F  
HETATM   31  C   UNL     1      -9.227   4.576  68.783  1.00  0.00    -0.184 A  
ENDBRANCH  22  25
ENDBRANCH  12  21
ENDBRANCH  10  11
ENDBRANCH   9  10
ENDBRANCH   5   9
TORSDOF 6
ENDMDL
MODEL      157
REMARK 921   NORMALIZED FREE ENERGY PREDICTED BY IDOCK:   -4.21 KCAL/MOL
REMARK 922        TOTAL FREE ENERGY PREDICTED BY IDOCK:   -7.24 KCAL/MOL
REMARK 923 INTER-LIGAND FREE ENERGY PREDICTED BY IDOCK:   -5.45 KCAL/MOL
REMARK 924 INTRA-LIGAND FREE ENERGY PREDICTED BY IDOCK:   -1.78 KCAL/MOL
REMARK 927      BINDING AFFINITY PREDICTED BY RF-SCORE:    0.00 PKD
ROOT
HETATM    1  C   UNL     1     -10.784   4.963  65.672  1.00  0.00    -0.139 C  
HETATM    2  C   UNL     1      -9.983   5.067  66.931  1.00  0.00    -0.212 A  
HETATM    3  N   UNL     1     -10.623   5.039  68.102  1.00  0.00     0.054 NA 
HETATM    4  C   UNL     1      -9.831   5.131  69.191  1.00  0.00    -0.187 A  
HETATM    5  C   UNL     1      -8.447   5.258  69.182  1.00  0.00    -0.098 A  
HETATM    6  C   UNL     1      -6.424   5.211  67.546  1.00  0.00    -0.045 C  
HETATM    7  C   UNL     1      -7.876   5.251  67.915  1.00  0.00    -0.092 A  
HETATM    8  N   UNL     1      -8.650   5.164  66.797  1.00  0.00    -0.110 NA 
ENDROOT
BRANCH   5   9
HETATM    9  O   UNL     1      -7.922   5.335  70.435  1.00  0.00    -0.087 OA 
BRANCH   9  10
HETATM   10  C   UNL     1      -7.522   6.609  70.928  1.00  0.00    -0.084 C  
BRANCH  10  11
HETATM   11  C   UNL     1      -8.454   7.037  72.072  1.00  0.00    -0.115 C  
HETATM   12  C   UNL     1      -9.151   8.415  71.957  1.00  0.00    -0.296 C  
HETATM   13  C   UNL     1      -7.945   8.237  72.850  1.00  0.00    -0.199 C  
BRANCH  11  14
HETATM   14  C   UNL     1      -9.234   5.910  72.811  1.00  0.00    -0.142 A  
HETATM   15  C   UNL     1      -8.620   5.055  73.759  1.00  0.00    -0.107 A  
HETATM   16  F   UNL     1     -12.630   4.563  73.094  1.00  0.00    -0.193 F  
HETATM   17  C   UNL     1      -9.330   4.080  74.474  1.00  0.00    -0.126 A  
HETATM   18  C   UNL     1     -10.610   5.689  72.608  1.00  0.00    -0.266 A  
HETATM   19  C   UNL     1     -11.318   4.717  73.318  1.00  0.00    -0.322 A  
HETATM   20  C   UNL     1     -10.693   3.914  74.257  1.00  0.00    -0.233 A  
ENDBRANCH  11  14
BRANCH  12  21
HETATM   21  C   UNL     1      -9.084   9.189  70.673  1.00  0.00    -0.257 C  
HETATM   22  N   UNL     1     -10.165   8.964  69.851  1.00  0.00    -0.194 N  
HETATM   23  H   UNL     1     -10.944   8.423  70.226  1.00  0.00     0.000 HD 
HETATM   24  O   UNL     1      -8.130   9.924  70.463  1.00  0.00    -0.230 OA 
BRANCH  22  25
HETATM   25  C   UNL     1     -10.267   9.429  68.533  1.00  0.00    -0.199 A  
HETATM   26  N   UNL     1     -10.790  10.645  68.282  1.00  0.00    -0.221 NA 
HETATM   27  C   UNL     1     -10.869  11.049  66.992  1.00  0.00    -0.279 A  
HETATM   28  C   UNL     1     -10.440  10.282  65.928  1.00  0.00    -0.097 A  
HETATM   29  C   UNL     1      -9.886   9.040  66.187  1.00  0.00    -0.349 A  
HETATM   30  F   UNL     1     -10.558  10.724  64.671  1.00  0.00    -0.399 F  
HETATM   31  C   UNL     1      -9.787   8.608  67.511  1.00  0.00    -0.234 A  
ENDBRANCH  22  25
ENDBRANCH  12  21
ENDBRANCH  10  11
ENDBRANCH   9  10
ENDBRANCH   5   9
TORSDOF 6
ENDMDL
MODEL      158
REMARK 921   NORMALIZED FREE ENERGY PREDICTED BY IDOCK:   -4.20 KCAL/MOL
REMARK 922        TOTAL FREE ENERGY PREDICTED BY IDOCK:   -7.22 KCAL/MOL
REMARK 923 INTER-LIGAND FREE ENERGY PREDICTED BY IDOCK:   -6.02 KCAL/MOL
REMARK 924 INTRA-LIGAND FREE ENERGY PREDICTED BY IDOCK:   -1.20 KCAL/MOL
REMARK 927      BINDING AFFINITY PREDICTED BY RF-SCORE:    0.00 PKD
ROOT
HETATM    1  C   UNL     1      -9.304   2.898  65.156  1.00  0.00    -0.124 C  
HETATM    2  C   UNL     1      -9.384   4.248  65.795  1.00  0.00    -0.164 A  
HETATM    3  N   UNL     1     -10.580   4.828  65.920  1.00  0.00    -0.301 NA 
HETATM    4  C   UNL     1     -10.570   6.041  66.512  1.00  0.00    -0.172 A  
HETATM    5  C   UNL     1      -9.445   6.710  66.976  1.00  0.00    -0.144 A  
HETATM    6  C   UNL     1      -6.892   6.359  67.343  1.00  0.00    -0.069 C  
HETATM    7  C   UNL     1      -8.254   6.011  66.821  1.00  0.00    -0.106 A  
HETATM    8  N   UNL     1      -8.231   4.787  66.223  1.00  0.00    -0.107 NA 
ENDROOT
BRANCH   5   9
HETATM    9  O   UNL     1      -9.744   7.921  67.522  1.00  0.00    -0.146 OA 
BRANCH   9  10
HETATM   10  C   UNL     1      -9.337   9.097  66.833  1.00  0.00    -0.156 C  
BRANCH  10  11
HETATM   11  C   UNL     1     -10.180  10.292  67.305  1.00  0.00    -0.267 C  
HETATM   12  C   UNL     1     -10.158  10.640  68.813  1.00  0.00    -0.203 C  
HETATM   13  C   UNL     1     -11.330   9.899  68.214  1.00  0.00    -0.045 C  
BRANCH  11  14
HETATM   14  C   UNL     1     -10.350  11.476  66.309  1.00  0.00    -0.280 A  
HETATM   15  C   UNL     1     -10.374  12.828  66.730  1.00  0.00    -0.248 A  
HETATM   16  F   UNL     1     -10.635  12.103  62.709  1.00  0.00    -0.292 F  
HETATM   17  C   UNL     1     -10.463  13.903  65.833  1.00  0.00    -0.309 A  
HETATM   18  C   UNL     1     -10.458  11.281  64.918  1.00  0.00    -0.375 A  
HETATM   19  C   UNL     1     -10.549  12.349  64.023  1.00  0.00    -0.413 A  
HETATM   20  C   UNL     1     -10.545  13.660  64.466  1.00  0.00    -0.428 A  
ENDBRANCH  11  14
BRANCH  12  21
HETATM   21  C   UNL     1      -9.176   9.968  69.728  1.00  0.00    -0.199 C  
HETATM   22  N   UNL     1      -9.711   8.889  70.395  1.00  0.00    -0.180 N  
HETATM   23  H   UNL     1     -10.641   8.574  70.121  1.00  0.00     0.000 HD 
HETATM   24  O   UNL     1      -8.035  10.400  69.808  1.00  0.00    -0.150 OA 
BRANCH  22  25
HETATM   25  C   UNL     1      -9.063   8.194  71.425  1.00  0.00    -0.153 A  
HETATM   26  N   UNL     1      -8.014   7.394  71.148  1.00  0.00    -0.099 NA 
HETATM   27  C   UNL     1      -7.422   6.743  72.177  1.00  0.00    -0.093 A  
HETATM   28  C   UNL     1      -7.835   6.860  73.489  1.00  0.00    -0.093 A  
HETATM   29  C   UNL     1      -8.900   7.697  73.776  1.00  0.00    -0.305 A  
HETATM   30  F   UNL     1      -7.224   6.179  74.464  1.00  0.00    -0.088 F  
HETATM   31  C   UNL     1      -9.520   8.384  72.730  1.00  0.00    -0.312 A  
ENDBRANCH  22  25
ENDBRANCH  12  21
ENDBRANCH  10  11
ENDBRANCH   9  10
ENDBRANCH   5   9
TORSDOF 6
ENDMDL
MODEL      159
REMARK 921   NORMALIZED FREE ENERGY PREDICTED BY IDOCK:   -4.19 KCAL/MOL
REMARK 922        TOTAL FREE ENERGY PREDICTED BY IDOCK:   -7.21 KCAL/MOL
REMARK 923 INTER-LIGAND FREE ENERGY PREDICTED BY IDOCK:   -6.23 KCAL/MOL
REMARK 924 INTRA-LIGAND FREE ENERGY PREDICTED BY IDOCK:   -0.98 KCAL/MOL
REMARK 927      BINDING AFFINITY PREDICTED BY RF-SCORE:    0.00 PKD
ROOT
HETATM    1  C   UNL     1     -13.539   9.334  72.532  1.00  0.00    -0.478 C  
HETATM    2  C   UNL     1     -12.667   9.643  71.358  1.00  0.00    -0.374 A  
HETATM    3  N   UNL     1     -12.849  10.796  70.709  1.00  0.00    -0.341 NA 
HETATM    4  C   UNL     1     -12.020  11.005  69.665  1.00  0.00    -0.353 A  
HETATM    5  C   UNL     1     -11.031  10.133  69.226  1.00  0.00    -0.240 A  
HETATM    6  C   UNL     1      -9.857   7.908  69.890  1.00  0.00    -0.182 C  
HETATM    7  C   UNL     1     -10.906   8.975  69.982  1.00  0.00    -0.231 A  
HETATM    8  N   UNL     1     -11.732   8.734  71.039  1.00  0.00    -0.284 NA 
ENDROOT
BRANCH   5   9
HETATM    9  O   UNL     1     -10.356  10.612  68.144  1.00  0.00    -0.163 OA 
BRANCH   9  10
HETATM   10  C   UNL     1      -9.341  11.586  68.352  1.00  0.00    -0.194 C  
BRANCH  10  11
HETATM   11  C   UNL     1      -8.771  12.038  66.999  1.00  0.00    -0.188 C  
HETATM   12  C   UNL     1      -7.442  11.399  66.526  1.00  0.00    -0.068 C  
HETATM   13  C   UNL     1      -7.457  12.790  67.116  1.00  0.00    -0.037 C  
BRANCH  11  14
HETATM   14  C   UNL     1      -9.796  12.437  65.896  1.00  0.00    -0.265 A  
HETATM   15  C   UNL     1     -10.140  11.571  64.829  1.00  0.00    -0.316 A  
HETATM   16  F   UNL     1     -12.056  15.185  65.020  1.00  0.00    -0.296 F  
HETATM   17  C   UNL     1     -11.109  11.898  63.868  1.00  0.00    -0.483 A  
HETATM   18  C   UNL     1     -10.471  13.672  65.907  1.00  0.00    -0.297 A  
HETATM   19  C   UNL     1     -11.434  14.000  64.950  1.00  0.00    -0.358 A  
HETATM   20  C   UNL     1     -11.766  13.122  63.934  1.00  0.00    -0.515 A  
ENDBRANCH  11  14
BRANCH  12  21
HETATM   21  C   UNL     1      -6.864  10.228  67.265  1.00  0.00    -0.081 C  
HETATM   22  N   UNL     1      -7.059   9.030  66.614  1.00  0.00    -0.081 N  
HETATM   23  H   UNL     1      -7.440   9.060  65.668  1.00  0.00     0.000 HD 
HETATM   24  O   UNL     1      -6.293  10.410  68.330  1.00  0.00    -0.051 OA 
BRANCH  22  25
HETATM   25  C   UNL     1      -6.768   7.774  67.162  1.00  0.00    -0.068 A  
HETATM   26  N   UNL     1      -5.489   7.406  67.374  1.00  0.00    -0.028 NA 
HETATM   27  C   UNL     1      -5.259   6.183  67.905  1.00  0.00    -0.004 A  
HETATM   28  C   UNL     1      -6.264   5.299  68.241  1.00  0.00    -0.034 A  
HETATM   29  C   UNL     1      -7.579   5.683  68.041  1.00  0.00    -0.085 A  
HETATM   30  F   UNL     1      -5.978   4.094  68.746  1.00  0.00    -0.022 F  
HETATM   31  C   UNL     1      -7.839   6.945  67.502  1.00  0.00    -0.112 A  
ENDBRANCH  22  25
ENDBRANCH  12  21
ENDBRANCH  10  11
ENDBRANCH   9  10
ENDBRANCH   5   9
TORSDOF 6
ENDMDL
MODEL      160
REMARK 921   NORMALIZED FREE ENERGY PREDICTED BY IDOCK:   -4.18 KCAL/MOL
REMARK 922        TOTAL FREE ENERGY PREDICTED BY IDOCK:   -7.20 KCAL/MOL
REMARK 923 INTER-LIGAND FREE ENERGY PREDICTED BY IDOCK:   -5.79 KCAL/MOL
REMARK 924 INTRA-LIGAND FREE ENERGY PREDICTED BY IDOCK:   -1.41 KCAL/MOL
REMARK 927      BINDING AFFINITY PREDICTED BY RF-SCORE:    0.00 PKD
ROOT
HETATM    1  C   UNL     1      -9.643   5.443  74.169  1.00  0.00    -0.148 C  
HETATM    2  C   UNL     1      -9.409   6.358  73.010  1.00  0.00    -0.135 A  
HETATM    3  N   UNL     1      -9.584   7.671  73.184  1.00  0.00    -0.230 NA 
HETATM    4  C   UNL     1      -9.347   8.430  72.095  1.00  0.00    -0.269 A  
HETATM    5  C   UNL     1      -8.958   7.962  70.845  1.00  0.00    -0.143 A  
HETATM    6  C   UNL     1      -8.220   5.773  69.648  1.00  0.00    -0.108 C  
HETATM    7  C   UNL     1      -8.779   6.586  70.776  1.00  0.00    -0.143 A  
HETATM    8  N   UNL     1      -9.015   5.792  71.858  1.00  0.00    -0.139 NA 
ENDROOT
BRANCH   5   9
HETATM    9  O   UNL     1      -8.800   8.965  69.938  1.00  0.00    -0.138 OA 
BRANCH   9  10
HETATM   10  C   UNL     1      -9.751   9.087  68.887  1.00  0.00    -0.163 C  
BRANCH  10  11
HETATM   11  C   UNL     1      -9.285  10.157  67.888  1.00  0.00    -0.144 C  
HETATM   12  C   UNL     1      -8.308   9.723  66.769  1.00  0.00    -0.124 C  
HETATM   13  C   UNL     1      -7.802  10.467  67.981  1.00  0.00    -0.105 C  
BRANCH  11  14
HETATM   14  C   UNL     1     -10.294  11.293  67.545  1.00  0.00    -0.224 A  
HETATM   15  C   UNL     1     -10.803  11.489  66.238  1.00  0.00    -0.333 A  
HETATM   16  F   UNL     1     -12.190  13.961  69.193  1.00  0.00    -0.366 F  
HETATM   17  C   UNL     1     -11.760  12.469  65.934  1.00  0.00    -0.480 A  
HETATM   18  C   UNL     1     -10.791  12.178  68.521  1.00  0.00    -0.267 A  
HETATM   19  C   UNL     1     -11.742  13.156  68.220  1.00  0.00    -0.349 A  
HETATM   20  C   UNL     1     -12.238  13.306  66.937  1.00  0.00    -0.315 A  
ENDBRANCH  11  14
BRANCH  12  21
HETATM   21  C   UNL     1      -8.013   8.268  66.548  1.00  0.00    -0.100 C  
HETATM   22  N   UNL     1      -8.974   7.631  65.795  1.00  0.00    -0.354 N  
HETATM   23  H   UNL     1      -9.697   8.206  65.361  1.00  0.00     0.000 HD 
HETATM   24  O   UNL     1      -6.997   7.781  67.022  1.00  0.00    -0.073 OA 
BRANCH  22  25
HETATM   25  C   UNL     1      -9.027   6.247  65.584  1.00  0.00    -0.019 A  
HETATM   26  N   UNL     1      -8.374   5.695  64.543  1.00  0.00    -0.131 NA 
HETATM   27  C   UNL     1      -8.456   4.353  64.381  1.00  0.00    -0.117 A  
HETATM   28  C   UNL     1      -9.168   3.527  65.227  1.00  0.00    -0.153 A  
HETATM   29  C   UNL     1      -9.824   4.092  66.308  1.00  0.00    -0.208 A  
HETATM   30  F   UNL     1      -9.229   2.209  65.009  1.00  0.00    -0.128 F  
HETATM   31  C   UNL     1      -9.745   5.474  66.498  1.00  0.00    -0.179 A  
ENDBRANCH  22  25
ENDBRANCH  12  21
ENDBRANCH  10  11
ENDBRANCH   9  10
ENDBRANCH   5   9
TORSDOF 6
ENDMDL
MODEL      161
REMARK 921   NORMALIZED FREE ENERGY PREDICTED BY IDOCK:   -4.18 KCAL/MOL
REMARK 922        TOTAL FREE ENERGY PREDICTED BY IDOCK:   -7.19 KCAL/MOL
REMARK 923 INTER-LIGAND FREE ENERGY PREDICTED BY IDOCK:   -6.76 KCAL/MOL
REMARK 924 INTRA-LIGAND FREE ENERGY PREDICTED BY IDOCK:   -0.43 KCAL/MOL
REMARK 927      BINDING AFFINITY PREDICTED BY RF-SCORE:    0.00 PKD
ROOT
HETATM    1  C   UNL     1     -11.802   6.015  72.432  1.00  0.00    -0.283 C  
HETATM    2  C   UNL     1     -11.531   7.213  71.579  1.00  0.00    -0.268 A  
HETATM    3  N   UNL     1     -10.734   7.077  70.517  1.00  0.00    -0.231 NA 
HETATM    4  C   UNL     1     -10.543   8.200  69.794  1.00  0.00    -0.231 A  
HETATM    5  C   UNL     1     -11.089   9.448  70.071  1.00  0.00    -0.221 A  
HETATM    6  C   UNL     1     -12.790  10.600  71.668  1.00  0.00    -0.570 C  
HETATM    7  C   UNL     1     -11.924   9.478  71.182  1.00  0.00    -0.348 A  
HETATM    8  N   UNL     1     -12.132   8.360  71.934  1.00  0.00    -0.319 NA 
ENDROOT
BRANCH   5   9
HETATM    9  O   UNL     1     -10.714  10.394  69.168  1.00  0.00    -0.204 OA 
BRANCH   9  10
HETATM   10  C   UNL     1     -10.434   9.989  67.833  1.00  0.00    -0.231 C  
BRANCH  10  11
HETATM   11  C   UNL     1      -9.766  11.142  67.070  1.00  0.00    -0.210 C  
HETATM   12  C   UNL     1      -8.219  11.220  67.089  1.00  0.00    -0.149 C  
HETATM   13  C   UNL     1      -9.043  12.127  67.972  1.00  0.00    -0.190 C  
BRANCH  11  14
HETATM   14  C   UNL     1     -10.483  11.652  65.786  1.00  0.00    -0.308 A  
HETATM   15  C   UNL     1     -10.234  11.101  64.505  1.00  0.00    -0.383 A  
HETATM   16  F   UNL     1     -13.060  14.052  64.771  1.00  0.00    -0.253 F  
HETATM   17  C   UNL     1     -10.923  11.512  63.354  1.00  0.00    -0.397 A  
HETATM   18  C   UNL     1     -11.452  12.674  65.820  1.00  0.00    -0.399 A  
HETATM   19  C   UNL     1     -12.137  13.086  64.675  1.00  0.00    -0.409 A  
HETATM   20  C   UNL     1     -11.888  12.509  63.441  1.00  0.00    -0.587 A  
ENDBRANCH  11  14
BRANCH  12  21
HETATM   21  C   UNL     1      -7.414  10.083  67.647  1.00  0.00    -0.090 C  
HETATM   22  N   UNL     1      -7.814   9.708  68.910  1.00  0.00    -0.079 N  
HETATM   23  H   UNL     1      -8.667  10.125  69.283  1.00  0.00     0.000 HD 
HETATM   24  O   UNL     1      -6.515   9.597  66.977  1.00  0.00    -0.065 OA 
BRANCH  22  25
HETATM   25  C   UNL     1      -7.127   8.792  69.718  1.00  0.00    -0.054 A  
HETATM   26  N   UNL     1      -6.229   9.227  70.624  1.00  0.00    -0.053 NA 
HETATM   27  C   UNL     1      -5.592   8.303  71.381  1.00  0.00    -0.034 A  
HETATM   28  C   UNL     1      -5.817   6.945  71.273  1.00  0.00    -0.036 A  
HETATM   29  C   UNL     1      -6.753   6.499  70.355  1.00  0.00    -0.053 A  
HETATM   30  F   UNL     1      -5.145   6.076  72.035  1.00  0.00    -0.018 F  
HETATM   31  C   UNL     1      -7.428   7.437  69.571  1.00  0.00    -0.090 A  
ENDBRANCH  22  25
ENDBRANCH  12  21
ENDBRANCH  10  11
ENDBRANCH   9  10
ENDBRANCH   5   9
TORSDOF 6
ENDMDL
MODEL      162
REMARK 921   NORMALIZED FREE ENERGY PREDICTED BY IDOCK:   -4.15 KCAL/MOL
REMARK 922        TOTAL FREE ENERGY PREDICTED BY IDOCK:   -7.15 KCAL/MOL
REMARK 923 INTER-LIGAND FREE ENERGY PREDICTED BY IDOCK:   -6.36 KCAL/MOL
REMARK 924 INTRA-LIGAND FREE ENERGY PREDICTED BY IDOCK:   -0.79 KCAL/MOL
REMARK 927      BINDING AFFINITY PREDICTED BY RF-SCORE:    0.00 PKD
ROOT
HETATM    1  C   UNL     1      -7.870   9.080  63.438  1.00  0.00    -0.139 C  
HETATM    2  C   UNL     1      -8.033   9.743  64.768  1.00  0.00    -0.138 A  
HETATM    3  N   UNL     1      -8.438  11.015  64.805  1.00  0.00     0.050 NA 
HETATM    4  C   UNL     1      -8.568  11.540  66.041  1.00  0.00    -0.046 A  
HETATM    5  C   UNL     1      -8.309  10.880  67.236  1.00  0.00    -0.123 A  
HETATM    6  C   UNL     1      -7.715   8.518  68.153  1.00  0.00    -0.102 C  
HETATM    7  C   UNL     1      -7.918   9.555  67.090  1.00  0.00    -0.102 A  
HETATM    8  N   UNL     1      -7.774   8.998  65.854  1.00  0.00    -0.093 NA 
ENDROOT
BRANCH   5   9
HETATM    9  O   UNL     1      -8.523  11.668  68.326  1.00  0.00    -0.149 OA 
BRANCH   9  10
HETATM   10  C   UNL     1      -9.427  11.215  69.326  1.00  0.00     0.119 C  
BRANCH  10  11
HETATM   11  C   UNL     1     -10.854  11.665  68.978  1.00  0.00    -0.247 C  
HETATM   12  C   UNL     1     -12.032  10.845  69.560  1.00  0.00    -0.401 C  
HETATM   13  C   UNL     1     -11.611  10.667  68.121  1.00  0.00    -0.217 C  
BRANCH  11  14
HETATM   14  C   UNL     1     -11.087  13.192  68.777  1.00  0.00    -0.309 A  
HETATM   15  C   UNL     1     -10.803  13.851  67.556  1.00  0.00    -0.274 A  
HETATM   16  F   UNL     1     -12.418  16.093  70.577  1.00  0.00    -0.360 F  
HETATM   17  C   UNL     1     -11.070  15.212  67.347  1.00  0.00    -0.325 A  
HETATM   18  C   UNL     1     -11.626  14.010  69.788  1.00  0.00    -0.344 A  
HETATM   19  C   UNL     1     -11.890  15.367  69.583  1.00  0.00    -0.347 A  
HETATM   20  C   UNL     1     -11.624  15.975  68.369  1.00  0.00    -0.279 A  
ENDBRANCH  11  14
BRANCH  12  21
HETATM   21  C   UNL     1     -11.777   9.794  70.600  1.00  0.00    -0.300 C  
HETATM   22  N   UNL     1     -11.187   8.660  70.087  1.00  0.00    -0.404 N  
HETATM   23  H   UNL     1     -10.868   8.686  69.118  1.00  0.00     0.000 HD 
HETATM   24  O   UNL     1     -12.090  10.008  71.762  1.00  0.00    -0.373 OA 
BRANCH  22  25
HETATM   25  C   UNL     1     -10.996   7.472  70.805  1.00  0.00    -0.252 A  
HETATM   26  N   UNL     1     -12.039   6.873  71.414  1.00  0.00    -0.344 NA 
HETATM   27  C   UNL     1     -11.804   5.728  72.097  1.00  0.00    -0.108 A  
HETATM   28  C   UNL     1     -10.557   5.145  72.196  1.00  0.00    -0.211 A  
HETATM   29  C   UNL     1      -9.489   5.750  71.555  1.00  0.00    -0.171 A  
HETATM   30  F   UNL     1     -10.379   4.021  72.900  1.00  0.00    -0.190 F  
HETATM   31  C   UNL     1      -9.711   6.928  70.838  1.00  0.00    -0.183 A  
ENDBRANCH  22  25
ENDBRANCH  12  21
ENDBRANCH  10  11
ENDBRANCH   9  10
ENDBRANCH   5   9
TORSDOF 6
ENDMDL
MODEL      163
REMARK 921   NORMALIZED FREE ENERGY PREDICTED BY IDOCK:   -4.12 KCAL/MOL
REMARK 922        TOTAL FREE ENERGY PREDICTED BY IDOCK:   -7.12 KCAL/MOL
REMARK 923 INTER-LIGAND FREE ENERGY PREDICTED BY IDOCK:   -6.07 KCAL/MOL
REMARK 924 INTRA-LIGAND FREE ENERGY PREDICTED BY IDOCK:   -1.05 KCAL/MOL
REMARK 927      BINDING AFFINITY PREDICTED BY RF-SCORE:    0.00 PKD
ROOT
HETATM    1  C   UNL     1      -5.226  14.331  71.410  1.00  0.00    -0.160 C  
HETATM    2  C   UNL     1      -5.912  13.368  70.494  1.00  0.00    -0.121 A  
HETATM    3  N   UNL     1      -6.588  13.849  69.447  1.00  0.00    -0.117 NA 
HETATM    4  C   UNL     1      -7.173  12.918  68.665  1.00  0.00    -0.098 A  
HETATM    5  C   UNL     1      -7.134  11.544  68.868  1.00  0.00    -0.111 A  
HETATM    6  C   UNL     1      -6.006   9.757  70.386  1.00  0.00    -0.069 C  
HETATM    7  C   UNL     1      -6.386  11.145  69.969  1.00  0.00    -0.147 A  
HETATM    8  N   UNL     1      -5.787  12.062  70.780  1.00  0.00    -0.331 NA 
ENDROOT
BRANCH   5   9
HETATM    9  O   UNL     1      -7.823  10.856  67.917  1.00  0.00    -0.105 OA 
BRANCH   9  10
HETATM   10  C   UNL     1      -9.017  10.182  68.296  1.00  0.00    -0.120 C  
BRANCH  10  11
HETATM   11  C   UNL     1      -9.158   8.883  67.489  1.00  0.00    -0.146 C  
HETATM   12  C   UNL     1      -9.622   8.995  66.016  1.00  0.00    -0.342 C  
HETATM   13  C   UNL     1     -10.590   8.568  67.093  1.00  0.00    -0.314 C  
BRANCH  11  14
HETATM   14  C   UNL     1      -8.177   7.723  67.834  1.00  0.00    -0.123 A  
HETATM   15  C   UNL     1      -8.149   7.105  69.108  1.00  0.00    -0.121 A  
HETATM   16  F   UNL     1      -5.617   5.640  66.243  1.00  0.00    -0.011 F  
HETATM   17  C   UNL     1      -7.313   6.018  69.406  1.00  0.00    -0.079 A  
HETATM   18  C   UNL     1      -7.277   7.193  66.890  1.00  0.00    -0.087 A  
HETATM   19  C   UNL     1      -6.442   6.113  67.186  1.00  0.00    -0.050 A  
HETATM   20  C   UNL     1      -6.457   5.514  68.434  1.00  0.00    -0.039 A  
ENDBRANCH  11  14
BRANCH  12  21
HETATM   21  C   UNL     1      -9.711  10.340  65.354  1.00  0.00    -0.278 C  
HETATM   22  N   UNL     1     -10.558  11.207  66.007  1.00  0.00    -0.256 N  
HETATM   23  H   UNL     1     -10.927  10.920  66.913  1.00  0.00     0.000 HD 
HETATM   24  O   UNL     1      -9.059  10.557  64.343  1.00  0.00    -0.196 OA 
BRANCH  22  25
HETATM   25  C   UNL     1     -10.947  12.459  65.510  1.00  0.00    -0.293 A  
HETATM   26  N   UNL     1     -10.318  13.576  65.923  1.00  0.00    -0.293 NA 
HETATM   27  C   UNL     1     -10.730  14.762  65.415  1.00  0.00    -0.371 A  
HETATM   28  C   UNL     1     -11.754  14.881  64.498  1.00  0.00    -0.382 A  
HETATM   29  C   UNL     1     -12.389  13.731  64.060  1.00  0.00    -0.370 A  
HETATM   30  F   UNL     1     -12.132  16.080  64.043  1.00  0.00    -0.467 F  
HETATM   31  C   UNL     1     -11.973  12.497  64.565  1.00  0.00    -0.472 A  
ENDBRANCH  22  25
ENDBRANCH  12  21
ENDBRANCH  10  11
ENDBRANCH   9  10
ENDBRANCH   5   9
TORSDOF 6
ENDMDL
MODEL      164
REMARK 921   NORMALIZED FREE ENERGY PREDICTED BY IDOCK:   -4.10 KCAL/MOL
REMARK 922        TOTAL FREE ENERGY PREDICTED BY IDOCK:   -7.09 KCAL/MOL
REMARK 923 INTER-LIGAND FREE ENERGY PREDICTED BY IDOCK:   -5.67 KCAL/MOL
REMARK 924 INTRA-LIGAND FREE ENERGY PREDICTED BY IDOCK:   -1.42 KCAL/MOL
REMARK 927      BINDING AFFINITY PREDICTED BY RF-SCORE:    0.00 PKD
ROOT
HETATM    1  C   UNL     1      -5.836  14.371  70.268  1.00  0.00    -0.146 C  
HETATM    2  C   UNL     1      -6.124  12.943  69.933  1.00  0.00    -0.126 A  
HETATM    3  N   UNL     1      -6.800  12.671  68.814  1.00  0.00    -0.092 NA 
HETATM    4  C   UNL     1      -7.016  11.360  68.577  1.00  0.00    -0.080 A  
HETATM    5  C   UNL     1      -6.607  10.310  69.390  1.00  0.00    -0.058 A  
HETATM    6  C   UNL     1      -5.174   9.833  71.509  1.00  0.00    -0.075 C  
HETATM    7  C   UNL     1      -5.890  10.697  70.515  1.00  0.00    -0.116 A  
HETATM    8  N   UNL     1      -5.661  12.013  70.783  1.00  0.00    -0.309 NA 
ENDROOT
BRANCH   5   9
HETATM    9  O   UNL     1      -6.973   9.095  68.897  1.00  0.00    -0.062 OA 
BRANCH   9  10
HETATM   10  C   UNL     1      -7.903   9.049  67.820  1.00  0.00    -0.101 C  
BRANCH  10  11
HETATM   11  C   UNL     1      -9.120   8.203  68.222  1.00  0.00    -0.135 C  
HETATM   12  C   UNL     1     -10.381   8.946  68.726  1.00  0.00    -0.232 C  
HETATM   13  C   UNL     1      -9.445   8.275  69.703  1.00  0.00    -0.163 C  
BRANCH  11  14
HETATM   14  C   UNL     1      -9.347   6.874  67.444  1.00  0.00    -0.144 A  
HETATM   15  C   UNL     1     -10.640   6.364  67.168  1.00  0.00    -0.389 A  
HETATM   16  F   UNL     1      -7.438   4.269  65.711  1.00  0.00    -0.075 F  
HETATM   17  C   UNL     1     -10.853   5.201  66.413  1.00  0.00    -0.174 A  
HETATM   18  C   UNL     1      -8.281   6.108  66.934  1.00  0.00    -0.106 A  
HETATM   19  C   UNL     1      -8.491   4.949  66.184  1.00  0.00    -0.112 A  
HETATM   20  C   UNL     1      -9.768   4.491  65.911  1.00  0.00    -0.210 A  
ENDBRANCH  11  14
BRANCH  12  21
HETATM   21  C   UNL     1     -10.473  10.440  68.610  1.00  0.00    -0.196 C  
HETATM   22  N   UNL     1     -10.893  10.859  67.367  1.00  0.00    -0.261 N  
HETATM   23  H   UNL     1     -11.219  10.149  66.711  1.00  0.00     0.000 HD 
HETATM   24  O   UNL     1     -10.187  11.137  69.572  1.00  0.00    -0.091 OA 
BRANCH  22  25
HETATM   25  C   UNL     1     -10.903  12.195  66.944  1.00  0.00    -0.250 A  
HETATM   26  N   UNL     1      -9.755  12.801  66.586  1.00  0.00    -0.246 NA 
HETATM   27  C   UNL     1      -9.816  14.092  66.184  1.00  0.00    -0.308 A  
HETATM   28  C   UNL     1     -10.991  14.814  66.121  1.00  0.00    -0.332 A  
HETATM   29  C   UNL     1     -12.174  14.185  66.471  1.00  0.00    -0.463 A  
HETATM   30  F   UNL     1     -10.991  16.094  65.733  1.00  0.00    -0.304 F  
HETATM   31  C   UNL     1     -12.134  12.850  66.880  1.00  0.00    -0.313 A  
ENDBRANCH  22  25
ENDBRANCH  12  21
ENDBRANCH  10  11
ENDBRANCH   9  10
ENDBRANCH   5   9
TORSDOF 6
ENDMDL
MODEL      165
REMARK 921   NORMALIZED FREE ENERGY PREDICTED BY IDOCK:   -3.97 KCAL/MOL
REMARK 922        TOTAL FREE ENERGY PREDICTED BY IDOCK:   -6.91 KCAL/MOL
REMARK 923 INTER-LIGAND FREE ENERGY PREDICTED BY IDOCK:   -6.03 KCAL/MOL
REMARK 924 INTRA-LIGAND FREE ENERGY PREDICTED BY IDOCK:   -0.88 KCAL/MOL
REMARK 927      BINDING AFFINITY PREDICTED BY RF-SCORE:    0.00 PKD
ROOT
HETATM    1  C   UNL     1     -12.241  14.589  64.282  1.00  0.00    -0.441 C  
HETATM    2  C   UNL     1     -11.620  13.268  64.605  1.00  0.00    -0.350 A  
HETATM    3  N   UNL     1     -10.931  12.633  63.654  1.00  0.00    -0.437 NA 
HETATM    4  C   UNL     1     -10.396  11.452  64.024  1.00  0.00    -0.362 A  
HETATM    5  C   UNL     1     -10.513  10.863  65.277  1.00  0.00    -0.230 A  
HETATM    6  C   UNL     1     -11.409  11.361  67.668  1.00  0.00    -0.359 C  
HETATM    7  C   UNL     1     -11.226  11.614  66.202  1.00  0.00    -0.254 A  
HETATM    8  N   UNL     1     -11.783  12.809  65.857  1.00  0.00    -0.391 NA 
ENDROOT
BRANCH   5   9
HETATM    9  O   UNL     1      -9.871   9.665  65.353  1.00  0.00    -0.315 OA 
BRANCH   9  10
HETATM   10  C   UNL     1      -8.448   9.654  65.356  1.00  0.00    -0.145 C  
BRANCH  10  11
HETATM   11  C   UNL     1      -7.940   8.459  66.176  1.00  0.00    -0.100 C  
HETATM   12  C   UNL     1      -7.617   8.694  67.671  1.00  0.00    -0.098 C  
HETATM   13  C   UNL     1      -6.507   8.615  66.650  1.00  0.00    -0.060 C  
BRANCH  11  14
HETATM   14  C   UNL     1      -8.476   7.050  65.782  1.00  0.00    -0.154 A  
HETATM   15  C   UNL     1      -8.025   6.359  64.630  1.00  0.00    -0.118 A  
HETATM   16  F   UNL     1     -10.739   4.453  67.031  1.00  0.00    -0.081 F  
HETATM   17  C   UNL     1      -8.456   5.065  64.304  1.00  0.00    -0.138 A  
HETATM   18  C   UNL     1      -9.419   6.358  66.565  1.00  0.00    -0.189 A  
HETATM   19  C   UNL     1      -9.851   5.069  66.240  1.00  0.00    -0.200 A  
HETATM   20  C   UNL     1      -9.372   4.412  65.121  1.00  0.00    -0.165 A  
ENDBRANCH  11  14
BRANCH  12  21
HETATM   21  C   UNL     1      -8.001   9.986  68.331  1.00  0.00    -0.097 C  
HETATM   22  N   UNL     1      -7.601  11.095  67.619  1.00  0.00    -0.102 N  
HETATM   23  H   UNL     1      -7.218  10.948  66.685  1.00  0.00     0.000 HD 
HETATM   24  O   UNL     1      -8.609   9.964  69.391  1.00  0.00    -0.146 OA 
BRANCH  22  25
HETATM   25  C   UNL     1      -7.686  12.412  68.090  1.00  0.00    -0.139 A  
HETATM   26  N   UNL     1      -8.691  13.213  67.686  1.00  0.00    -0.179 NA 
HETATM   27  C   UNL     1      -8.730  14.477  68.169  1.00  0.00    -0.171 A  
HETATM   28  C   UNL     1      -7.796  14.983  69.051  1.00  0.00    -0.170 A  
HETATM   29  C   UNL     1      -6.773  14.154  69.480  1.00  0.00    -0.112 A  
HETATM   30  F   UNL     1      -7.873  16.246  69.482  1.00  0.00    -0.235 F  
HETATM   31  C   UNL     1      -6.720  12.844  69.001  1.00  0.00    -0.095 A  
ENDBRANCH  22  25
ENDBRANCH  12  21
ENDBRANCH  10  11
ENDBRANCH   9  10
ENDBRANCH   5   9
TORSDOF 6
ENDMDL
MODEL      166
REMARK 921   NORMALIZED FREE ENERGY PREDICTED BY IDOCK:   -3.96 KCAL/MOL
REMARK 922        TOTAL FREE ENERGY PREDICTED BY IDOCK:   -6.89 KCAL/MOL
REMARK 923 INTER-LIGAND FREE ENERGY PREDICTED BY IDOCK:   -6.54 KCAL/MOL
REMARK 924 INTRA-LIGAND FREE ENERGY PREDICTED BY IDOCK:   -0.35 KCAL/MOL
REMARK 927      BINDING AFFINITY PREDICTED BY RF-SCORE:    0.00 PKD
ROOT
HETATM    1  C   UNL     1     -12.549  15.567  70.246  1.00  0.00    -0.362 C  
HETATM    2  C   UNL     1     -11.928  14.299  69.757  1.00  0.00    -0.339 A  
HETATM    3  N   UNL     1     -11.004  14.366  68.796  1.00  0.00    -0.241 NA 
HETATM    4  C   UNL     1     -10.486  13.181  68.413  1.00  0.00    -0.253 A  
HETATM    5  C   UNL     1     -10.839  11.937  68.921  1.00  0.00    -0.221 A  
HETATM    6  C   UNL     1     -12.277  10.856  70.802  1.00  0.00    -0.483 C  
HETATM    7  C   UNL     1     -11.789  11.977  69.934  1.00  0.00    -0.331 A  
HETATM    8  N   UNL     1     -12.334  13.159  70.339  1.00  0.00    -0.312 NA 
ENDROOT
BRANCH   5   9
HETATM    9  O   UNL     1     -10.151  10.918  68.336  1.00  0.00    -0.170 OA 
BRANCH   9  10
HETATM   10  C   UNL     1     -10.118  10.848  66.915  1.00  0.00    -0.212 C  
BRANCH  10  11
HETATM   11  C   UNL     1      -8.920   9.997  66.466  1.00  0.00    -0.162 C  
HETATM   12  C   UNL     1      -7.501  10.507  66.818  1.00  0.00    -0.115 C  
HETATM   13  C   UNL     1      -8.052  10.677  65.423  1.00  0.00    -0.106 C  
BRANCH  11  14
HETATM   14  C   UNL     1      -9.125   8.454  66.417  1.00  0.00    -0.231 A  
HETATM   15  C   UNL     1      -8.133   7.570  65.927  1.00  0.00    -0.127 A  
HETATM   16  F   UNL     1     -11.588   5.914  67.370  1.00  0.00    -0.059 F  
HETATM   17  C   UNL     1      -8.286   6.176  65.939  1.00  0.00    -0.131 A  
HETATM   18  C   UNL     1     -10.300   7.836  66.887  1.00  0.00    -0.396 A  
HETATM   19  C   UNL     1     -10.454   6.447  66.897  1.00  0.00    -0.272 A  
HETATM   20  C   UNL     1      -9.455   5.609  66.434  1.00  0.00    -0.170 A  
ENDBRANCH  11  14
BRANCH  12  21
HETATM   21  C   UNL     1      -7.327  11.668  67.753  1.00  0.00    -0.106 C  
HETATM   22  N   UNL     1      -7.062  12.851  67.100  1.00  0.00    -0.363 N  
HETATM   23  H   UNL     1      -7.137  12.860  66.082  1.00  0.00     0.000 HD 
HETATM   24  O   UNL     1      -7.431  11.491  68.958  1.00  0.00    -0.115 OA 
BRANCH  22  25
HETATM   25  C   UNL     1      -6.695  14.043  67.738  1.00  0.00    -0.177 A  
HETATM   26  N   UNL     1      -5.442  14.522  67.612  1.00  0.00    -0.339 NA 
HETATM   27  C   UNL     1      -5.136  15.677  68.248  1.00  0.00    -0.105 A  
HETATM   28  C   UNL     1      -6.041  16.386  69.013  1.00  0.00    -0.152 A  
HETATM   29  C   UNL     1      -7.334  15.904  69.127  1.00  0.00    -0.198 A  
HETATM   30  F   UNL     1      -5.679  17.514  69.634  1.00  0.00    -0.180 F  
HETATM   31  C   UNL     1      -7.672  14.719  68.471  1.00  0.00    -0.120 A  
ENDBRANCH  22  25
ENDBRANCH  12  21
ENDBRANCH  10  11
ENDBRANCH   9  10
ENDBRANCH   5   9
TORSDOF 6
ENDMDL
MODEL      167
REMARK 921   NORMALIZED FREE ENERGY PREDICTED BY IDOCK:   -3.94 KCAL/MOL
REMARK 922        TOTAL FREE ENERGY PREDICTED BY IDOCK:   -6.87 KCAL/MOL
REMARK 923 INTER-LIGAND FREE ENERGY PREDICTED BY IDOCK:   -5.95 KCAL/MOL
REMARK 924 INTRA-LIGAND FREE ENERGY PREDICTED BY IDOCK:   -0.92 KCAL/MOL
REMARK 927      BINDING AFFINITY PREDICTED BY RF-SCORE:    0.00 PKD
ROOT
HETATM    1  C   UNL     1      -5.199  15.439  70.633  1.00  0.00    -0.141 C  
HETATM    2  C   UNL     1      -5.957  14.365  69.921  1.00  0.00    -0.132 A  
HETATM    3  N   UNL     1      -6.691  14.696  68.856  1.00  0.00    -0.091 NA 
HETATM    4  C   UNL     1      -7.339  13.671  68.265  1.00  0.00    -0.119 A  
HETATM    5  C   UNL     1      -7.306  12.343  68.674  1.00  0.00    -0.102 A  
HETATM    6  C   UNL     1      -6.107  10.783  70.376  1.00  0.00    -0.135 C  
HETATM    7  C   UNL     1      -6.494  12.100  69.775  1.00  0.00    -0.050 A  
HETATM    8  N   UNL     1      -5.831  13.115  70.396  1.00  0.00    -0.166 NA 
ENDROOT
BRANCH   5   9
HETATM    9  O   UNL     1      -8.065  11.534  67.885  1.00  0.00    -0.120 OA 
BRANCH   9  10
HETATM   10  C   UNL     1      -8.709  10.413  68.480  1.00  0.00    -0.135 C  
BRANCH  10  11
HETATM   11  C   UNL     1     -10.230  10.540  68.312  1.00  0.00    -0.185 C  
HETATM   12  C   UNL     1     -11.132   9.669  69.221  1.00  0.00    -0.149 C  
HETATM   13  C   UNL     1     -10.888   9.278  67.783  1.00  0.00    -0.192 C  
BRANCH  11  14
HETATM   14  C   UNL     1     -10.784  11.934  67.895  1.00  0.00    -0.239 A  
HETATM   15  C   UNL     1     -11.188  12.228  66.569  1.00  0.00    -0.373 A  
HETATM   16  F   UNL     1     -11.650  15.172  69.377  1.00  0.00    -0.262 F  
HETATM   17  C   UNL     1     -11.746  13.461  66.201  1.00  0.00    -0.405 A  
HETATM   18  C   UNL     1     -10.949  12.985  68.818  1.00  0.00    -0.295 A  
HETATM   19  C   UNL     1     -11.503  14.214  68.452  1.00  0.00    -0.302 A  
HETATM   20  C   UNL     1     -11.911  14.460  67.153  1.00  0.00    -0.419 A  
ENDBRANCH  11  14
BRANCH  12  21
HETATM   21  C   UNL     1     -10.533   8.905  70.366  1.00  0.00    -0.210 C  
HETATM   22  N   UNL     1     -10.215   7.606  70.039  1.00  0.00    -0.208 N  
HETATM   23  H   UNL     1     -10.284   7.331  69.059  1.00  0.00     0.000 HD 
HETATM   24  O   UNL     1     -10.378   9.460  71.444  1.00  0.00    -0.324 OA 
BRANCH  22  25
HETATM   25  C   UNL     1      -9.801   6.636  70.962  1.00  0.00    -0.182 A  
HETATM   26  N   UNL     1      -8.491   6.470  71.229  1.00  0.00    -0.126 NA 
HETATM   27  C   UNL     1      -8.141   5.519  72.128  1.00  0.00    -0.111 A  
HETATM   28  C   UNL     1      -9.055   4.718  72.782  1.00  0.00    -0.122 A  
HETATM   29  C   UNL     1     -10.402   4.901  72.521  1.00  0.00    -0.256 A  
HETATM   30  F   UNL     1      -8.651   3.782  73.647  1.00  0.00    -0.087 F  
HETATM   31  C   UNL     1     -10.785   5.882  71.604  1.00  0.00    -0.308 A  
ENDBRANCH  22  25
ENDBRANCH  12  21
ENDBRANCH  10  11
ENDBRANCH   9  10
ENDBRANCH   5   9
TORSDOF 6
ENDMDL
MODEL      168
REMARK 921   NORMALIZED FREE ENERGY PREDICTED BY IDOCK:   -3.93 KCAL/MOL
REMARK 922        TOTAL FREE ENERGY PREDICTED BY IDOCK:   -6.86 KCAL/MOL
REMARK 923 INTER-LIGAND FREE ENERGY PREDICTED BY IDOCK:   -6.57 KCAL/MOL
REMARK 924 INTRA-LIGAND FREE ENERGY PREDICTED BY IDOCK:   -0.29 KCAL/MOL
REMARK 927      BINDING AFFINITY PREDICTED BY RF-SCORE:    0.00 PKD
ROOT
HETATM    1  C   UNL     1      -9.858  19.070  68.467  1.00  0.00    -0.473 C  
HETATM    2  C   UNL     1      -9.931  17.592  68.679  1.00  0.00    -0.367 A  
HETATM    3  N   UNL     1      -8.917  16.833  68.257  1.00  0.00    -0.221 NA 
HETATM    4  C   UNL     1      -9.054  15.511  68.490  1.00  0.00    -0.196 A  
HETATM    5  C   UNL     1     -10.139  14.902  69.108  1.00  0.00    -0.226 A  
HETATM    6  C   UNL     1     -12.342  15.491  70.362  1.00  0.00    -0.451 C  
HETATM    7  C   UNL     1     -11.128  15.781  69.533  1.00  0.00    -0.306 A  
HETATM    8  N   UNL     1     -11.020  17.121  69.307  1.00  0.00    -0.036 NA 
ENDROOT
BRANCH   5   9
HETATM    9  O   UNL     1      -9.999  13.551  69.199  1.00  0.00     0.056 OA 
BRANCH   9  10
HETATM   10  C   UNL     1     -10.996  12.722  68.613  1.00  0.00    -0.260 C  
BRANCH  10  11
HETATM   11  C   UNL     1     -10.398  11.955  67.424  1.00  0.00    -0.228 C  
HETATM   12  C   UNL     1     -10.024  10.468  67.639  1.00  0.00    -0.202 C  
HETATM   13  C   UNL     1      -8.955  11.535  67.638  1.00  0.00    -0.160 C  
BRANCH  11  14
HETATM   14  C   UNL     1     -10.883  12.363  66.001  1.00  0.00    -0.308 A  
HETATM   15  C   UNL     1     -10.148  13.245  65.171  1.00  0.00    -0.249 A  
HETATM   16  F   UNL     1     -13.596  11.651  63.644  1.00  0.00    -0.305 F  
HETATM   17  C   UNL     1     -10.546  13.567  63.865  1.00  0.00     0.214 A  
HETATM   18  C   UNL     1     -12.068  11.855  65.435  1.00  0.00     0.062 A  
HETATM   19  C   UNL     1     -12.467  12.177  64.136  1.00  0.00    -0.396 A  
HETATM   20  C   UNL     1     -11.713  13.022  63.341  1.00  0.00    -0.477 A  
ENDBRANCH  11  14
BRANCH  12  21
HETATM   21  C   UNL     1     -10.441   9.760  68.895  1.00  0.00    -0.214 C  
HETATM   22  N   UNL     1      -9.855   8.522  69.037  1.00  0.00    -0.178 N  
HETATM   23  H   UNL     1      -9.121   8.265  68.376  1.00  0.00     0.000 HD 
HETATM   24  O   UNL     1     -11.224  10.303  69.661  1.00  0.00    -0.241 OA 
BRANCH  22  25
HETATM   25  C   UNL     1     -10.198   7.592  70.027  1.00  0.00    -0.215 A  
HETATM   26  N   UNL     1     -11.443   7.079  70.072  1.00  0.00    -0.248 NA 
HETATM   27  C   UNL     1     -11.727   6.184  71.048  1.00  0.00    -0.118 A  
HETATM   28  C   UNL     1     -10.807   5.771  71.991  1.00  0.00    -0.251 A  
HETATM   29  C   UNL     1      -9.522   6.284  71.933  1.00  0.00    -0.160 A  
HETATM   30  F   UNL     1     -11.147   4.897  72.944  1.00  0.00    -0.266 F  
HETATM   31  C   UNL     1      -9.207   7.202  70.929  1.00  0.00    -0.152 A  
ENDBRANCH  22  25
ENDBRANCH  12  21
ENDBRANCH  10  11
ENDBRANCH   9  10
ENDBRANCH   5   9
TORSDOF 6
ENDMDL
MODEL      169
REMARK 921   NORMALIZED FREE ENERGY PREDICTED BY IDOCK:   -3.92 KCAL/MOL
REMARK 922        TOTAL FREE ENERGY PREDICTED BY IDOCK:   -6.84 KCAL/MOL
REMARK 923 INTER-LIGAND FREE ENERGY PREDICTED BY IDOCK:   -5.19 KCAL/MOL
REMARK 924 INTRA-LIGAND FREE ENERGY PREDICTED BY IDOCK:   -1.65 KCAL/MOL
REMARK 927      BINDING AFFINITY PREDICTED BY RF-SCORE:    0.00 PKD
ROOT
HETATM    1  C   UNL     1     -12.767  13.239  64.695  1.00  0.00    -0.283 C  
HETATM    2  C   UNL     1     -11.799  12.538  65.593  1.00  0.00    -0.438 A  
HETATM    3  N   UNL     1     -10.608  12.185  65.102  1.00  0.00    -0.276 NA 
HETATM    4  C   UNL     1      -9.789  11.563  65.975  1.00  0.00    -0.225 A  
HETATM    5  C   UNL     1     -10.086  11.265  67.299  1.00  0.00    -0.186 A  
HETATM    6  C   UNL     1     -11.915  11.683  69.103  1.00  0.00    -0.378 C  
HETATM    7  C   UNL     1     -11.339  11.696  67.719  1.00  0.00    -0.288 A  
HETATM    8  N   UNL     1     -12.190  12.323  66.859  1.00  0.00    -0.439 NA 
ENDROOT
BRANCH   5   9
HETATM    9  O   UNL     1      -9.065  10.627  67.934  1.00  0.00    -0.142 OA 
BRANCH   9  10
HETATM   10  C   UNL     1      -8.056  10.006  67.146  1.00  0.00    -0.117 C  
BRANCH  10  11
HETATM   11  C   UNL     1      -6.878   9.596  68.041  1.00  0.00    -0.073 C  
HETATM   12  C   UNL     1      -5.802  10.664  68.354  1.00  0.00    -0.043 C  
HETATM   13  C   UNL     1      -5.542   9.594  67.321  1.00  0.00    -0.040 C  
BRANCH  11  14
HETATM   14  C   UNL     1      -7.163   8.536  69.146  1.00  0.00    -0.068 A  
HETATM   15  C   UNL     1      -7.205   8.864  70.524  1.00  0.00    -0.071 A  
HETATM   16  F   UNL     1      -8.007   4.986  69.485  1.00  0.00    -0.071 F  
HETATM   17  C   UNL     1      -7.524   7.928  71.518  1.00  0.00    -0.073 A  
HETATM   18  C   UNL     1      -7.431   7.187  68.844  1.00  0.00    -0.099 A  
HETATM   19  C   UNL     1      -7.746   6.253  69.834  1.00  0.00    -0.105 A  
HETATM   20  C   UNL     1      -7.803   6.612  71.169  1.00  0.00    -0.102 A  
ENDBRANCH  11  14
BRANCH  12  21
HETATM   21  C   UNL     1      -6.031  12.098  67.974  1.00  0.00    -0.062 C  
HETATM   22  N   UNL     1      -6.718  12.807  68.934  1.00  0.00    -0.094 N  
HETATM   23  H   UNL     1      -6.883  12.354  69.833  1.00  0.00     0.000 HD 
HETATM   24  O   UNL     1      -5.614  12.510  66.901  1.00  0.00    -0.334 OA 
BRANCH  22  25
HETATM   25  C   UNL     1      -7.204  14.110  68.759  1.00  0.00    -0.120 A  
HETATM   26  N   UNL     1      -6.384  15.167  68.919  1.00  0.00    -0.088 NA 
HETATM   27  C   UNL     1      -6.901  16.405  68.741  1.00  0.00    -0.163 A  
HETATM   28  C   UNL     1      -8.219  16.637  68.403  1.00  0.00    -0.206 A  
HETATM   29  C   UNL     1      -9.058  15.551  68.221  1.00  0.00    -0.186 A  
HETATM   30  F   UNL     1      -8.681  17.884  68.257  1.00  0.00    -0.243 F  
HETATM   31  C   UNL     1      -8.542  14.264  68.391  1.00  0.00    -0.175 A  
ENDBRANCH  22  25
ENDBRANCH  12  21
ENDBRANCH  10  11
ENDBRANCH   9  10
ENDBRANCH   5   9
TORSDOF 6
ENDMDL
MODEL      170
REMARK 921   NORMALIZED FREE ENERGY PREDICTED BY IDOCK:   -3.91 KCAL/MOL
REMARK 922        TOTAL FREE ENERGY PREDICTED BY IDOCK:   -6.82 KCAL/MOL
REMARK 923 INTER-LIGAND FREE ENERGY PREDICTED BY IDOCK:   -5.30 KCAL/MOL
REMARK 924 INTRA-LIGAND FREE ENERGY PREDICTED BY IDOCK:   -1.53 KCAL/MOL
REMARK 927      BINDING AFFINITY PREDICTED BY RF-SCORE:    0.00 PKD
ROOT
HETATM    1  C   UNL     1     -11.677   5.610  72.685  1.00  0.00    -0.256 C  
HETATM    2  C   UNL     1     -11.303   6.964  72.172  1.00  0.00    -0.265 A  
HETATM    3  N   UNL     1     -12.232   7.923  72.155  1.00  0.00    -0.316 NA 
HETATM    4  C   UNL     1     -11.816   9.116  71.684  1.00  0.00    -0.372 A  
HETATM    5  C   UNL     1     -10.538   9.409  71.223  1.00  0.00    -0.330 A  
HETATM    6  C   UNL     1      -8.164   8.359  71.049  1.00  0.00    -0.145 C  
HETATM    7  C   UNL     1      -9.640   8.352  71.306  1.00  0.00    -0.185 A  
HETATM    8  N   UNL     1     -10.032   7.133  71.773  1.00  0.00    -0.176 NA 
ENDROOT
BRANCH   5   9
HETATM    9  O   UNL     1     -10.416  10.698  70.804  1.00  0.00     0.432 OA 
BRANCH   9  10
HETATM   10  C   UNL     1     -11.314  11.178  69.810  1.00  0.00    -0.278 C  
BRANCH  10  11
HETATM   11  C   UNL     1     -10.556  12.071  68.815  1.00  0.00    -0.237 C  
HETATM   12  C   UNL     1     -10.080  11.430  67.489  1.00  0.00    -0.205 C  
HETATM   13  C   UNL     1      -9.107  11.665  68.620  1.00  0.00    -0.103 C  
BRANCH  11  14
HETATM   14  C   UNL     1     -10.951  13.577  68.771  1.00  0.00    -0.291 A  
HETATM   15  C   UNL     1     -10.554  14.437  67.718  1.00  0.00    -0.246 A  
HETATM   16  F   UNL     1     -12.941  16.017  70.647  1.00  0.00    -0.441 F  
HETATM   17  C   UNL     1     -10.959  15.778  67.639  1.00  0.00    -0.302 A  
HETATM   18  C   UNL     1     -11.758  14.173  69.760  1.00  0.00    -0.370 A  
HETATM   19  C   UNL     1     -12.160  15.508  69.684  1.00  0.00    -0.328 A  
HETATM   20  C   UNL     1     -11.775  16.316  68.628  1.00  0.00    -0.113 A  
ENDBRANCH  11  14
BRANCH  12  21
HETATM   21  C   UNL     1     -10.541  10.054  67.108  1.00  0.00    -0.232 C  
HETATM   22  N   UNL     1      -9.806   9.054  67.707  1.00  0.00    -0.160 N  
HETATM   23  H   UNL     1      -9.135   9.323  68.426  1.00  0.00     0.000 HD 
HETATM   24  O   UNL     1     -11.483   9.925  66.341  1.00  0.00     0.672 OA 
BRANCH  22  25
HETATM   25  C   UNL     1      -9.920   7.693  67.395  1.00  0.00    -0.192 A  
HETATM   26  N   UNL     1     -10.920   6.958  67.921  1.00  0.00    -0.211 NA 
HETATM   27  C   UNL     1     -10.987   5.647  67.590  1.00  0.00     0.078 A  
HETATM   28  C   UNL     1     -10.088   5.030  66.744  1.00  0.00    -0.239 A  
HETATM   29  C   UNL     1      -9.071   5.789  66.189  1.00  0.00    -0.161 A  
HETATM   30  F   UNL     1     -10.191   3.726  66.466  1.00  0.00    -0.151 F  
HETATM   31  C   UNL     1      -8.989   7.145  66.510  1.00  0.00    -0.172 A  
ENDBRANCH  22  25
ENDBRANCH  12  21
ENDBRANCH  10  11
ENDBRANCH   9  10
ENDBRANCH   5   9
TORSDOF 6
ENDMDL
MODEL      171
REMARK 921   NORMALIZED FREE ENERGY PREDICTED BY IDOCK:   -3.90 KCAL/MOL
REMARK 922        TOTAL FREE ENERGY PREDICTED BY IDOCK:   -6.82 KCAL/MOL
REMARK 923 INTER-LIGAND FREE ENERGY PREDICTED BY IDOCK:   -5.84 KCAL/MOL
REMARK 924 INTRA-LIGAND FREE ENERGY PREDICTED BY IDOCK:   -0.98 KCAL/MOL
REMARK 927      BINDING AFFINITY PREDICTED BY RF-SCORE:    0.00 PKD
ROOT
HETATM    1  C   UNL     1      -9.253  10.403  62.338  1.00  0.00    -0.304 C  
HETATM    2  C   UNL     1      -8.850   9.780  63.636  1.00  0.00    -0.236 A  
HETATM    3  N   UNL     1      -8.280   8.572  63.618  1.00  0.00    -0.155 NA 
HETATM    4  C   UNL     1      -7.939   8.081  64.828  1.00  0.00    -0.143 A  
HETATM    5  C   UNL     1      -8.139   8.713  66.049  1.00  0.00    -0.109 A  
HETATM    6  C   UNL     1      -8.925  10.986  67.042  1.00  0.00    -0.151 C  
HETATM    7  C   UNL     1      -8.715   9.974  65.956  1.00  0.00    -0.138 A  
HETATM    8  N   UNL     1      -9.075  10.496  64.750  1.00  0.00    -0.198 NA 
ENDROOT
BRANCH   5   9
HETATM    9  O   UNL     1      -7.698   7.970  67.101  1.00  0.00    -0.098 OA 
BRANCH   9  10
HETATM   10  C   UNL     1      -8.659   7.345  67.943  1.00  0.00    -0.125 C  
BRANCH  10  11
HETATM   11  C   UNL     1      -7.991   6.219  68.745  1.00  0.00    -0.102 C  
HETATM   12  C   UNL     1      -7.940   6.361  70.286  1.00  0.00    -0.112 C  
HETATM   13  C   UNL     1      -6.717   6.650  69.449  1.00  0.00    -0.050 C  
BRANCH  11  14
HETATM   14  C   UNL     1      -8.107   4.775  68.171  1.00  0.00    -0.085 A  
HETATM   15  C   UNL     1      -7.250   4.288  67.155  1.00  0.00    -0.068 A  
HETATM   16  F   UNL     1     -10.026   1.695  68.682  1.00  0.00    -0.203 F  
HETATM   17  C   UNL     1      -7.307   2.970  66.679  1.00  0.00    -0.070 A  
HETATM   18  C   UNL     1      -9.054   3.849  68.651  1.00  0.00    -0.193 A  
HETATM   19  C   UNL     1      -9.114   2.537  68.177  1.00  0.00    -0.182 A  
HETATM   20  C   UNL     1      -8.244   2.085  67.200  1.00  0.00    -0.075 A  
ENDBRANCH  11  14
BRANCH  12  21
HETATM   21  C   UNL     1      -8.714   7.451  70.967  1.00  0.00    -0.139 C  
HETATM   22  N   UNL     1     -10.060   7.417  70.681  1.00  0.00    -0.190 N  
HETATM   23  H   UNL     1     -10.417   6.612  70.165  1.00  0.00     0.000 HD 
HETATM   24  O   UNL     1      -8.128   8.244  71.689  1.00  0.00    -0.111 OA 
BRANCH  22  25
HETATM   25  C   UNL     1     -10.975   8.413  71.051  1.00  0.00    -0.246 A  
HETATM   26  N   UNL     1     -11.847   8.192  72.054  1.00  0.00    -0.316 NA 
HETATM   27  C   UNL     1     -12.711   9.185  72.374  1.00  0.00    -0.340 A  
HETATM   28  C   UNL     1     -12.740  10.405  71.729  1.00  0.00    -0.421 A  
HETATM   29  C   UNL     1     -11.831  10.638  70.711  1.00  0.00    -0.459 A  
HETATM   30  F   UNL     1     -13.627  11.343  72.075  1.00  0.00    -0.465 F  
HETATM   31  C   UNL     1     -10.925   9.630  70.371  1.00  0.00    -0.356 A  
ENDBRANCH  22  25
ENDBRANCH  12  21
ENDBRANCH  10  11
ENDBRANCH   9  10
ENDBRANCH   5   9
TORSDOF 6
ENDMDL
MODEL      172
REMARK 921   NORMALIZED FREE ENERGY PREDICTED BY IDOCK:   -3.86 KCAL/MOL
REMARK 922        TOTAL FREE ENERGY PREDICTED BY IDOCK:   -6.77 KCAL/MOL
REMARK 923 INTER-LIGAND FREE ENERGY PREDICTED BY IDOCK:   -6.62 KCAL/MOL
REMARK 924 INTRA-LIGAND FREE ENERGY PREDICTED BY IDOCK:   -0.15 KCAL/MOL
REMARK 927      BINDING AFFINITY PREDICTED BY RF-SCORE:    0.00 PKD
ROOT
HETATM    1  C   UNL     1     -12.027  15.295  70.179  1.00  0.00    -0.373 C  
HETATM    2  C   UNL     1     -11.945  13.990  69.455  1.00  0.00    -0.343 A  
HETATM    3  N   UNL     1     -11.593  13.992  68.167  1.00  0.00    -0.314 NA 
HETATM    4  C   UNL     1     -11.535  12.776  67.585  1.00  0.00    -0.334 A  
HETATM    5  C   UNL     1     -11.813  11.564  68.205  1.00  0.00    -0.256 A  
HETATM    6  C   UNL     1     -12.346  10.569  70.550  1.00  0.00    -0.432 C  
HETATM    7  C   UNL     1     -12.144  11.668  69.551  1.00  0.00    -0.270 A  
HETATM    8  N   UNL     1     -12.216  12.883  70.164  1.00  0.00    -0.303 NA 
ENDROOT
BRANCH   5   9
HETATM    9  O   UNL     1     -11.676  10.503  67.364  1.00  0.00    -0.291 OA 
BRANCH   9  10
HETATM   10  C   UNL     1     -10.897   9.392  67.792  1.00  0.00    -0.159 C  
BRANCH  10  11
HETATM   11  C   UNL     1      -9.482   9.492  67.204  1.00  0.00    -0.187 C  
HETATM   12  C   UNL     1      -8.344   8.730  67.925  1.00  0.00    -0.118 C  
HETATM   13  C   UNL     1      -8.502  10.221  68.105  1.00  0.00    -0.123 C  
BRANCH  11  14
HETATM   14  C   UNL     1      -9.366   9.637  65.657  1.00  0.00    -0.296 A  
HETATM   15  C   UNL     1     -10.142  10.564  64.919  1.00  0.00    -0.403 A  
HETATM   16  F   UNL     1      -7.421   8.313  62.848  1.00  0.00    -0.096 F  
HETATM   17  C   UNL     1      -9.998  10.744  63.536  1.00  0.00    -0.403 A  
HETATM   18  C   UNL     1      -8.457   8.877  64.896  1.00  0.00    -0.195 A  
HETATM   19  C   UNL     1      -8.314   9.054  63.518  1.00  0.00    -0.181 A  
HETATM   20  C   UNL     1      -9.070   9.987  62.830  1.00  0.00    -0.301 A  
ENDBRANCH  11  14
BRANCH  12  21
HETATM   21  C   UNL     1      -8.666   7.757  69.022  1.00  0.00    -0.135 C  
HETATM   22  N   UNL     1      -8.008   6.555  68.888  1.00  0.00    -0.110 N  
HETATM   23  H   UNL     1      -7.290   6.484  68.166  1.00  0.00     0.000 HD 
HETATM   24  O   UNL     1      -9.444   8.084  69.907  1.00  0.00    -0.160 OA 
BRANCH  22  25
HETATM   25  C   UNL     1      -8.255   5.424  69.676  1.00  0.00    -0.100 A  
HETATM   26  N   UNL     1      -7.450   5.133  70.717  1.00  0.00    -0.072 NA 
HETATM   27  C   UNL     1      -7.730   4.029  71.448  1.00  0.00    -0.064 A  
HETATM   28  C   UNL     1      -8.796   3.192  71.184  1.00  0.00    -0.083 A  
HETATM   29  C   UNL     1      -9.634   3.501  70.126  1.00  0.00    -0.225 A  
HETATM   30  F   UNL     1      -9.015   2.104  71.929  1.00  0.00    -0.086 F  
HETATM   31  C   UNL     1      -9.368   4.641  69.364  1.00  0.00    -0.208 A  
ENDBRANCH  22  25
ENDBRANCH  12  21
ENDBRANCH  10  11
ENDBRANCH   9  10
ENDBRANCH   5   9
TORSDOF 6
ENDMDL
MODEL      173
REMARK 921   NORMALIZED FREE ENERGY PREDICTED BY IDOCK:   -3.86 KCAL/MOL
REMARK 922        TOTAL FREE ENERGY PREDICTED BY IDOCK:   -6.76 KCAL/MOL
REMARK 923 INTER-LIGAND FREE ENERGY PREDICTED BY IDOCK:   -5.79 KCAL/MOL
REMARK 924 INTRA-LIGAND FREE ENERGY PREDICTED BY IDOCK:   -0.98 KCAL/MOL
REMARK 927      BINDING AFFINITY PREDICTED BY RF-SCORE:    0.00 PKD
ROOT
HETATM    1  C   UNL     1      -6.074  18.086  66.118  1.00  0.00    -0.250 C  
HETATM    2  C   UNL     1      -6.851  16.840  66.401  1.00  0.00    -0.070 A  
HETATM    3  N   UNL     1      -6.304  15.907  67.184  1.00  0.00    -0.318 NA 
HETATM    4  C   UNL     1      -7.068  14.816  67.397  1.00  0.00    -0.143 A  
HETATM    5  C   UNL     1      -8.336  14.597  66.872  1.00  0.00    -0.126 A  
HETATM    6  C   UNL     1     -10.197  15.803  65.511  1.00  0.00    -0.407 C  
HETATM    7  C   UNL     1      -8.826  15.638  66.093  1.00  0.00    -0.276 A  
HETATM    8  N   UNL     1      -8.074  16.750  65.856  1.00  0.00    -0.365 NA 
ENDROOT
BRANCH   5   9
HETATM    9  O   UNL     1      -8.862  13.401  67.258  1.00  0.00    -0.201 OA 
BRANCH   9  10
HETATM   10  C   UNL     1      -9.614  13.345  68.464  1.00  0.00    -0.141 C  
BRANCH  10  11
HETATM   11  C   UNL     1     -11.111  13.486  68.147  1.00  0.00    -0.283 C  
HETATM   12  C   UNL     1     -11.855  14.722  68.711  1.00  0.00    -0.330 C  
HETATM   13  C   UNL     1     -12.002  13.371  69.371  1.00  0.00    -0.369 C  
BRANCH  11  14
HETATM   14  C   UNL     1     -11.601  12.930  66.778  1.00  0.00    -0.416 A  
HETATM   15  C   UNL     1     -12.705  13.483  66.083  1.00  0.00    -0.232 A  
HETATM   16  F   UNL     1     -10.702  10.395  64.289  1.00  0.00    -0.321 F  
HETATM   17  C   UNL     1     -13.112  13.029  64.820  1.00  0.00    -0.022 A  
HETATM   18  C   UNL     1     -10.957  11.861  66.125  1.00  0.00    -0.352 A  
HETATM   19  C   UNL     1     -11.363  11.406  64.868  1.00  0.00    -0.039 A  
HETATM   20  C   UNL     1     -12.430  11.985  64.205  1.00  0.00    -0.437 A  
ENDBRANCH  11  14
BRANCH  12  21
HETATM   21  C   UNL     1     -11.083  15.839  69.349  1.00  0.00    -0.314 C  
HETATM   22  N   UNL     1     -10.642  16.777  68.442  1.00  0.00    -0.336 N  
HETATM   23  H   UNL     1     -10.978  16.704  67.482  1.00  0.00     0.000 HD 
HETATM   24  O   UNL     1     -10.914  15.839  70.560  1.00  0.00    -0.317 OA 
BRANCH  22  25
HETATM   25  C   UNL     1      -9.763  17.825  68.750  1.00  0.00    -0.314 A  
HETATM   26  N   UNL     1     -10.128  19.102  68.527  1.00  0.00    -0.413 NA 
HETATM   27  C   UNL     1      -9.245  20.079  68.840  1.00  0.00     0.062 A  
HETATM   28  C   UNL     1      -7.997  19.833  69.375  1.00  0.00     0.125 A  
HETATM   29  C   UNL     1      -7.629  18.521  69.621  1.00  0.00     0.440 A  
HETATM   30  F   UNL     1      -7.157  20.836  69.648  1.00  0.00     0.136 F  
HETATM   31  C   UNL     1      -8.529  17.498  69.314  1.00  0.00     0.243 A  
ENDBRANCH  22  25
ENDBRANCH  12  21
ENDBRANCH  10  11
ENDBRANCH   9  10
ENDBRANCH   5   9
TORSDOF 6
ENDMDL
MODEL      174
REMARK 921   NORMALIZED FREE ENERGY PREDICTED BY IDOCK:   -3.85 KCAL/MOL
REMARK 922        TOTAL FREE ENERGY PREDICTED BY IDOCK:   -6.74 KCAL/MOL
REMARK 923 INTER-LIGAND FREE ENERGY PREDICTED BY IDOCK:   -6.33 KCAL/MOL
REMARK 924 INTRA-LIGAND FREE ENERGY PREDICTED BY IDOCK:   -0.41 KCAL/MOL
REMARK 927      BINDING AFFINITY PREDICTED BY RF-SCORE:    0.00 PKD
ROOT
HETATM    1  C   UNL     1     -14.408   7.797  72.023  1.00  0.00    -0.472 C  
HETATM    2  C   UNL     1     -13.091   8.027  71.354  1.00  0.00    -0.237 A  
HETATM    3  N   UNL     1     -12.616   9.273  71.285  1.00  0.00    -0.317 NA 
HETATM    4  C   UNL     1     -11.420   9.398  70.673  1.00  0.00    -0.284 A  
HETATM    5  C   UNL     1     -10.677   8.362  70.120  1.00  0.00    -0.236 A  
HETATM    6  C   UNL     1     -10.653   5.767  69.936  1.00  0.00    -0.388 C  
HETATM    7  C   UNL     1     -11.246   7.103  70.267  1.00  0.00    -0.276 A  
HETATM    8  N   UNL     1     -12.455   6.945  70.876  1.00  0.00    -0.337 NA 
ENDROOT
BRANCH   5   9
HETATM    9  O   UNL     1      -9.512   8.794  69.565  1.00  0.00    -0.162 OA 
BRANCH   9  10
HETATM   10  C   UNL     1      -9.267   8.512  68.192  1.00  0.00    -0.137 C  
BRANCH  10  11
HETATM   11  C   UNL     1      -7.755   8.531  67.920  1.00  0.00    -0.103 C  
HETATM   12  C   UNL     1      -7.169   9.764  67.189  1.00  0.00    -0.087 C  
HETATM   13  C   UNL     1      -7.405   8.471  66.444  1.00  0.00    -0.080 C  
BRANCH  11  14
HETATM   14  C   UNL     1      -6.839   7.826  68.963  1.00  0.00    -0.057 A  
HETATM   15  C   UNL     1      -6.011   8.545  69.859  1.00  0.00    -0.028 A  
HETATM   16  F   UNL     1      -6.035   4.463  70.179  1.00  0.00    -0.015 F  
HETATM   17  C   UNL     1      -5.232   7.919  70.843  1.00  0.00    -0.026 A  
HETATM   18  C   UNL     1      -6.799   6.425  69.104  1.00  0.00    -0.062 A  
HETATM   19  C   UNL     1      -6.022   5.799  70.081  1.00  0.00    -0.025 A  
HETATM   20  C   UNL     1      -5.242   6.533  70.959  1.00  0.00    -0.019 A  
ENDBRANCH  11  14
BRANCH  12  21
HETATM   21  C   UNL     1      -8.018  10.979  66.961  1.00  0.00    -0.137 C  
HETATM   22  N   UNL     1      -9.362  10.691  66.876  1.00  0.00    -0.158 N  
HETATM   23  H   UNL     1      -9.659   9.741  67.100  1.00  0.00     0.000 HD 
HETATM   24  O   UNL     1      -7.488  12.077  66.876  1.00  0.00    -0.131 OA 
BRANCH  22  25
HETATM   25  C   UNL     1     -10.349  11.613  66.504  1.00  0.00    -0.224 A  
HETATM   26  N   UNL     1     -10.823  11.627  65.243  1.00  0.00    -0.292 NA 
HETATM   27  C   UNL     1     -11.775  12.537  64.931  1.00  0.00    -0.359 A  
HETATM   28  C   UNL     1     -12.284  13.445  65.837  1.00  0.00    -0.450 A  
HETATM   29  C   UNL     1     -11.810  13.420  67.138  1.00  0.00    -0.429 A  
HETATM   30  F   UNL     1     -13.211  14.336  65.470  1.00  0.00    -0.541 F  
HETATM   31  C   UNL     1     -10.833  12.483  67.483  1.00  0.00    -0.264 A  
ENDBRANCH  22  25
ENDBRANCH  12  21
ENDBRANCH  10  11
ENDBRANCH   9  10
ENDBRANCH   5   9
TORSDOF 6
ENDMDL
MODEL      175
REMARK 921   NORMALIZED FREE ENERGY PREDICTED BY IDOCK:   -3.83 KCAL/MOL
REMARK 922        TOTAL FREE ENERGY PREDICTED BY IDOCK:   -6.72 KCAL/MOL
REMARK 923 INTER-LIGAND FREE ENERGY PREDICTED BY IDOCK:   -5.43 KCAL/MOL
REMARK 924 INTRA-LIGAND FREE ENERGY PREDICTED BY IDOCK:   -1.30 KCAL/MOL
REMARK 927      BINDING AFFINITY PREDICTED BY RF-SCORE:    0.00 PKD
ROOT
HETATM    1  C   UNL     1     -11.029   5.853  69.089  1.00  0.00    -0.382 C  
HETATM    2  C   UNL     1     -10.416   7.217  69.110  1.00  0.00    -0.211 A  
HETATM    3  N   UNL     1     -10.736   8.079  68.142  1.00  0.00    -0.098 NA 
HETATM    4  C   UNL     1     -10.148   9.289  68.234  1.00  0.00    -0.185 A  
HETATM    5  C   UNL     1      -9.258   9.688  69.224  1.00  0.00    -0.183 A  
HETATM    6  C   UNL     1      -8.239   8.870  71.475  1.00  0.00    -0.143 C  
HETATM    7  C   UNL     1      -9.011   8.728  70.197  1.00  0.00    -0.166 A  
HETATM    8  N   UNL     1      -9.586   7.494  70.129  1.00  0.00    -0.168 NA 
ENDROOT
BRANCH   5   9
HETATM    9  O   UNL     1      -8.823  10.967  69.052  1.00  0.00    -0.158 OA 
BRANCH   9  10
HETATM   10  C   UNL     1      -9.328  11.715  67.952  1.00  0.00    -0.174 C  
BRANCH  10  11
HETATM   11  C   UNL     1      -8.370  12.870  67.628  1.00  0.00    -0.176 C  
HETATM   12  C   UNL     1      -6.949  12.511  67.129  1.00  0.00    -0.060 C  
HETATM   13  C   UNL     1      -7.173  12.943  68.558  1.00  0.00    -0.107 C  
BRANCH  11  14
HETATM   14  C   UNL     1      -9.002  14.182  67.076  1.00  0.00    -0.251 A  
HETATM   15  C   UNL     1      -8.642  15.464  67.560  1.00  0.00    -0.187 A  
HETATM   16  F   UNL     1     -11.357  15.299  64.499  1.00  0.00    -0.373 F  
HETATM   17  C   UNL     1      -9.160  16.652  67.024  1.00  0.00    -0.232 A  
HETATM   18  C   UNL     1      -9.950  14.180  66.034  1.00  0.00    -0.340 A  
HETATM   19  C   UNL     1     -10.469  15.362  65.501  1.00  0.00    -0.380 A  
HETATM   20  C   UNL     1     -10.077  16.600  65.980  1.00  0.00    -0.359 A  
ENDBRANCH  11  14
BRANCH  12  21
HETATM   21  C   UNL     1      -6.613  11.093  66.769  1.00  0.00    -0.133 C  
HETATM   22  N   UNL     1      -7.045  10.739  65.511  1.00  0.00    -0.347 N  
HETATM   23  H   UNL     1      -7.417  11.475  64.911  1.00  0.00     0.000 HD 
HETATM   24  O   UNL     1      -6.010  10.396  67.572  1.00  0.00    -0.052 OA 
BRANCH  22  25
HETATM   25  C   UNL     1      -7.008   9.435  64.999  1.00  0.00    -0.096 A  
HETATM   26  N   UNL     1      -6.000   9.053  64.190  1.00  0.00    -0.070 NA 
HETATM   27  C   UNL     1      -6.008   7.783  63.720  1.00  0.00    -0.057 A  
HETATM   28  C   UNL     1      -6.991   6.865  64.029  1.00  0.00    -0.056 A  
HETATM   29  C   UNL     1      -8.017   7.252  64.875  1.00  0.00    -0.127 A  
HETATM   30  F   UNL     1      -6.959   5.629  63.521  1.00  0.00    -0.040 F  
HETATM   31  C   UNL     1      -8.023   8.554  65.378  1.00  0.00    -0.113 A  
ENDBRANCH  22  25
ENDBRANCH  12  21
ENDBRANCH  10  11
ENDBRANCH   9  10
ENDBRANCH   5   9
TORSDOF 6
ENDMDL
MODEL      176
REMARK 921   NORMALIZED FREE ENERGY PREDICTED BY IDOCK:   -3.80 KCAL/MOL
REMARK 922        TOTAL FREE ENERGY PREDICTED BY IDOCK:   -6.68 KCAL/MOL
REMARK 923 INTER-LIGAND FREE ENERGY PREDICTED BY IDOCK:   -5.81 KCAL/MOL
REMARK 924 INTRA-LIGAND FREE ENERGY PREDICTED BY IDOCK:   -0.87 KCAL/MOL
REMARK 927      BINDING AFFINITY PREDICTED BY RF-SCORE:    0.00 PKD
ROOT
HETATM    1  C   UNL     1      -9.554   3.938  70.500  1.00  0.00    -0.263 C  
HETATM    2  C   UNL     1      -9.579   5.113  69.575  1.00  0.00    -0.161 A  
HETATM    3  N   UNL     1     -10.702   5.377  68.903  1.00  0.00    -0.141 NA 
HETATM    4  C   UNL     1     -10.647   6.455  68.095  1.00  0.00    -0.255 A  
HETATM    5  C   UNL     1      -9.542   7.278  67.910  1.00  0.00    -0.139 A  
HETATM    6  C   UNL     1      -7.146   7.682  68.839  1.00  0.00    -0.079 C  
HETATM    7  C   UNL     1      -8.434   6.934  68.673  1.00  0.00    -0.121 A  
HETATM    8  N   UNL     1      -8.457   5.847  69.495  1.00  0.00    -0.113 NA 
ENDROOT
BRANCH   5   9
HETATM    9  O   UNL     1      -9.783   8.286  67.027  1.00  0.00    -0.175 OA 
BRANCH   9  10
HETATM   10  C   UNL     1      -8.995   9.467  67.112  1.00  0.00    -0.134 C  
BRANCH  10  11
HETATM   11  C   UNL     1      -8.864  10.104  65.720  1.00  0.00    -0.177 C  
HETATM   12  C   UNL     1      -8.035   9.346  64.655  1.00  0.00    -0.124 C  
HETATM   13  C   UNL     1      -7.448  10.533  65.381  1.00  0.00    -0.089 C  
BRANCH  11  14
HETATM   14  C   UNL     1     -10.071  10.945  65.209  1.00  0.00    -0.340 A  
HETATM   15  C   UNL     1     -10.502  10.916  63.860  1.00  0.00    -0.359 A  
HETATM   16  F   UNL     1     -12.647  13.222  66.476  1.00  0.00    -0.383 F  
HETATM   17  C   UNL     1     -11.627  11.621  63.406  1.00  0.00    -0.340 A  
HETATM   18  C   UNL     1     -10.833  11.765  66.064  1.00  0.00    -0.343 A  
HETATM   19  C   UNL     1     -11.952  12.470  65.613  1.00  0.00    -0.433 A  
HETATM   20  C   UNL     1     -12.362  12.400  64.293  1.00  0.00    -0.544 A  
ENDBRANCH  11  14
BRANCH  12  21
HETATM   21  C   UNL     1      -7.572   7.943  64.918  1.00  0.00    -0.104 C  
HETATM   22  N   UNL     1      -8.480   6.990  64.515  1.00  0.00    -0.343 N  
HETATM   23  H   UNL     1      -9.287   7.301  63.975  1.00  0.00     0.000 HD 
HETATM   24  O   UNL     1      -6.482   7.757  65.440  1.00  0.00    -0.041 OA 
BRANCH  22  25
HETATM   25  C   UNL     1      -8.369   5.621  64.794  1.00  0.00    -0.128 A  
HETATM   26  N   UNL     1      -7.569   5.196  65.791  1.00  0.00    -0.082 NA 
HETATM   27  C   UNL     1      -7.495   3.864  66.023  1.00  0.00    -0.084 A  
HETATM   28  C   UNL     1      -8.197   2.926  65.293  1.00  0.00    -0.091 A  
HETATM   29  C   UNL     1      -9.034   3.364  64.280  1.00  0.00    -0.114 A  
HETATM   30  F   UNL     1      -8.072   1.620  65.553  1.00  0.00    -0.069 F  
HETATM   31  C   UNL     1      -9.131   4.735  64.031  1.00  0.00    -0.045 A  
ENDBRANCH  22  25
ENDBRANCH  12  21
ENDBRANCH  10  11
ENDBRANCH   9  10
ENDBRANCH   5   9
TORSDOF 6
ENDMDL
MODEL      177
REMARK 921   NORMALIZED FREE ENERGY PREDICTED BY IDOCK:   -3.77 KCAL/MOL
REMARK 922        TOTAL FREE ENERGY PREDICTED BY IDOCK:   -6.64 KCAL/MOL
REMARK 923 INTER-LIGAND FREE ENERGY PREDICTED BY IDOCK:   -5.59 KCAL/MOL
REMARK 924 INTRA-LIGAND FREE ENERGY PREDICTED BY IDOCK:   -1.06 KCAL/MOL
REMARK 927      BINDING AFFINITY PREDICTED BY RF-SCORE:    0.00 PKD
ROOT
HETATM    1  C   UNL     1      -8.279   4.195  66.294  1.00  0.00    -0.105 C  
HETATM    2  C   UNL     1      -8.761   5.475  66.899  1.00  0.00    -0.112 A  
HETATM    3  N   UNL     1     -10.076   5.675  67.012  1.00  0.00    -0.166 NA 
HETATM    4  C   UNL     1     -10.432   6.849  67.573  1.00  0.00    -0.247 A  
HETATM    5  C   UNL     1      -9.560   7.836  68.017  1.00  0.00    -0.150 A  
HETATM    6  C   UNL     1      -7.021   8.271  68.387  1.00  0.00    -0.073 C  
HETATM    7  C   UNL     1      -8.214   7.520  67.878  1.00  0.00    -0.123 A  
HETATM    8  N   UNL     1      -7.824   6.343  67.311  1.00  0.00    -0.103 NA 
ENDROOT
BRANCH   5   9
HETATM    9  O   UNL     1     -10.210   8.915  68.533  1.00  0.00    -0.188 OA 
BRANCH   9  10
HETATM   10  C   UNL     1      -9.794   9.421  69.796  1.00  0.00    -0.201 C  
BRANCH  10  11
HETATM   11  C   UNL     1     -11.025   9.748  70.654  1.00  0.00    -0.398 C  
HETATM   12  C   UNL     1     -11.170   9.023  72.014  1.00  0.00    -0.379 C  
HETATM   13  C   UNL     1     -11.977   8.577  70.818  1.00  0.00    -0.129 C  
BRANCH  11  14
HETATM   14  C   UNL     1     -11.588  11.197  70.561  1.00  0.00    -0.287 A  
HETATM   15  C   UNL     1     -12.627  11.665  71.403  1.00  0.00    -0.391 A  
HETATM   16  F   UNL     1     -11.011  14.327  68.745  1.00  0.00    -0.225 F  
HETATM   17  C   UNL     1     -13.095  12.987  71.369  1.00  0.00    -0.336 A  
HETATM   18  C   UNL     1     -11.078  12.147  69.655  1.00  0.00    -0.046 A  
HETATM   19  C   UNL     1     -11.545  13.463  69.618  1.00  0.00    -0.268 A  
HETATM   20  C   UNL     1     -12.544  13.895  70.472  1.00  0.00    -0.382 A  
ENDBRANCH  11  14
BRANCH  12  21
HETATM   21  C   UNL     1     -10.035   8.206  72.557  1.00  0.00    -0.302 C  
HETATM   22  N   UNL     1     -10.066   6.894  72.139  1.00  0.00    -0.181 N  
HETATM   23  H   UNL     1     -10.747   6.639  71.424  1.00  0.00     0.000 HD 
HETATM   24  O   UNL     1      -9.209   8.734  73.288  1.00  0.00    -0.143 OA 
BRANCH  22  25
HETATM   25  C   UNL     1      -9.225   5.886  72.630  1.00  0.00    -0.137 A  
HETATM   26  N   UNL     1      -9.662   5.045  73.587  1.00  0.00    -0.136 NA 
HETATM   27  C   UNL     1      -8.812   4.088  74.029  1.00  0.00    -0.092 A  
HETATM   28  C   UNL     1      -7.528   3.931  73.548  1.00  0.00    -0.070 A  
HETATM   29  C   UNL     1      -7.085   4.784  72.551  1.00  0.00    -0.080 A  
HETATM   30  F   UNL     1      -6.725   2.979  74.034  1.00  0.00    -0.028 F  
HETATM   31  C   UNL     1      -7.949   5.773  72.075  1.00  0.00    -0.107 A  
ENDBRANCH  22  25
ENDBRANCH  12  21
ENDBRANCH  10  11
ENDBRANCH   9  10
ENDBRANCH   5   9
TORSDOF 6
ENDMDL
MODEL      178
REMARK 921   NORMALIZED FREE ENERGY PREDICTED BY IDOCK:   -3.77 KCAL/MOL
REMARK 922        TOTAL FREE ENERGY PREDICTED BY IDOCK:   -6.64 KCAL/MOL
REMARK 923 INTER-LIGAND FREE ENERGY PREDICTED BY IDOCK:   -5.87 KCAL/MOL
REMARK 924 INTRA-LIGAND FREE ENERGY PREDICTED BY IDOCK:   -0.77 KCAL/MOL
REMARK 927      BINDING AFFINITY PREDICTED BY RF-SCORE:    0.00 PKD
ROOT
HETATM    1  C   UNL     1     -10.607  16.403  65.554  1.00  0.00    -0.346 C  
HETATM    2  C   UNL     1     -10.308  15.242  66.448  1.00  0.00    -0.289 A  
HETATM    3  N   UNL     1      -9.045  14.819  66.549  1.00  0.00    -0.272 NA 
HETATM    4  C   UNL     1      -8.855  13.773  67.379  1.00  0.00    -0.210 A  
HETATM    5  C   UNL     1      -9.845  13.120  68.104  1.00  0.00    -0.228 A  
HETATM    6  C   UNL     1     -12.373  13.302  68.691  1.00  0.00     0.081 C  
HETATM    7  C   UNL     1     -11.119  13.652  67.949  1.00  0.00    -0.261 A  
HETATM    8  N   UNL     1     -11.343  14.706  67.114  1.00  0.00    -0.345 NA 
ENDROOT
BRANCH   5   9
HETATM    9  O   UNL     1      -9.353  12.094  68.852  1.00  0.00     0.017 OA 
BRANCH   9  10
HETATM   10  C   UNL     1      -9.035  10.869  68.202  1.00  0.00    -0.144 C  
BRANCH  10  11
HETATM   11  C   UNL     1     -10.242   9.921  68.263  1.00  0.00    -0.204 C  
HETATM   12  C   UNL     1     -10.192   8.633  67.406  1.00  0.00    -0.329 C  
HETATM   13  C   UNL     1     -11.002   9.824  66.953  1.00  0.00    -0.010 C  
BRANCH  11  14
HETATM   14  C   UNL     1     -11.014   9.842  69.614  1.00  0.00    -0.285 A  
HETATM   15  C   UNL     1     -12.329  10.345  69.770  1.00  0.00    -0.122 A  
HETATM   16  F   UNL     1     -10.615   8.512  73.005  1.00  0.00    -0.330 F  
HETATM   17  C   UNL     1     -13.053  10.220  70.964  1.00  0.00    -0.458 A  
HETATM   18  C   UNL     1     -10.465   9.236  70.760  1.00  0.00    -0.343 A  
HETATM   19  C   UNL     1     -11.184   9.113  71.951  1.00  0.00    -0.329 A  
HETATM   20  C   UNL     1     -12.477   9.593  72.063  1.00  0.00    -0.412 A  
ENDBRANCH  11  14
BRANCH  12  21
HETATM   21  C   UNL     1      -8.918   8.231  66.723  1.00  0.00    -0.147 C  
HETATM   22  N   UNL     1      -9.118   7.745  65.451  1.00  0.00    -0.377 N  
HETATM   23  H   UNL     1     -10.054   7.824  65.053  1.00  0.00     0.000 HD 
HETATM   24  O   UNL     1      -7.854   8.359  67.311  1.00  0.00    -0.096 OA 
BRANCH  22  25
HETATM   25  C   UNL     1      -8.122   7.150  64.664  1.00  0.00    -0.083 A  
HETATM   26  N   UNL     1      -7.472   7.874  63.732  1.00  0.00    -0.107 NA 
HETATM   27  C   UNL     1      -6.519   7.254  62.997  1.00  0.00    -0.053 A  
HETATM   28  C   UNL     1      -6.181   5.926  63.156  1.00  0.00    -0.021 A  
HETATM   29  C   UNL     1      -6.836   5.186  64.126  1.00  0.00    -0.047 A  
HETATM   30  F   UNL     1      -5.243   5.360  62.389  1.00  0.00    -0.011 F  
HETATM   31  C   UNL     1      -7.817   5.809  64.902  1.00  0.00    -0.113 A  
ENDBRANCH  22  25
ENDBRANCH  12  21
ENDBRANCH  10  11
ENDBRANCH   9  10
ENDBRANCH   5   9
TORSDOF 6
ENDMDL
MODEL      179
REMARK 921   NORMALIZED FREE ENERGY PREDICTED BY IDOCK:   -3.74 KCAL/MOL
REMARK 922        TOTAL FREE ENERGY PREDICTED BY IDOCK:   -6.60 KCAL/MOL
REMARK 923 INTER-LIGAND FREE ENERGY PREDICTED BY IDOCK:   -5.49 KCAL/MOL
REMARK 924 INTRA-LIGAND FREE ENERGY PREDICTED BY IDOCK:   -1.12 KCAL/MOL
REMARK 927      BINDING AFFINITY PREDICTED BY RF-SCORE:    0.00 PKD
ROOT
HETATM    1  C   UNL     1     -10.521  11.763  63.063  1.00  0.00    -0.223 C  
HETATM    2  C   UNL     1     -10.033  10.858  64.148  1.00  0.00    -0.344 A  
HETATM    3  N   UNL     1     -10.698  10.828  65.306  1.00  0.00    -0.150 NA 
HETATM    4  C   UNL     1     -10.199   9.983  66.232  1.00  0.00    -0.215 A  
HETATM    5  C   UNL     1      -9.078   9.176  66.078  1.00  0.00    -0.197 A  
HETATM    6  C   UNL     1      -7.358   8.431  64.274  1.00  0.00    -0.096 C  
HETATM    7  C   UNL     1      -8.474   9.263  64.830  1.00  0.00    -0.168 A  
HETATM    8  N   UNL     1      -8.951  10.111  63.876  1.00  0.00    -0.222 NA 
ENDROOT
BRANCH   5   9
HETATM    9  O   UNL     1      -8.813   8.434  67.187  1.00  0.00    -0.127 OA 
BRANCH   9  10
HETATM   10  C   UNL     1      -8.437   9.107  68.383  1.00  0.00    -0.128 C  
BRANCH  10  11
HETATM   11  C   UNL     1      -9.095   8.424  69.591  1.00  0.00    -0.153 C  
HETATM   12  C   UNL     1     -10.327   9.113  70.227  1.00  0.00    -0.253 C  
HETATM   13  C   UNL     1      -8.969   9.218  70.879  1.00  0.00    -0.273 C  
BRANCH  11  14
HETATM   14  C   UNL     1      -9.055   6.868  69.635  1.00  0.00    -0.143 A  
HETATM   15  C   UNL     1     -10.219   6.072  69.502  1.00  0.00    -0.267 A  
HETATM   16  F   UNL     1      -6.638   4.124  69.877  1.00  0.00    -0.030 F  
HETATM   17  C   UNL     1     -10.183   4.670  69.476  1.00  0.00    -0.097 A  
HETATM   18  C   UNL     1      -7.852   6.149  69.776  1.00  0.00    -0.106 A  
HETATM   19  C   UNL     1      -7.814   4.753  69.753  1.00  0.00    -0.066 A  
HETATM   20  C   UNL     1      -8.968   4.005  69.596  1.00  0.00    -0.163 A  
ENDBRANCH  11  14
BRANCH  12  21
HETATM   21  C   UNL     1     -10.974  10.281  69.543  1.00  0.00    -0.258 C  
HETATM   22  N   UNL     1     -10.193  11.416  69.559  1.00  0.00    -0.414 N  
HETATM   23  H   UNL     1      -9.236  11.330  69.899  1.00  0.00     0.000 HD 
HETATM   24  O   UNL     1     -12.082  10.149  69.045  1.00  0.00     0.042 OA 
BRANCH  22  25
HETATM   25  C   UNL     1     -10.626  12.681  69.140  1.00  0.00     0.050 A  
HETATM   26  N   UNL     1     -10.231  13.173  67.950  1.00  0.00    -0.228 NA 
HETATM   27  C   UNL     1     -10.675  14.400  67.589  1.00  0.00    -0.263 A  
HETATM   28  C   UNL     1     -11.510  15.167  68.376  1.00  0.00    -0.332 A  
HETATM   29  C   UNL     1     -11.931  14.654  69.592  1.00  0.00    -0.368 A  
HETATM   30  F   UNL     1     -11.904  16.381  67.978  1.00  0.00    -0.171 F  
HETATM   31  C   UNL     1     -11.492  13.386  69.978  1.00  0.00    -0.126 A  
ENDBRANCH  22  25
ENDBRANCH  12  21
ENDBRANCH  10  11
ENDBRANCH   9  10
ENDBRANCH   5   9
TORSDOF 6
ENDMDL
MODEL      180
REMARK 921   NORMALIZED FREE ENERGY PREDICTED BY IDOCK:   -3.70 KCAL/MOL
REMARK 922        TOTAL FREE ENERGY PREDICTED BY IDOCK:   -6.55 KCAL/MOL
REMARK 923 INTER-LIGAND FREE ENERGY PREDICTED BY IDOCK:   -4.95 KCAL/MOL
REMARK 924 INTRA-LIGAND FREE ENERGY PREDICTED BY IDOCK:   -1.60 KCAL/MOL
REMARK 927      BINDING AFFINITY PREDICTED BY RF-SCORE:    0.00 PKD
ROOT
HETATM    1  C   UNL     1     -13.787   7.625  71.673  1.00  0.00    -0.480 C  
HETATM    2  C   UNL     1     -12.523   6.935  71.270  1.00  0.00    -0.361 A  
HETATM    3  N   UNL     1     -11.759   6.389  72.220  1.00  0.00    -0.303 NA 
HETATM    4  C   UNL     1     -10.640   5.780  71.777  1.00  0.00    -0.238 A  
HETATM    5  C   UNL     1     -10.234   5.689  70.451  1.00  0.00    -0.235 A  
HETATM    6  C   UNL     1     -11.066   6.214  68.042  1.00  0.00    -0.316 C  
HETATM    7  C   UNL     1     -11.110   6.265  69.540  1.00  0.00    -0.408 A  
HETATM    8  N   UNL     1     -12.245   6.892  69.957  1.00  0.00    -0.004 NA 
ENDROOT
BRANCH   5   9
HETATM    9  O   UNL     1      -9.057   5.019  70.310  1.00  0.00    -0.114 OA 
BRANCH   9  10
HETATM   10  C   UNL     1      -7.992   5.654  69.614  1.00  0.00    -0.095 C  
BRANCH  10  11
HETATM   11  C   UNL     1      -7.113   6.429  70.607  1.00  0.00    -0.069 C  
HETATM   12  C   UNL     1      -7.155   7.976  70.554  1.00  0.00    -0.045 C  
HETATM   13  C   UNL     1      -6.000   7.219  69.942  1.00  0.00    -0.024 C  
BRANCH  11  14
HETATM   14  C   UNL     1      -6.872   5.776  72.000  1.00  0.00    -0.076 A  
HETATM   15  C   UNL     1      -7.223   6.418  73.213  1.00  0.00    -0.086 A  
HETATM   16  F   UNL     1      -5.645   2.648  73.463  1.00  0.00     0.000 F  
HETATM   17  C   UNL     1      -7.068   5.809  74.467  1.00  0.00    -0.084 A  
HETATM   18  C   UNL     1      -6.320   4.488  72.142  1.00  0.00    -0.022 A  
HETATM   19  C   UNL     1      -6.162   3.882  73.391  1.00  0.00    -0.020 A  
HETATM   20  C   UNL     1      -6.539   4.527  74.556  1.00  0.00    -0.064 A  
ENDBRANCH  11  14
BRANCH  12  21
HETATM   21  C   UNL     1      -8.184   8.673  69.714  1.00  0.00    -0.121 C  
HETATM   22  N   UNL     1      -7.759   8.909  68.425  1.00  0.00    -0.098 N  
HETATM   23  H   UNL     1      -6.878   8.489  68.131  1.00  0.00     0.000 HD 
HETATM   24  O   UNL     1      -9.266   8.962  70.204  1.00  0.00    -0.161 OA 
BRANCH  22  25
HETATM   25  C   UNL     1      -8.456   9.687  67.491  1.00  0.00    -0.125 A  
HETATM   26  N   UNL     1      -8.317  11.027  67.486  1.00  0.00    -0.117 NA 
HETATM   27  C   UNL     1      -9.011  11.735  66.564  1.00  0.00    -0.196 A  
HETATM   28  C   UNL     1      -9.848  11.154  65.633  1.00  0.00    -0.235 A  
HETATM   29  C   UNL     1      -9.977   9.776  65.626  1.00  0.00    -0.352 A  
HETATM   30  F   UNL     1     -10.525  11.904  64.756  1.00  0.00    -0.275 F  
HETATM   31  C   UNL     1      -9.263   9.026  66.563  1.00  0.00    -0.226 A  
ENDBRANCH  22  25
ENDBRANCH  12  21
ENDBRANCH  10  11
ENDBRANCH   9  10
ENDBRANCH   5   9
TORSDOF 6
ENDMDL
MODEL      181
REMARK 921   NORMALIZED FREE ENERGY PREDICTED BY IDOCK:   -3.65 KCAL/MOL
REMARK 922        TOTAL FREE ENERGY PREDICTED BY IDOCK:   -6.48 KCAL/MOL
REMARK 923 INTER-LIGAND FREE ENERGY PREDICTED BY IDOCK:   -5.14 KCAL/MOL
REMARK 924 INTRA-LIGAND FREE ENERGY PREDICTED BY IDOCK:   -1.34 KCAL/MOL
REMARK 927      BINDING AFFINITY PREDICTED BY RF-SCORE:    0.00 PKD
ROOT
HETATM    1  C   UNL     1     -10.452   7.816  71.975  1.00  0.00    -0.277 C  
HETATM    2  C   UNL     1      -9.702   8.646  70.983  1.00  0.00    -0.210 A  
HETATM    3  N   UNL     1     -10.393   9.399  70.123  1.00  0.00    -0.215 NA 
HETATM    4  C   UNL     1      -9.645  10.122  69.265  1.00  0.00    -0.225 A  
HETATM    5  C   UNL     1      -8.257  10.134  69.205  1.00  0.00    -0.156 A  
HETATM    6  C   UNL     1      -6.172   9.236  70.478  1.00  0.00    -0.058 C  
HETATM    7  C   UNL     1      -7.633   9.337  70.157  1.00  0.00    -0.111 A  
HETATM    8  N   UNL     1      -8.361   8.591  71.035  1.00  0.00    -0.132 NA 
ENDROOT
BRANCH   5   9
HETATM    9  O   UNL     1      -7.782  10.958  68.231  1.00  0.00    -0.101 OA 
BRANCH   9  10
HETATM   10  C   UNL     1      -7.244  10.375  67.050  1.00  0.00    -0.093 C  
BRANCH  10  11
HETATM   11  C   UNL     1      -8.294  10.413  65.929  1.00  0.00    -0.152 C  
HETATM   12  C   UNL     1      -8.774   9.063  65.343  1.00  0.00    -0.221 C  
HETATM   13  C   UNL     1      -7.773   9.911  64.594  1.00  0.00    -0.142 C  
BRANCH  11  14
HETATM   14  C   UNL     1      -9.331  11.575  65.968  1.00  0.00    -0.239 A  
HETATM   15  C   UNL     1     -10.662  11.423  65.509  1.00  0.00    -0.313 A  
HETATM   16  F   UNL     1      -9.621  15.046  67.107  1.00  0.00    -0.206 F  
HETATM   17  C   UNL     1     -11.618  12.445  65.599  1.00  0.00    -0.441 A  
HETATM   18  C   UNL     1      -9.020  12.844  66.494  1.00  0.00    -0.086 A  
HETATM   19  C   UNL     1      -9.970  13.863  66.583  1.00  0.00    -0.279 A  
HETATM   20  C   UNL     1     -11.271  13.674  66.148  1.00  0.00    -0.309 A  
ENDBRANCH  11  14
BRANCH  12  21
HETATM   21  C   UNL     1      -8.386   7.773  66.006  1.00  0.00    -0.133 C  
HETATM   22  N   UNL     1      -9.142   7.491  67.122  1.00  0.00    -0.124 N  
HETATM   23  H   UNL     1      -9.949   8.086  67.312  1.00  0.00     0.000 HD 
HETATM   24  O   UNL     1      -7.480   7.102  65.534  1.00  0.00    -0.076 OA 
BRANCH  22  25
HETATM   25  C   UNL     1      -8.878   6.443  68.013  1.00  0.00    -0.113 A  
HETATM   26  N   UNL     1      -7.656   6.315  68.566  1.00  0.00    -0.091 NA 
HETATM   27  C   UNL     1      -7.450   5.285  69.421  1.00  0.00    -0.065 A  
HETATM   28  C   UNL     1      -8.426   4.368  69.755  1.00  0.00    -0.065 A  
HETATM   29  C   UNL     1      -9.687   4.510  69.201  1.00  0.00    -0.250 A  
HETATM   30  F   UNL     1      -8.162   3.359  70.592  1.00  0.00    -0.054 F  
HETATM   31  C   UNL     1      -9.923   5.570  68.323  1.00  0.00    -0.201 A  
ENDBRANCH  22  25
ENDBRANCH  12  21
ENDBRANCH  10  11
ENDBRANCH   9  10
ENDBRANCH   5   9
TORSDOF 6
ENDMDL
MODEL      182
REMARK 921   NORMALIZED FREE ENERGY PREDICTED BY IDOCK:   -3.59 KCAL/MOL
REMARK 922        TOTAL FREE ENERGY PREDICTED BY IDOCK:   -6.39 KCAL/MOL
REMARK 923 INTER-LIGAND FREE ENERGY PREDICTED BY IDOCK:   -5.59 KCAL/MOL
REMARK 924 INTRA-LIGAND FREE ENERGY PREDICTED BY IDOCK:   -0.80 KCAL/MOL
REMARK 927      BINDING AFFINITY PREDICTED BY RF-SCORE:    0.00 PKD
ROOT
HETATM    1  C   UNL     1      -5.425  16.999  69.043  1.00  0.00    -0.144 C  
HETATM    2  C   UNL     1      -6.280  15.792  68.826  1.00  0.00    -0.105 A  
HETATM    3  N   UNL     1      -7.380  15.911  68.079  1.00  0.00    -0.126 NA 
HETATM    4  C   UNL     1      -8.095  14.777  67.925  1.00  0.00    -0.141 A  
HETATM    5  C   UNL     1      -7.785  13.539  68.475  1.00  0.00    -0.125 A  
HETATM    6  C   UNL     1      -5.902  12.334  69.807  1.00  0.00    -0.123 C  
HETATM    7  C   UNL     1      -6.609  13.515  69.214  1.00  0.00    -0.103 A  
HETATM    8  N   UNL     1      -5.868  14.646  69.391  1.00  0.00    -0.094 NA 
ENDROOT
BRANCH   5   9
HETATM    9  O   UNL     1      -8.696  12.581  68.151  1.00  0.00    -0.180 OA 
BRANCH   9  10
HETATM   10  C   UNL     1      -8.459  11.780  66.999  1.00  0.00    -0.175 C  
BRANCH  10  11
HETATM   11  C   UNL     1      -9.799  11.367  66.371  1.00  0.00    -0.242 C  
HETATM   12  C   UNL     1     -10.532  10.143  66.973  1.00  0.00    -0.302 C  
HETATM   13  C   UNL     1      -9.754  10.014  65.684  1.00  0.00    -0.336 C  
BRANCH  11  14
HETATM   14  C   UNL     1     -10.687  12.504  65.785  1.00  0.00    -0.299 A  
HETATM   15  C   UNL     1     -12.100  12.415  65.729  1.00  0.00    -0.381 A  
HETATM   16  F   UNL     1     -10.376  15.882  64.400  1.00  0.00    -0.110 F  
HETATM   17  C   UNL     1     -12.909  13.460  65.261  1.00  0.00    -0.398 A  
HETATM   18  C   UNL     1     -10.144  13.710  65.302  1.00  0.00    -0.297 A  
HETATM   19  C   UNL     1     -10.948  14.752  64.833  1.00  0.00    -0.412 A  
HETATM   20  C   UNL     1     -12.328  14.642  64.815  1.00  0.00    -0.362 A  
ENDBRANCH  11  14
BRANCH  12  21
HETATM   21  C   UNL     1     -10.050   9.533  68.257  1.00  0.00    -0.183 C  
HETATM   22  N   UNL     1      -8.706   9.236  68.242  1.00  0.00    -0.128 N  
HETATM   23  H   UNL     1      -8.154   9.566  67.450  1.00  0.00     0.000 HD 
HETATM   24  O   UNL     1     -10.840   9.356  69.172  1.00  0.00    -0.220 OA 
BRANCH  22  25
HETATM   25  C   UNL     1      -8.043   8.513  69.243  1.00  0.00    -0.113 A  
HETATM   26  N   UNL     1      -7.884   7.180  69.123  1.00  0.00    -0.115 NA 
HETATM   27  C   UNL     1      -7.237   6.526  70.117  1.00  0.00    -0.080 A  
HETATM   28  C   UNL     1      -6.734   7.153  71.238  1.00  0.00    -0.051 A  
HETATM   29  C   UNL     1      -6.882   8.525  71.353  1.00  0.00    -0.076 A  
HETATM   30  F   UNL     1      -6.120   6.454  72.198  1.00  0.00    -0.036 F  
HETATM   31  C   UNL     1      -7.538   9.221  70.335  1.00  0.00    -0.132 A  
ENDBRANCH  22  25
ENDBRANCH  12  21
ENDBRANCH  10  11
ENDBRANCH   9  10
ENDBRANCH   5   9
TORSDOF 6
ENDMDL
MODEL      183
REMARK 921   NORMALIZED FREE ENERGY PREDICTED BY IDOCK:   -3.57 KCAL/MOL
REMARK 922        TOTAL FREE ENERGY PREDICTED BY IDOCK:   -6.37 KCAL/MOL
REMARK 923 INTER-LIGAND FREE ENERGY PREDICTED BY IDOCK:   -5.24 KCAL/MOL
REMARK 924 INTRA-LIGAND FREE ENERGY PREDICTED BY IDOCK:   -1.13 KCAL/MOL
REMARK 927      BINDING AFFINITY PREDICTED BY RF-SCORE:    0.00 PKD
ROOT
HETATM    1  C   UNL     1      -5.134  11.385  72.294  1.00  0.00     0.261 C  
HETATM    2  C   UNL     1      -5.958  10.279  71.718  1.00  0.00     0.444 A  
HETATM    3  N   UNL     1      -6.576  10.481  70.552  1.00  0.00    -0.314 NA 
HETATM    4  C   UNL     1      -7.295   9.435  70.094  1.00  0.00    -0.110 A  
HETATM    5  C   UNL     1      -7.441   8.208  70.731  1.00  0.00    -0.066 A  
HETATM    6  C   UNL     1      -6.545   6.874  72.777  1.00  0.00    -0.065 C  
HETATM    7  C   UNL     1      -6.738   8.090  71.923  1.00  0.00    -0.067 A  
HETATM    8  N   UNL     1      -6.007   9.132  72.413  1.00  0.00    -0.232 NA 
ENDROOT
BRANCH   5   9
HETATM    9  O   UNL     1      -8.231   7.347  70.032  1.00  0.00    -0.126 OA 
BRANCH   9  10
HETATM   10  C   UNL     1      -9.545   7.087  70.513  1.00  0.00    -0.169 C  
BRANCH  10  11
HETATM   11  C   UNL     1     -10.281   6.161  69.533  1.00  0.00    -0.250 C  
HETATM   12  C   UNL     1     -10.784   6.771  68.202  1.00  0.00    -0.295 C  
HETATM   13  C   UNL     1     -11.743   6.521  69.342  1.00  0.00    -0.088 C  
BRANCH  11  14
HETATM   14  C   UNL     1      -9.841   4.667  69.504  1.00  0.00    -0.286 A  
HETATM   15  C   UNL     1      -9.630   3.913  70.685  1.00  0.00    -0.259 A  
HETATM   16  F   UNL     1      -9.176   1.979  67.104  1.00  0.00    -0.147 F  
HETATM   17  C   UNL     1      -9.296   2.550  70.666  1.00  0.00    -0.212 A  
HETATM   18  C   UNL     1      -9.657   3.959  68.301  1.00  0.00    -0.178 A  
HETATM   19  C   UNL     1      -9.323   2.604  68.280  1.00  0.00    -0.201 A  
HETATM   20  C   UNL     1      -9.148   1.889  69.452  1.00  0.00    -0.163 A  
ENDBRANCH  11  14
BRANCH  12  21
HETATM   21  C   UNL     1     -10.367   8.156  67.803  1.00  0.00    -0.233 C  
HETATM   22  N   UNL     1     -11.209   9.133  68.285  1.00  0.00    -0.395 N  
HETATM   23  H   UNL     1     -11.929   8.854  68.952  1.00  0.00     0.000 HD 
HETATM   24  O   UNL     1      -9.366   8.309  67.119  1.00  0.00    -0.141 OA 
BRANCH  22  25
HETATM   25  C   UNL     1     -11.142  10.485  67.923  1.00  0.00    -0.304 A  
HETATM   26  N   UNL     1     -11.383  10.858  66.651  1.00  0.00    -0.208 NA 
HETATM   27  C   UNL     1     -11.306  12.176  66.350  1.00  0.00    -0.356 A  
HETATM   28  C   UNL     1     -10.998  13.151  67.278  1.00  0.00    -0.268 A  
HETATM   29  C   UNL     1     -10.769  12.769  68.589  1.00  0.00    -0.273 A  
HETATM   30  F   UNL     1     -10.918  14.437  66.921  1.00  0.00    -0.287 F  
HETATM   31  C   UNL     1     -10.852  11.416  68.922  1.00  0.00    -0.259 A  
ENDBRANCH  22  25
ENDBRANCH  12  21
ENDBRANCH  10  11
ENDBRANCH   9  10
ENDBRANCH   5   9
TORSDOF 6
ENDMDL
MODEL      184
REMARK 921   NORMALIZED FREE ENERGY PREDICTED BY IDOCK:   -3.52 KCAL/MOL
REMARK 922        TOTAL FREE ENERGY PREDICTED BY IDOCK:   -6.30 KCAL/MOL
REMARK 923 INTER-LIGAND FREE ENERGY PREDICTED BY IDOCK:   -4.85 KCAL/MOL
REMARK 924 INTRA-LIGAND FREE ENERGY PREDICTED BY IDOCK:   -1.46 KCAL/MOL
REMARK 927      BINDING AFFINITY PREDICTED BY RF-SCORE:    0.00 PKD
ROOT
HETATM    1  C   UNL     1     -11.437   6.005  72.193  1.00  0.00    -0.356 C  
HETATM    2  C   UNL     1     -10.599   7.134  71.685  1.00  0.00    -0.207 A  
HETATM    3  N   UNL     1      -9.285   6.944  71.544  1.00  0.00    -0.152 NA 
HETATM    4  C   UNL     1      -8.598   8.006  71.075  1.00  0.00    -0.133 A  
HETATM    5  C   UNL     1      -9.138   9.244  70.749  1.00  0.00    -0.244 A  
HETATM    6  C   UNL     1     -11.433  10.448  70.507  1.00  0.00    -0.431 C  
HETATM    7  C   UNL     1     -10.516   9.331  70.908  1.00  0.00    -0.302 A  
HETATM    8  N   UNL     1     -11.236   8.277  71.384  1.00  0.00    -0.246 NA 
ENDROOT
BRANCH   5   9
HETATM    9  O   UNL     1      -8.198  10.124  70.307  1.00  0.00    -0.107 OA 
BRANCH   9  10
HETATM   10  C   UNL     1      -7.000   9.611  69.738  1.00  0.00    -0.078 C  
BRANCH  10  11
HETATM   11  C   UNL     1      -6.854  10.115  68.294  1.00  0.00    -0.062 C  
HETATM   12  C   UNL     1      -6.645   9.062  67.179  1.00  0.00    -0.061 C  
HETATM   13  C   UNL     1      -5.479   9.866  67.701  1.00  0.00    -0.035 C  
BRANCH  11  14
HETATM   14  C   UNL     1      -7.640  11.404  67.911  1.00  0.00    -0.108 A  
HETATM   15  C   UNL     1      -8.813  11.372  67.116  1.00  0.00    -0.156 A  
HETATM   16  F   UNL     1      -7.590  15.016  68.528  1.00  0.00    -0.104 F  
HETATM   17  C   UNL     1      -9.561  12.521  66.820  1.00  0.00    -0.231 A  
HETATM   18  C   UNL     1      -7.254  12.682  68.358  1.00  0.00    -0.111 A  
HETATM   19  C   UNL     1      -7.997  13.828  68.062  1.00  0.00    -0.156 A  
HETATM   20  C   UNL     1      -9.153  13.759  67.303  1.00  0.00    -0.232 A  
ENDBRANCH  11  14
BRANCH  12  21
HETATM   21  C   UNL     1      -6.804   7.601  67.483  1.00  0.00    -0.069 C  
HETATM   22  N   UNL     1      -7.966   7.067  66.973  1.00  0.00    -0.114 N  
HETATM   23  H   UNL     1      -8.523   7.650  66.348  1.00  0.00     0.000 HD 
HETATM   24  O   UNL     1      -5.939   7.022  68.123  1.00  0.00    -0.026 OA 
BRANCH  22  25
HETATM   25  C   UNL     1      -8.436   5.776  67.253  1.00  0.00    -0.107 A  
HETATM   26  N   UNL     1      -8.192   4.766  66.396  1.00  0.00    -0.107 NA 
HETATM   27  C   UNL     1      -8.666   3.537  66.711  1.00  0.00    -0.120 A  
HETATM   28  C   UNL     1      -9.381   3.270  67.861  1.00  0.00    -0.194 A  
HETATM   29  C   UNL     1      -9.616   4.305  68.751  1.00  0.00    -0.219 A  
HETATM   30  F   UNL     1      -9.842   2.041  68.113  1.00  0.00    -0.260 F  
HETATM   31  C   UNL     1      -9.127   5.578  68.449  1.00  0.00    -0.117 A  
ENDBRANCH  22  25
ENDBRANCH  12  21
ENDBRANCH  10  11
ENDBRANCH   9  10
ENDBRANCH   5   9
TORSDOF 6
ENDMDL
MODEL      185
REMARK 921   NORMALIZED FREE ENERGY PREDICTED BY IDOCK:   -3.51 KCAL/MOL
REMARK 922        TOTAL FREE ENERGY PREDICTED BY IDOCK:   -6.29 KCAL/MOL
REMARK 923 INTER-LIGAND FREE ENERGY PREDICTED BY IDOCK:   -5.09 KCAL/MOL
REMARK 924 INTRA-LIGAND FREE ENERGY PREDICTED BY IDOCK:   -1.20 KCAL/MOL
REMARK 927      BINDING AFFINITY PREDICTED BY RF-SCORE:    0.00 PKD
ROOT
HETATM    1  C   UNL     1      -7.758  14.567  67.176  1.00  0.00    -0.093 C  
HETATM    2  C   UNL     1      -8.496  13.390  67.727  1.00  0.00    -0.181 A  
HETATM    3  N   UNL     1      -7.802  12.303  68.075  1.00  0.00    -0.135 NA 
HETATM    4  C   UNL     1      -8.538  11.286  68.569  1.00  0.00    -0.156 A  
HETATM    5  C   UNL     1      -9.919  11.283  68.728  1.00  0.00    -0.193 A  
HETATM    6  C   UNL     1     -11.977  12.865  68.545  1.00  0.00    -0.272 C  
HETATM    7  C   UNL     1     -10.543  12.469  68.361  1.00  0.00    -0.242 A  
HETATM    8  N   UNL     1      -9.827  13.512  67.854  1.00  0.00    -0.228 NA 
ENDROOT
BRANCH   5   9
HETATM    9  O   UNL     1     -10.383  10.113  69.246  1.00  0.00    -0.195 OA 
BRANCH   9  10
HETATM   10  C   UNL     1      -9.441   9.161  69.728  1.00  0.00    -0.182 C  
BRANCH  10  11
HETATM   11  C   UNL     1     -10.169   8.075  70.533  1.00  0.00    -0.201 C  
HETATM   12  C   UNL     1     -10.778   6.884  69.754  1.00  0.00    -0.276 C  
HETATM   13  C   UNL     1     -11.658   8.006  70.250  1.00  0.00    -0.003 C  
BRANCH  11  14
HETATM   14  C   UNL     1      -9.640   7.783  71.969  1.00  0.00    -0.217 A  
HETATM   15  C   UNL     1     -10.267   6.857  72.838  1.00  0.00    -0.226 A  
HETATM   16  F   UNL     1      -6.864   8.695  74.180  1.00  0.00    -0.162 F  
HETATM   17  C   UNL     1      -9.760   6.542  74.107  1.00  0.00    -0.291 A  
HETATM   18  C   UNL     1      -8.483   8.399  72.484  1.00  0.00    -0.229 A  
HETATM   19  C   UNL     1      -7.977   8.088  73.749  1.00  0.00    -0.202 A  
HETATM   20  C   UNL     1      -8.601   7.159  74.564  1.00  0.00    -0.230 A  
ENDBRANCH  11  14
BRANCH  12  21
HETATM   21  C   UNL     1     -10.468   6.700  68.297  1.00  0.00    -0.209 C  
HETATM   22  N   UNL     1      -9.241   6.115  68.076  1.00  0.00    -0.117 N  
HETATM   23  H   UNL     1      -8.734   5.753  68.884  1.00  0.00     0.000 HD 
HETATM   24  O   UNL     1     -11.282   7.058  67.459  1.00  0.00    -0.198 OA 
BRANCH  22  25
HETATM   25  C   UNL     1      -8.641   5.984  66.816  1.00  0.00    -0.110 A  
HETATM   26  N   UNL     1      -8.661   4.799  66.176  1.00  0.00    -0.114 NA 
HETATM   27  C   UNL     1      -8.068   4.722  64.962  1.00  0.00    -0.104 A  
HETATM   28  C   UNL     1      -7.450   5.793  64.349  1.00  0.00    -0.075 A  
HETATM   29  C   UNL     1      -7.446   7.016  64.998  1.00  0.00    -0.093 A  
HETATM   30  F   UNL     1      -6.863   5.656  63.155  1.00  0.00    -0.035 F  
HETATM   31  C   UNL     1      -8.060   7.119  66.248  1.00  0.00    -0.118 A  
ENDBRANCH  22  25
ENDBRANCH  12  21
ENDBRANCH  10  11
ENDBRANCH   9  10
ENDBRANCH   5   9
TORSDOF 6
ENDMDL
MODEL      186
REMARK 921   NORMALIZED FREE ENERGY PREDICTED BY IDOCK:   -3.51 KCAL/MOL
REMARK 922        TOTAL FREE ENERGY PREDICTED BY IDOCK:   -6.29 KCAL/MOL
REMARK 923 INTER-LIGAND FREE ENERGY PREDICTED BY IDOCK:   -5.94 KCAL/MOL
REMARK 924 INTRA-LIGAND FREE ENERGY PREDICTED BY IDOCK:   -0.35 KCAL/MOL
REMARK 927      BINDING AFFINITY PREDICTED BY RF-SCORE:    0.00 PKD
ROOT
HETATM    1  C   UNL     1      -6.141  13.247  67.516  1.00  0.00    -0.098 C  
HETATM    2  C   UNL     1      -6.761  11.923  67.827  1.00  0.00    -0.087 A  
HETATM    3  N   UNL     1      -7.365  11.758  69.007  1.00  0.00    -0.090 NA 
HETATM    4  C   UNL     1      -7.905  10.539  69.210  1.00  0.00    -0.144 A  
HETATM    5  C   UNL     1      -7.873   9.475  68.316  1.00  0.00    -0.086 A  
HETATM    6  C   UNL     1      -7.167   8.907  65.877  1.00  0.00    -0.089 C  
HETATM    7  C   UNL     1      -7.244   9.757  67.109  1.00  0.00    -0.087 A  
HETATM    8  N   UNL     1      -6.685  10.977  66.877  1.00  0.00    -0.110 NA 
ENDROOT
BRANCH   5   9
HETATM    9  O   UNL     1      -8.497   8.366  68.800  1.00  0.00    -0.122 OA 
BRANCH   9  10
HETATM   10  C   UNL     1      -9.523   7.767  68.017  1.00  0.00    -0.144 C  
BRANCH  10  11
HETATM   11  C   UNL     1      -9.657   6.282  68.387  1.00  0.00    -0.121 C  
HETATM   12  C   UNL     1     -10.659   5.905  69.505  1.00  0.00    -0.378 C  
HETATM   13  C   UNL     1      -9.177   5.963  69.792  1.00  0.00    -0.160 C  
BRANCH  11  14
HETATM   14  C   UNL     1      -9.449   5.245  67.244  1.00  0.00    -0.134 A  
HETATM   15  C   UNL     1      -8.304   4.415  67.168  1.00  0.00    -0.101 A  
HETATM   16  F   UNL     1     -11.192   3.911  64.310  1.00  0.00    -0.308 F  
HETATM   17  C   UNL     1      -8.141   3.435  66.178  1.00  0.00    -0.092 A  
HETATM   18  C   UNL     1     -10.405   5.042  66.229  1.00  0.00    -0.332 A  
HETATM   19  C   UNL     1     -10.242   4.069  65.241  1.00  0.00    -0.139 A  
HETATM   20  C   UNL     1      -9.122   3.256  65.209  1.00  0.00    -0.147 A  
ENDBRANCH  11  14
BRANCH  12  21
HETATM   21  C   UNL     1     -11.614   6.932  70.040  1.00  0.00    -0.246 C  
HETATM   22  N   UNL     1     -11.058   8.189  70.132  1.00  0.00    -0.362 N  
HETATM   23  H   UNL     1     -10.135   8.332  69.722  1.00  0.00     0.000 HD 
HETATM   24  O   UNL     1     -12.752   6.599  70.335  1.00  0.00     0.006 OA 
BRANCH  22  25
HETATM   25  C   UNL     1     -11.675   9.284  70.750  1.00  0.00    -0.269 A  
HETATM   26  N   UNL     1     -12.375   9.114  71.889  1.00  0.00    -0.366 NA 
HETATM   27  C   UNL     1     -12.953  10.203  72.449  1.00  0.00    -0.064 A  
HETATM   28  C   UNL     1     -12.860  11.472  71.914  1.00  0.00    -0.266 A  
HETATM   29  C   UNL     1     -12.126  11.650  70.754  1.00  0.00    -0.383 A  
HETATM   30  F   UNL     1     -13.468  12.509  72.500  1.00  0.00    -0.617 F  
HETATM   31  C   UNL     1     -11.514  10.541  70.165  1.00  0.00    -0.405 A  
ENDBRANCH  22  25
ENDBRANCH  12  21
ENDBRANCH  10  11
ENDBRANCH   9  10
ENDBRANCH   5   9
TORSDOF 6
ENDMDL
MODEL      187
REMARK 921   NORMALIZED FREE ENERGY PREDICTED BY IDOCK:   -3.50 KCAL/MOL
REMARK 922        TOTAL FREE ENERGY PREDICTED BY IDOCK:   -6.27 KCAL/MOL
REMARK 923 INTER-LIGAND FREE ENERGY PREDICTED BY IDOCK:   -5.18 KCAL/MOL
REMARK 924 INTRA-LIGAND FREE ENERGY PREDICTED BY IDOCK:   -1.09 KCAL/MOL
REMARK 927      BINDING AFFINITY PREDICTED BY RF-SCORE:    0.00 PKD
ROOT
HETATM    1  C   UNL     1      -8.737  15.002  66.821  1.00  0.00    -0.293 C  
HETATM    2  C   UNL     1      -9.083  13.561  67.021  1.00  0.00    -0.244 A  
HETATM    3  N   UNL     1      -8.838  13.001  68.208  1.00  0.00    -0.189 NA 
HETATM    4  C   UNL     1      -9.184  11.701  68.312  1.00  0.00    -0.187 A  
HETATM    5  C   UNL     1      -9.749  10.927  67.306  1.00  0.00    -0.165 A  
HETATM    6  C   UNL     1     -10.718  11.134  64.899  1.00  0.00    -0.318 C  
HETATM    7  C   UNL     1      -9.987  11.609  66.119  1.00  0.00    -0.221 A  
HETATM    8  N   UNL     1      -9.644  12.921  65.982  1.00  0.00    -0.212 NA 
ENDROOT
BRANCH   5   9
HETATM    9  O   UNL     1      -9.984   9.646  67.702  1.00  0.00    -0.157 OA 
BRANCH   9  10
HETATM   10  C   UNL     1      -8.930   8.922  68.325  1.00  0.00    -0.137 C  
BRANCH  10  11
HETATM   11  C   UNL     1      -9.475   8.158  69.541  1.00  0.00    -0.156 C  
HETATM   12  C   UNL     1     -10.319   6.887  69.276  1.00  0.00    -0.212 C  
HETATM   13  C   UNL     1     -10.989   8.188  69.647  1.00  0.00    -0.094 C  
BRANCH  11  14
HETATM   14  C   UNL     1      -8.608   8.173  70.835  1.00  0.00    -0.144 A  
HETATM   15  C   UNL     1      -7.260   8.609  70.843  1.00  0.00    -0.073 A  
HETATM   16  F   UNL     1      -8.902   7.492  74.423  1.00  0.00    -0.239 F  
HETATM   17  C   UNL     1      -6.494   8.686  72.015  1.00  0.00    -0.074 A  
HETATM   18  C   UNL     1      -9.120   7.786  72.088  1.00  0.00    -0.192 A  
HETATM   19  C   UNL     1      -8.357   7.860  73.256  1.00  0.00    -0.193 A  
HETATM   20  C   UNL     1      -7.050   8.314  73.234  1.00  0.00    -0.147 A  
ENDBRANCH  11  14
BRANCH  12  21
HETATM   21  C   UNL     1     -10.404   6.314  67.892  1.00  0.00    -0.193 C  
HETATM   22  N   UNL     1      -9.450   5.351  67.647  1.00  0.00    -0.118 N  
HETATM   23  H   UNL     1      -8.885   5.031  68.433  1.00  0.00     0.000 HD 
HETATM   24  O   UNL     1     -11.266   6.718  67.125  1.00  0.00    -0.379 OA 
BRANCH  22  25
HETATM   25  C   UNL     1      -9.205   4.781  66.390  1.00  0.00    -0.135 A  
HETATM   26  N   UNL     1      -9.779   3.610  66.054  1.00  0.00    -0.132 NA 
HETATM   27  C   UNL     1      -9.511   3.099  64.829  1.00  0.00    -0.150 A  
HETATM   28  C   UNL     1      -8.684   3.716  63.913  1.00  0.00    -0.095 A  
HETATM   29  C   UNL     1      -8.108   4.929  64.251  1.00  0.00    -0.115 A  
HETATM   30  F   UNL     1      -8.439   3.157  62.723  1.00  0.00    -0.075 F  
HETATM   31  C   UNL     1      -8.379   5.478  65.506  1.00  0.00    -0.136 A  
ENDBRANCH  22  25
ENDBRANCH  12  21
ENDBRANCH  10  11
ENDBRANCH   9  10
ENDBRANCH   5   9
TORSDOF 6
ENDMDL
MODEL      188
REMARK 921   NORMALIZED FREE ENERGY PREDICTED BY IDOCK:   -3.49 KCAL/MOL
REMARK 922        TOTAL FREE ENERGY PREDICTED BY IDOCK:   -6.26 KCAL/MOL
REMARK 923 INTER-LIGAND FREE ENERGY PREDICTED BY IDOCK:   -5.91 KCAL/MOL
REMARK 924 INTRA-LIGAND FREE ENERGY PREDICTED BY IDOCK:   -0.34 KCAL/MOL
REMARK 927      BINDING AFFINITY PREDICTED BY RF-SCORE:    0.00 PKD
ROOT
HETATM    1  C   UNL     1     -13.721   9.171  72.742  1.00  0.00    -0.285 C  
HETATM    2  C   UNL     1     -12.873   9.332  71.521  1.00  0.00    -0.354 A  
HETATM    3  N   UNL     1     -13.053  10.409  70.752  1.00  0.00    -0.361 NA 
HETATM    4  C   UNL     1     -12.247  10.486  69.673  1.00  0.00    -0.137 A  
HETATM    5  C   UNL     1     -11.282   9.554  69.311  1.00  0.00    -0.000 A  
HETATM    6  C   UNL     1     -10.126   7.396  70.193  1.00  0.00    -0.197 C  
HETATM    7  C   UNL     1     -11.156   8.485  70.189  1.00  0.00    -0.188 A  
HETATM    8  N   UNL     1     -11.960   8.377  71.285  1.00  0.00    -0.288 NA 
ENDROOT
BRANCH   5   9
HETATM    9  O   UNL     1     -10.627   9.897  68.168  1.00  0.00    -0.200 OA 
BRANCH   9  10
HETATM   10  C   UNL     1      -9.420  10.644  68.274  1.00  0.00    -0.159 C  
BRANCH  10  11
HETATM   11  C   UNL     1      -9.199  11.455  66.989  1.00  0.00    -0.174 C  
HETATM   12  C   UNL     1      -8.273  10.852  65.904  1.00  0.00    -0.133 C  
HETATM   13  C   UNL     1      -7.772  11.944  66.819  1.00  0.00    -0.051 C  
BRANCH  11  14
HETATM   14  C   UNL     1     -10.383  12.339  66.495  1.00  0.00    -0.250 A  
HETATM   15  C   UNL     1     -11.074  13.231  67.351  1.00  0.00    -0.300 A  
HETATM   16  F   UNL     1     -12.208  13.129  63.418  1.00  0.00    -0.539 F  
HETATM   17  C   UNL     1     -12.099  14.076  66.899  1.00  0.00    -0.465 A  
HETATM   18  C   UNL     1     -10.821  12.331  65.157  1.00  0.00    -0.340 A  
HETATM   19  C   UNL     1     -11.843  13.169  64.706  1.00  0.00    -0.369 A  
HETATM   20  C   UNL     1     -12.482  14.049  65.562  1.00  0.00    -0.533 A  
ENDBRANCH  11  14
BRANCH  12  21
HETATM   21  C   UNL     1      -7.798   9.433  66.023  1.00  0.00    -0.099 C  
HETATM   22  N   UNL     1      -7.277   8.939  64.849  1.00  0.00    -0.090 N  
HETATM   23  H   UNL     1      -7.141   9.591  64.077  1.00  0.00     0.000 HD 
HETATM   24  O   UNL     1      -7.900   8.852  67.094  1.00  0.00    -0.095 OA 
BRANCH  22  25
HETATM   25  C   UNL     1      -6.919   7.599  64.643  1.00  0.00    -0.052 A  
HETATM   26  N   UNL     1      -5.753   7.127  65.126  1.00  0.00    -0.035 NA 
HETATM   27  C   UNL     1      -5.452   5.827  64.901  1.00  0.00    -0.016 A  
HETATM   28  C   UNL     1      -6.277   4.965  64.206  1.00  0.00    -0.022 A  
HETATM   29  C   UNL     1      -7.483   5.445  63.725  1.00  0.00    -0.060 A  
HETATM   30  F   UNL     1      -5.920   3.693  63.997  1.00  0.00    -0.013 F  
HETATM   31  C   UNL     1      -7.817   6.782  63.954  1.00  0.00    -0.106 A  
ENDBRANCH  22  25
ENDBRANCH  12  21
ENDBRANCH  10  11
ENDBRANCH   9  10
ENDBRANCH   5   9
TORSDOF 6
ENDMDL
MODEL      189
REMARK 921   NORMALIZED FREE ENERGY PREDICTED BY IDOCK:   -3.46 KCAL/MOL
REMARK 922        TOTAL FREE ENERGY PREDICTED BY IDOCK:   -6.22 KCAL/MOL
REMARK 923 INTER-LIGAND FREE ENERGY PREDICTED BY IDOCK:   -5.44 KCAL/MOL
REMARK 924 INTRA-LIGAND FREE ENERGY PREDICTED BY IDOCK:   -0.78 KCAL/MOL
REMARK 927      BINDING AFFINITY PREDICTED BY RF-SCORE:    0.00 PKD
ROOT
HETATM    1  C   UNL     1      -5.709   5.406  69.549  1.00  0.00    -0.016 C  
HETATM    2  C   UNL     1      -6.492   6.404  68.757  1.00  0.00    -0.046 A  
HETATM    3  N   UNL     1      -5.862   7.482  68.282  1.00  0.00    -0.027 NA 
HETATM    4  C   UNL     1      -6.635   8.331  67.573  1.00  0.00    -0.058 A  
HETATM    5  C   UNL     1      -7.992   8.177  67.319  1.00  0.00    -0.113 A  
HETATM    6  C   UNL     1      -9.922   6.458  67.620  1.00  0.00    -0.150 C  
HETATM    7  C   UNL     1      -8.546   7.012  67.835  1.00  0.00    -0.126 A  
HETATM    8  N   UNL     1      -7.793   6.137  68.559  1.00  0.00    -0.102 NA 
ENDROOT
BRANCH   5   9
HETATM    9  O   UNL     1      -8.505   9.200  66.581  1.00  0.00    -0.120 OA 
BRANCH   9  10
HETATM   10  C   UNL     1      -8.322  10.532  67.044  1.00  0.00    -0.128 C  
BRANCH  10  11
HETATM   11  C   UNL     1      -9.674  11.260  67.078  1.00  0.00    -0.208 C  
HETATM   12  C   UNL     1     -10.684  10.855  68.179  1.00  0.00    -0.256 C  
HETATM   13  C   UNL     1     -10.854  10.358  66.764  1.00  0.00    -0.186 C  
BRANCH  11  14
HETATM   14  C   UNL     1      -9.691  12.747  66.615  1.00  0.00    -0.252 A  
HETATM   15  C   UNL     1     -10.287  13.159  65.398  1.00  0.00    -0.313 A  
HETATM   16  F   UNL     1      -8.689  16.068  67.795  1.00  0.00    -0.164 F  
HETATM   17  C   UNL     1     -10.362  14.503  65.006  1.00  0.00    -0.442 A  
HETATM   18  C   UNL     1      -9.143  13.784  67.395  1.00  0.00    -0.221 A  
HETATM   19  C   UNL     1      -9.214  15.123  67.005  1.00  0.00    -0.223 A  
HETATM   20  C   UNL     1      -9.826  15.495  65.820  1.00  0.00    -0.392 A  
ENDBRANCH  11  14
BRANCH  12  21
HETATM   21  C   UNL     1     -10.258   9.947  69.295  1.00  0.00    -0.209 C  
HETATM   22  N   UNL     1      -9.010  10.251  69.792  1.00  0.00    -0.391 N  
HETATM   23  H   UNL     1      -8.565  11.109  69.466  1.00  0.00     0.000 HD 
HETATM   24  O   UNL     1     -11.007   9.054  69.665  1.00  0.00    -0.220 OA 
BRANCH  22  25
HETATM   25  C   UNL     1      -8.311   9.463  70.716  1.00  0.00    -0.131 A  
HETATM   26  N   UNL     1      -6.976   9.595  70.847  1.00  0.00    -0.287 NA 
HETATM   27  C   UNL     1      -6.346   8.810  71.752  1.00  0.00    -0.074 A  
HETATM   28  C   UNL     1      -6.999   7.889  72.545  1.00  0.00    -0.080 A  
HETATM   29  C   UNL     1      -8.373   7.766  72.424  1.00  0.00    -0.164 A  
HETATM   30  F   UNL     1      -6.323   7.127  73.411  1.00  0.00    -0.062 F  
HETATM   31  C   UNL     1      -9.044   8.572  71.502  1.00  0.00    -0.281 A  
ENDBRANCH  22  25
ENDBRANCH  12  21
ENDBRANCH  10  11
ENDBRANCH   9  10
ENDBRANCH   5   9
TORSDOF 6
ENDMDL
MODEL      190
REMARK 921   NORMALIZED FREE ENERGY PREDICTED BY IDOCK:   -3.33 KCAL/MOL
REMARK 922        TOTAL FREE ENERGY PREDICTED BY IDOCK:   -6.04 KCAL/MOL
REMARK 923 INTER-LIGAND FREE ENERGY PREDICTED BY IDOCK:   -5.90 KCAL/MOL
REMARK 924 INTRA-LIGAND FREE ENERGY PREDICTED BY IDOCK:   -0.14 KCAL/MOL
REMARK 927      BINDING AFFINITY PREDICTED BY RF-SCORE:    0.00 PKD
ROOT
HETATM    1  C   UNL     1     -13.577   7.120  71.528  1.00  0.00    -0.408 C  
HETATM    2  C   UNL     1     -12.180   6.921  71.034  1.00  0.00    -0.377 A  
HETATM    3  N   UNL     1     -11.171   7.019  71.903  1.00  0.00    -0.242 NA 
HETATM    4  C   UNL     1      -9.943   6.821  71.382  1.00  0.00    -0.179 A  
HETATM    5  C   UNL     1      -9.659   6.541  70.051  1.00  0.00    -0.159 A  
HETATM    6  C   UNL     1     -10.850   5.994  67.803  1.00  0.00    -0.380 C  
HETATM    7  C   UNL     1     -10.778   6.435  69.234  1.00  0.00    -0.292 A  
HETATM    8  N   UNL     1     -12.031   6.635  69.730  1.00  0.00    -0.125 NA 
ENDROOT
BRANCH   5   9
HETATM    9  O   UNL     1      -8.325   6.397  69.820  1.00  0.00    -0.123 OA 
BRANCH   9  10
HETATM   10  C   UNL     1      -7.639   7.432  69.127  1.00  0.00    -0.105 C  
BRANCH  10  11
HETATM   11  C   UNL     1      -7.028   8.415  70.137  1.00  0.00    -0.042 C  
HETATM   12  C   UNL     1      -7.554   9.872  70.136  1.00  0.00    -0.185 C  
HETATM   13  C   UNL     1      -6.232   9.533  69.489  1.00  0.00    -0.040 C  
BRANCH  11  14
HETATM   14  C   UNL     1      -6.569   7.831  71.506  1.00  0.00    -0.045 A  
HETATM   15  C   UNL     1      -6.675   8.558  72.718  1.00  0.00    -0.074 A  
HETATM   16  F   UNL     1      -5.220   4.736  72.931  1.00  0.00    -0.006 F  
HETATM   17  C   UNL     1      -6.324   8.014  73.962  1.00  0.00    -0.113 A  
HETATM   18  C   UNL     1      -6.049   6.529  71.632  1.00  0.00    -0.037 A  
HETATM   19  C   UNL     1      -5.696   5.987  72.871  1.00  0.00    -0.037 A  
HETATM   20  C   UNL     1      -5.835   6.715  74.040  1.00  0.00    -0.062 A  
ENDBRANCH  11  14
BRANCH  12  21
HETATM   21  C   UNL     1      -8.765  10.234  69.328  1.00  0.00    -0.174 C  
HETATM   22  N   UNL     1      -8.673  11.479  68.746  1.00  0.00    -0.338 N  
HETATM   23  H   UNL     1      -7.777  11.964  68.800  1.00  0.00     0.000 HD 
HETATM   24  O   UNL     1      -9.694   9.443  69.246  1.00  0.00    -0.162 OA 
BRANCH  22  25
HETATM   25  C   UNL     1      -9.725  12.124  68.082  1.00  0.00    -0.208 A  
HETATM   26  N   UNL     1     -10.293  13.221  68.620  1.00  0.00    -0.227 NA 
HETATM   27  C   UNL     1     -11.308  13.809  67.941  1.00  0.00    -0.299 A  
HETATM   28  C   UNL     1     -11.783  13.343  66.732  1.00  0.00    -0.385 A  
HETATM   29  C   UNL     1     -11.188  12.226  66.171  1.00  0.00    -0.372 A  
HETATM   30  F   UNL     1     -12.801  13.952  66.115  1.00  0.00    -0.466 F  
HETATM   31  C   UNL     1     -10.134  11.610  66.850  1.00  0.00    -0.238 A  
ENDBRANCH  22  25
ENDBRANCH  12  21
ENDBRANCH  10  11
ENDBRANCH   9  10
ENDBRANCH   5   9
TORSDOF 6
ENDMDL
MODEL      191
REMARK 921   NORMALIZED FREE ENERGY PREDICTED BY IDOCK:   -3.24 KCAL/MOL
REMARK 922        TOTAL FREE ENERGY PREDICTED BY IDOCK:   -5.92 KCAL/MOL
REMARK 923 INTER-LIGAND FREE ENERGY PREDICTED BY IDOCK:   -5.42 KCAL/MOL
REMARK 924 INTRA-LIGAND FREE ENERGY PREDICTED BY IDOCK:   -0.50 KCAL/MOL
REMARK 927      BINDING AFFINITY PREDICTED BY RF-SCORE:    0.00 PKD
ROOT
HETATM    1  C   UNL     1     -14.276   8.719  72.826  1.00  0.00    -0.141 C  
HETATM    2  C   UNL     1     -13.250   8.985  71.771  1.00  0.00    -0.389 A  
HETATM    3  N   UNL     1     -13.361  10.092  71.033  1.00  0.00    -0.346 NA 
HETATM    4  C   UNL     1     -12.395  10.264  70.107  1.00  0.00    -0.142 A  
HETATM    5  C   UNL     1     -11.334   9.398  69.868  1.00  0.00    -0.093 A  
HETATM    6  C   UNL     1     -10.221   7.252  70.830  1.00  0.00    -0.203 C  
HETATM    7  C   UNL     1     -11.295   8.291  70.706  1.00  0.00    -0.266 A  
HETATM    8  N   UNL     1     -12.259   8.087  71.647  1.00  0.00    -0.296 NA 
ENDROOT
BRANCH   5   9
HETATM    9  O   UNL     1     -10.521   9.833  68.866  1.00  0.00    -0.199 OA 
BRANCH   9  10
HETATM   10  C   UNL     1     -10.579   9.171  67.608  1.00  0.00    -0.242 C  
BRANCH  10  11
HETATM   11  C   UNL     1      -9.201   8.581  67.269  1.00  0.00    -0.168 C  
HETATM   12  C   UNL     1      -7.953   9.452  67.556  1.00  0.00    -0.102 C  
HETATM   13  C   UNL     1      -8.487   9.316  66.149  1.00  0.00    -0.135 C  
BRANCH  11  14
HETATM   14  C   UNL     1      -9.035   7.039  67.413  1.00  0.00    -0.117 A  
HETATM   15  C   UNL     1     -10.133   6.147  67.350  1.00  0.00    -0.190 A  
HETATM   16  F   UNL     1      -6.402   4.519  67.792  1.00  0.00    -0.032 F  
HETATM   17  C   UNL     1      -9.984   4.753  67.415  1.00  0.00    -0.204 A  
HETATM   18  C   UNL     1      -7.777   6.430  67.581  1.00  0.00    -0.102 A  
HETATM   19  C   UNL     1      -7.627   5.043  67.647  1.00  0.00    -0.087 A  
HETATM   20  C   UNL     1      -8.718   4.197  67.558  1.00  0.00    -0.117 A  
ENDBRANCH  11  14
BRANCH  12  21
HETATM   21  C   UNL     1      -8.086  10.726  68.338  1.00  0.00    -0.127 C  
HETATM   22  N   UNL     1      -8.851  11.675  67.697  1.00  0.00    -0.154 N  
HETATM   23  H   UNL     1      -9.347  11.394  66.851  1.00  0.00     0.000 HD 
HETATM   24  O   UNL     1      -7.540  10.823  69.427  1.00  0.00    -0.133 OA 
BRANCH  22  25
HETATM   25  C   UNL     1      -8.994  13.001  68.128  1.00  0.00    -0.198 A  
HETATM   26  N   UNL     1     -10.218  13.501  68.385  1.00  0.00    -0.242 NA 
HETATM   27  C   UNL     1     -10.304  14.788  68.799  1.00  0.00    -0.248 A  
HETATM   28  C   UNL     1      -9.206  15.605  68.973  1.00  0.00    -0.243 A  
HETATM   29  C   UNL     1      -7.947  15.085  68.727  1.00  0.00    -0.162 A  
HETATM   30  F   UNL     1      -9.352  16.875  69.367  1.00  0.00    -0.201 F  
HETATM   31  C   UNL     1      -7.835  13.758  68.307  1.00  0.00    -0.144 A  
ENDBRANCH  22  25
ENDBRANCH  12  21
ENDBRANCH  10  11
ENDBRANCH   9  10
ENDBRANCH   5   9
TORSDOF 6
ENDMDL
MODEL      192
REMARK 921   NORMALIZED FREE ENERGY PREDICTED BY IDOCK:   -3.23 KCAL/MOL
REMARK 922        TOTAL FREE ENERGY PREDICTED BY IDOCK:   -5.92 KCAL/MOL
REMARK 923 INTER-LIGAND FREE ENERGY PREDICTED BY IDOCK:   -5.87 KCAL/MOL
REMARK 924 INTRA-LIGAND FREE ENERGY PREDICTED BY IDOCK:   -0.05 KCAL/MOL
REMARK 927      BINDING AFFINITY PREDICTED BY RF-SCORE:    0.00 PKD
ROOT
HETATM    1  C   UNL     1     -10.660  11.091  62.586  1.00  0.00     0.504 C  
HETATM    2  C   UNL     1     -10.142  11.257  63.979  1.00  0.00    -0.329 A  
HETATM    3  N   UNL     1      -9.872  12.488  64.421  1.00  0.00    -0.138 NA 
HETATM    4  C   UNL     1      -9.414  12.555  65.688  1.00  0.00    -0.004 A  
HETATM    5  C   UNL     1      -9.201  11.474  66.534  1.00  0.00    -0.194 A  
HETATM    6  C   UNL     1      -9.583   8.903  66.663  1.00  0.00    -0.281 C  
HETATM    7  C   UNL     1      -9.536  10.240  65.989  1.00  0.00    -0.206 A  
HETATM    8  N   UNL     1      -9.997  10.140  64.710  1.00  0.00    -0.321 NA 
ENDROOT
BRANCH   5   9
HETATM    9  O   UNL     1      -8.728  11.850  67.754  1.00  0.00    -0.145 OA 
BRANCH   9  10
HETATM   10  C   UNL     1      -9.580  11.714  68.886  1.00  0.00     0.009 C  
BRANCH  10  11
HETATM   11  C   UNL     1     -10.720  12.740  68.802  1.00  0.00    -0.246 C  
HETATM   12  C   UNL     1     -12.009  12.454  69.611  1.00  0.00    -0.341 C  
HETATM   13  C   UNL     1     -11.967  12.205  68.122  1.00  0.00    -0.242 C  
BRANCH  11  14
HETATM   14  C   UNL     1     -10.318  14.233  68.618  1.00  0.00    -0.246 A  
HETATM   15  C   UNL     1      -9.371  14.875  69.454  1.00  0.00    -0.054 A  
HETATM   16  F   UNL     1     -10.963  17.063  66.381  1.00  0.00    -0.185 F  
HETATM   17  C   UNL     1      -8.957  16.201  69.254  1.00  0.00    -0.200 A  
HETATM   18  C   UNL     1     -10.846  15.034  67.587  1.00  0.00    -0.291 A  
HETATM   19  C   UNL     1     -10.437  16.354  67.389  1.00  0.00    -0.309 A  
HETATM   20  C   UNL     1      -9.490  16.944  68.208  1.00  0.00    -0.250 A  
ENDBRANCH  11  14
BRANCH  12  21
HETATM   21  C   UNL     1     -12.041  11.330  70.605  1.00  0.00    -0.383 C  
HETATM   22  N   UNL     1     -11.744  10.107  70.046  1.00  0.00    -0.379 N  
HETATM   23  H   UNL     1     -11.412  10.093  69.082  1.00  0.00     0.000 HD 
HETATM   24  O   UNL     1     -12.310  11.568  71.773  1.00  0.00    -0.070 OA 
BRANCH  22  25
HETATM   25  C   UNL     1     -11.867   8.881  70.713  1.00  0.00    -0.194 A  
HETATM   26  N   UNL     1     -10.862   7.984  70.673  1.00  0.00    -0.230 NA 
HETATM   27  C   UNL     1     -11.028   6.814  71.333  1.00  0.00    -0.242 A  
HETATM   28  C   UNL     1     -12.169   6.496  72.042  1.00  0.00    -0.295 A  
HETATM   29  C   UNL     1     -13.194   7.425  72.098  1.00  0.00    -0.062 A  
HETATM   30  F   UNL     1     -12.286   5.316  72.660  1.00  0.00    -0.268 F  
HETATM   31  C   UNL     1     -13.040   8.642  71.432  1.00  0.00    -0.277 A  
ENDBRANCH  22  25
ENDBRANCH  12  21
ENDBRANCH  10  11
ENDBRANCH   9  10
ENDBRANCH   5   9
TORSDOF 6
ENDMDL
MODEL      193
REMARK 921   NORMALIZED FREE ENERGY PREDICTED BY IDOCK:   -3.19 KCAL/MOL
REMARK 922        TOTAL FREE ENERGY PREDICTED BY IDOCK:   -5.86 KCAL/MOL
REMARK 923 INTER-LIGAND FREE ENERGY PREDICTED BY IDOCK:   -5.41 KCAL/MOL
REMARK 924 INTRA-LIGAND FREE ENERGY PREDICTED BY IDOCK:   -0.45 KCAL/MOL
REMARK 927      BINDING AFFINITY PREDICTED BY RF-SCORE:    0.00 PKD
ROOT
HETATM    1  C   UNL     1      -5.307   2.876  72.594  1.00  0.00     0.000 C  
HETATM    2  C   UNL     1      -6.226   4.044  72.434  1.00  0.00    -0.020 A  
HETATM    3  N   UNL     1      -7.452   3.834  71.947  1.00  0.00    -0.055 NA 
HETATM    4  C   UNL     1      -8.223   4.935  71.839  1.00  0.00    -0.115 A  
HETATM    5  C   UNL     1      -7.845   6.229  72.177  1.00  0.00    -0.104 A  
HETATM    6  C   UNL     1      -5.897   7.537  73.303  1.00  0.00    -0.048 C  
HETATM    7  C   UNL     1      -6.562   6.337  72.698  1.00  0.00    -0.064 A  
HETATM    8  N   UNL     1      -5.757   5.243  72.814  1.00  0.00    -0.021 NA 
ENDROOT
BRANCH   5   9
HETATM    9  O   UNL     1      -8.834   7.137  71.953  1.00  0.00    -0.124 OA 
BRANCH   9  10
HETATM   10  C   UNL     1      -8.707   8.023  70.847  1.00  0.00    -0.138 C  
BRANCH  10  11
HETATM   11  C   UNL     1      -9.552   7.508  69.672  1.00  0.00    -0.159 C  
HETATM   12  C   UNL     1     -10.895   8.220  69.382  1.00  0.00    -0.095 C  
HETATM   13  C   UNL     1     -10.872   6.892  70.099  1.00  0.00    -0.300 C  
BRANCH  11  14
HETATM   14  C   UNL     1      -8.784   6.923  68.450  1.00  0.00    -0.124 A  
HETATM   15  C   UNL     1      -9.445   6.465  67.283  1.00  0.00    -0.135 A  
HETATM   16  F   UNL     1      -5.352   6.332  67.307  1.00  0.00    -0.004 F  
HETATM   17  C   UNL     1      -8.756   5.997  66.155  1.00  0.00    -0.146 A  
HETATM   18  C   UNL     1      -7.378   6.841  68.413  1.00  0.00    -0.087 A  
HETATM   19  C   UNL     1      -6.691   6.373  67.291  1.00  0.00    -0.060 A  
HETATM   20  C   UNL     1      -7.366   5.956  66.156  1.00  0.00    -0.081 A  
ENDBRANCH  11  14
BRANCH  12  21
HETATM   21  C   UNL     1     -11.238   9.500  70.088  1.00  0.00    -0.234 C  
HETATM   22  N   UNL     1     -11.790  10.445  69.253  1.00  0.00    -0.504 N  
HETATM   23  H   UNL     1     -12.032  10.159  68.304  1.00  0.00     0.000 HD 
HETATM   24  O   UNL     1     -11.017   9.604  71.285  1.00  0.00    -0.349 OA 
BRANCH  22  25
HETATM   25  C   UNL     1     -12.044  11.774  69.619  1.00  0.00    -0.258 A  
HETATM   26  N   UNL     1     -12.510  12.060  70.850  1.00  0.00    -0.347 NA 
HETATM   27  C   UNL     1     -12.740  13.359  71.156  1.00  0.00    -0.328 A  
HETATM   28  C   UNL     1     -12.519  14.398  70.275  1.00  0.00    -0.354 A  
HETATM   29  C   UNL     1     -12.023  14.106  69.016  1.00  0.00    -0.376 A  
HETATM   30  F   UNL     1     -12.782  15.662  70.625  1.00  0.00    -0.421 F  
HETATM   31  C   UNL     1     -11.771  12.773  68.683  1.00  0.00    -0.360 A  
ENDBRANCH  22  25
ENDBRANCH  12  21
ENDBRANCH  10  11
ENDBRANCH   9  10
ENDBRANCH   5   9
TORSDOF 6
ENDMDL
MODEL      194
REMARK 921   NORMALIZED FREE ENERGY PREDICTED BY IDOCK:   -3.16 KCAL/MOL
REMARK 922        TOTAL FREE ENERGY PREDICTED BY IDOCK:   -5.82 KCAL/MOL
REMARK 923 INTER-LIGAND FREE ENERGY PREDICTED BY IDOCK:   -5.79 KCAL/MOL
REMARK 924 INTRA-LIGAND FREE ENERGY PREDICTED BY IDOCK:   -0.03 KCAL/MOL
REMARK 927      BINDING AFFINITY PREDICTED BY RF-SCORE:    0.00 PKD
ROOT
HETATM    1  C   UNL     1     -11.771  15.079  70.121  1.00  0.00    -0.340 C  
HETATM    2  C   UNL     1     -11.599  13.705  69.559  1.00  0.00    -0.301 A  
HETATM    3  N   UNL     1     -11.062  13.571  68.344  1.00  0.00    -0.259 NA 
HETATM    4  C   UNL     1     -10.934  12.300  67.910  1.00  0.00    -0.224 A  
HETATM    5  C   UNL     1     -11.315  11.160  68.607  1.00  0.00    -0.277 A  
HETATM    6  C   UNL     1     -12.199  10.419  70.939  1.00  0.00    -0.484 C  
HETATM    7  C   UNL     1     -11.839  11.405  69.870  1.00  0.00    -0.359 A  
HETATM    8  N   UNL     1     -11.985  12.678  70.334  1.00  0.00    -0.309 NA 
ENDROOT
BRANCH   5   9
HETATM    9  O   UNL     1     -11.068  10.015  67.912  1.00  0.00    -0.275 OA 
BRANCH   9  10
HETATM   10  C   UNL     1     -10.600   8.875  68.623  1.00  0.00    -0.147 C  
BRANCH  10  11
HETATM   11  C   UNL     1      -9.116   8.638  68.305  1.00  0.00    -0.141 C  
HETATM   12  C   UNL     1      -8.284   7.812  69.315  1.00  0.00    -0.129 C  
HETATM   13  C   UNL     1      -8.172   9.317  69.280  1.00  0.00    -0.108 C  
BRANCH  11  14
HETATM   14  C   UNL     1      -8.724   8.520  66.802  1.00  0.00    -0.133 A  
HETATM   15  C   UNL     1      -8.236   7.317  66.235  1.00  0.00    -0.123 A  
HETATM   16  F   UNL     1      -8.732  10.518  63.730  1.00  0.00    -0.169 F  
HETATM   17  C   UNL     1      -7.942   7.186  64.870  1.00  0.00    -0.127 A  
HETATM   18  C   UNL     1      -8.862   9.594  65.902  1.00  0.00    -0.180 A  
HETATM   19  C   UNL     1      -8.567   9.466  64.542  1.00  0.00    -0.198 A  
HETATM   20  C   UNL     1      -8.115   8.268  64.015  1.00  0.00    -0.128 A  
ENDBRANCH  11  14
BRANCH  12  21
HETATM   21  C   UNL     1      -8.965   7.091  70.441  1.00  0.00    -0.155 C  
HETATM   22  N   UNL     1      -8.460   5.828  70.658  1.00  0.00    -0.126 N  
HETATM   23  H   UNL     1      -7.618   5.559  70.148  1.00  0.00     0.000 HD 
HETATM   24  O   UNL     1      -9.867   7.645  71.053  1.00  0.00    -0.175 OA 
BRANCH  22  25
HETATM   25  C   UNL     1      -9.023   4.888  71.531  1.00  0.00    -0.135 A  
HETATM   26  N   UNL     1      -9.613   3.779  71.044  1.00  0.00    -0.169 NA 
HETATM   27  C   UNL     1     -10.143   2.901  71.927  1.00  0.00    -0.084 A  
HETATM   28  C   UNL     1     -10.107   3.083  73.295  1.00  0.00    -0.121 A  
HETATM   29  C   UNL     1      -9.485   4.214  73.796  1.00  0.00    -0.121 A  
HETATM   30  F   UNL     1     -10.663   2.191  74.121  1.00  0.00    -0.166 F  
HETATM   31  C   UNL     1      -8.924   5.128  72.902  1.00  0.00    -0.120 A  
ENDBRANCH  22  25
ENDBRANCH  12  21
ENDBRANCH  10  11
ENDBRANCH   9  10
ENDBRANCH   5   9
TORSDOF 6
ENDMDL
MODEL      195
REMARK 921   NORMALIZED FREE ENERGY PREDICTED BY IDOCK:   -3.09 KCAL/MOL
REMARK 922        TOTAL FREE ENERGY PREDICTED BY IDOCK:   -5.73 KCAL/MOL
REMARK 923 INTER-LIGAND FREE ENERGY PREDICTED BY IDOCK:   -4.80 KCAL/MOL
REMARK 924 INTRA-LIGAND FREE ENERGY PREDICTED BY IDOCK:   -0.92 KCAL/MOL
REMARK 927      BINDING AFFINITY PREDICTED BY RF-SCORE:    0.00 PKD
ROOT
HETATM    1  C   UNL     1      -8.574   3.341  65.389  1.00  0.00    -0.112 C  
HETATM    2  C   UNL     1      -8.829   4.508  66.287  1.00  0.00    -0.113 A  
HETATM    3  N   UNL     1     -10.053   5.040  66.317  1.00  0.00    -0.222 NA 
HETATM    4  C   UNL     1     -10.205   6.085  67.156  1.00  0.00    -0.202 A  
HETATM    5  C   UNL     1      -9.213   6.636  67.957  1.00  0.00    -0.112 A  
HETATM    6  C   UNL     1      -6.754   6.221  68.701  1.00  0.00    -0.061 C  
HETATM    7  C   UNL     1      -7.983   5.995  67.873  1.00  0.00    -0.106 A  
HETATM    8  N   UNL     1      -7.797   4.940  67.031  1.00  0.00    -0.095 NA 
ENDROOT
BRANCH   5   9
HETATM    9  O   UNL     1      -9.661   7.689  68.695  1.00  0.00    -0.151 OA 
BRANCH   9  10
HETATM   10  C   UNL     1      -9.545   8.999  68.152  1.00  0.00    -0.148 C  
BRANCH  10  11
HETATM   11  C   UNL     1     -10.283  10.000  69.052  1.00  0.00    -0.216 C  
HETATM   12  C   UNL     1     -10.135   9.840  70.584  1.00  0.00    -0.252 C  
HETATM   13  C   UNL     1     -11.386   9.369  69.882  1.00  0.00    -0.121 C  
BRANCH  11  14
HETATM   14  C   UNL     1     -10.457  11.449  68.506  1.00  0.00    -0.223 A  
HETATM   15  C   UNL     1     -11.516  11.814  67.639  1.00  0.00    -0.370 A  
HETATM   16  F   UNL     1      -8.938  14.769  68.814  1.00  0.00    -0.164 F  
HETATM   17  C   UNL     1     -11.716  13.129  67.195  1.00  0.00    -0.430 A  
HETATM   18  C   UNL     1      -9.591  12.498  68.868  1.00  0.00     0.209 A  
HETATM   19  C   UNL     1      -9.787  13.808  68.425  1.00  0.00    -0.227 A  
HETATM   20  C   UNL     1     -10.847  14.137  67.598  1.00  0.00    -0.266 A  
ENDBRANCH  11  14
BRANCH  12  21
HETATM   21  C   UNL     1      -9.129   8.879  71.147  1.00  0.00    -0.249 C  
HETATM   22  N   UNL     1      -9.700   7.727  71.641  1.00  0.00    -0.160 N  
HETATM   23  H   UNL     1     -10.694   7.577  71.466  1.00  0.00     0.000 HD 
HETATM   24  O   UNL     1      -7.942   9.169  71.126  1.00  0.00    -0.232 OA 
BRANCH  22  25
HETATM   25  C   UNL     1      -9.009   6.748  72.367  1.00  0.00    -0.134 A  
HETATM   26  N   UNL     1      -8.816   5.523  71.839  1.00  0.00    -0.135 NA 
HETATM   27  C   UNL     1      -8.143   4.611  72.579  1.00  0.00    -0.103 A  
HETATM   28  C   UNL     1      -7.645   4.873  73.839  1.00  0.00    -0.094 A  
HETATM   29  C   UNL     1      -7.827   6.137  74.374  1.00  0.00    -0.095 A  
HETATM   30  F   UNL     1      -7.003   3.927  74.533  1.00  0.00    -0.051 F  
HETATM   31  C   UNL     1      -8.511   7.095  73.624  1.00  0.00    -0.168 A  
ENDBRANCH  22  25
ENDBRANCH  12  21
ENDBRANCH  10  11
ENDBRANCH   9  10
ENDBRANCH   5   9
TORSDOF 6
ENDMDL
MODEL      196
REMARK 921   NORMALIZED FREE ENERGY PREDICTED BY IDOCK:   -3.08 KCAL/MOL
REMARK 922        TOTAL FREE ENERGY PREDICTED BY IDOCK:   -5.70 KCAL/MOL
REMARK 923 INTER-LIGAND FREE ENERGY PREDICTED BY IDOCK:   -5.19 KCAL/MOL
REMARK 924 INTRA-LIGAND FREE ENERGY PREDICTED BY IDOCK:   -0.52 KCAL/MOL
REMARK 927      BINDING AFFINITY PREDICTED BY RF-SCORE:    0.00 PKD
ROOT
HETATM    1  C   UNL     1      -9.201  11.235  62.435  1.00  0.00    -0.175 C  
HETATM    2  C   UNL     1      -8.918  10.212  63.488  1.00  0.00    -0.245 A  
HETATM    3  N   UNL     1      -8.491   9.005  63.111  1.00  0.00    -0.198 NA 
HETATM    4  C   UNL     1      -8.252   8.140  64.119  1.00  0.00    -0.080 A  
HETATM    5  C   UNL     1      -8.420   8.402  65.473  1.00  0.00    -0.168 A  
HETATM    6  C   UNL     1      -8.973  10.358  67.099  1.00  0.00    -0.148 C  
HETATM    7  C   UNL     1      -8.843   9.694  65.761  1.00  0.00    -0.157 A  
HETATM    8  N   UNL     1      -9.098  10.588  64.764  1.00  0.00    -0.198 NA 
ENDROOT
BRANCH   5   9
HETATM    9  O   UNL     1      -8.105   7.334  66.255  1.00  0.00    -0.111 OA 
BRANCH   9  10
HETATM   10  C   UNL     1      -9.161   6.601  66.865  1.00  0.00    -0.142 C  
BRANCH  10  11
HETATM   11  C   UNL     1      -8.723   5.146  67.084  1.00  0.00    -0.103 C  
HETATM   12  C   UNL     1      -8.552   4.656  68.543  1.00  0.00    -0.106 C  
HETATM   13  C   UNL     1      -7.346   5.016  67.710  1.00  0.00    -0.075 C  
BRANCH  11  14
HETATM   14  C   UNL     1      -9.199   4.096  66.037  1.00  0.00    -0.149 A  
HETATM   15  C   UNL     1      -9.035   2.702  66.228  1.00  0.00    -0.143 A  
HETATM   16  F   UNL     1     -10.964   3.927  62.830  1.00  0.00    -0.200 F  
HETATM   17  C   UNL     1      -9.519   1.749  65.319  1.00  0.00     0.086 A  
HETATM   18  C   UNL     1      -9.854   4.465  64.846  1.00  0.00    -0.145 A  
HETATM   19  C   UNL     1     -10.334   3.517  63.939  1.00  0.00    -0.244 A  
HETATM   20  C   UNL     1     -10.180   2.161  64.167  1.00  0.00     0.067 A  
ENDBRANCH  11  14
BRANCH  12  21
HETATM   21  C   UNL     1      -9.016   5.512  69.685  1.00  0.00    -0.117 C  
HETATM   22  N   UNL     1     -10.352   5.835  69.609  1.00  0.00    -0.233 N  
HETATM   23  H   UNL     1     -10.913   5.375  68.892  1.00  0.00     0.000 HD 
HETATM   24  O   UNL     1      -8.220   5.840  70.553  1.00  0.00    -0.113 OA 
BRANCH  22  25
HETATM   25  C   UNL     1     -10.995   6.753  70.450  1.00  0.00    -0.283 A  
HETATM   26  N   UNL     1     -10.272   7.643  71.159  1.00  0.00    -0.196 NA 
HETATM   27  C   UNL     1     -10.938   8.510  71.958  1.00  0.00    -0.340 A  
HETATM   28  C   UNL     1     -12.313   8.528  72.081  1.00  0.00    -0.382 A  
HETATM   29  C   UNL     1     -13.056   7.625  71.339  1.00  0.00    -0.339 A  
HETATM   30  F   UNL     1     -12.918   9.394  72.900  1.00  0.00    -0.389 F  
HETATM   31  C   UNL     1     -12.389   6.729  70.501  1.00  0.00    -0.160 A  
ENDBRANCH  22  25
ENDBRANCH  12  21
ENDBRANCH  10  11
ENDBRANCH   9  10
ENDBRANCH   5   9
TORSDOF 6
ENDMDL
MODEL      197
REMARK 921   NORMALIZED FREE ENERGY PREDICTED BY IDOCK:   -3.06 KCAL/MOL
REMARK 922        TOTAL FREE ENERGY PREDICTED BY IDOCK:   -5.68 KCAL/MOL
REMARK 923 INTER-LIGAND FREE ENERGY PREDICTED BY IDOCK:   -5.89 KCAL/MOL
REMARK 924 INTRA-LIGAND FREE ENERGY PREDICTED BY IDOCK:    0.20 KCAL/MOL
REMARK 927      BINDING AFFINITY PREDICTED BY RF-SCORE:    0.00 PKD
ROOT
HETATM    1  C   UNL     1      -9.635  11.371  63.471  1.00  0.00    -0.315 C  
HETATM    2  C   UNL     1      -9.928  11.708  64.897  1.00  0.00    -0.255 A  
HETATM    3  N   UNL     1     -10.794  12.691  65.159  1.00  0.00    -0.283 NA 
HETATM    4  C   UNL     1     -11.011  12.931  66.469  1.00  0.00    -0.275 A  
HETATM    5  C   UNL     1     -10.412  12.261  67.529  1.00  0.00    -0.213 A  
HETATM    6  C   UNL     1      -8.865  10.226  68.018  1.00  0.00    -0.122 C  
HETATM    7  C   UNL     1      -9.548  11.241  67.151  1.00  0.00    -0.177 A  
HETATM    8  N   UNL     1      -9.306  10.977  65.836  1.00  0.00    -0.197 NA 
ENDROOT
BRANCH   5   9
HETATM    9  O   UNL     1     -10.822  12.727  68.740  1.00  0.00    -0.242 OA 
BRANCH   9  10
HETATM   10  C   UNL     1     -10.789  11.845  69.856  1.00  0.00     0.461 C  
BRANCH  10  11
HETATM   11  C   UNL     1     -12.174  11.794  70.518  1.00  0.00    -0.438 C  
HETATM   12  C   UNL     1     -12.629  10.452  71.140  1.00  0.00    -0.512 C  
HETATM   13  C   UNL     1     -13.158  10.892  69.796  1.00  0.00     0.500 C  
BRANCH  11  14
HETATM   14  C   UNL     1     -12.679  13.098  71.204  1.00  0.00    -0.386 A  
HETATM   15  C   UNL     1     -13.518  14.030  70.545  1.00  0.00     0.302 A  
HETATM   16  F   UNL     1     -12.541  14.804  74.445  1.00  0.00    -0.542 F  
HETATM   17  C   UNL     1     -14.028  15.173  71.177  1.00  0.00    -0.487 A  
HETATM   18  C   UNL     1     -12.361  13.419  72.538  1.00  0.00     0.537 A  
HETATM   19  C   UNL     1     -12.866  14.558  73.169  1.00  0.00    -0.444 A  
HETATM   20  C   UNL     1     -13.704  15.436  72.503  1.00  0.00    -0.652 A  
ENDBRANCH  11  14
BRANCH  12  21
HETATM   21  C   UNL     1     -11.656   9.318  71.279  1.00  0.00    -0.349 C  
HETATM   22  N   UNL     1     -11.797   8.628  72.462  1.00  0.00    -0.331 N  
HETATM   23  H   UNL     1     -12.600   8.852  73.050  1.00  0.00     0.000 HD 
HETATM   24  O   UNL     1     -10.855   9.099  70.382  1.00  0.00    -0.220 OA 
BRANCH  22  25
HETATM   25  C   UNL     1     -10.912   7.639  72.913  1.00  0.00    -0.400 A  
HETATM   26  N   UNL     1     -11.388   6.480  73.410  1.00  0.00     0.106 NA 
HETATM   27  C   UNL     1     -10.494   5.555  73.833  1.00  0.00    -0.279 A  
HETATM   28  C   UNL     1      -9.127   5.739  73.779  1.00  0.00    -0.127 A  
HETATM   29  C   UNL     1      -8.638   6.923  73.252  1.00  0.00    -0.140 A  
HETATM   30  F   UNL     1      -8.290   4.799  74.228  1.00  0.00    -0.097 F  
HETATM   31  C   UNL     1      -9.543   7.886  72.801  1.00  0.00    -0.311 A  
ENDBRANCH  22  25
ENDBRANCH  12  21
ENDBRANCH  10  11
ENDBRANCH   9  10
ENDBRANCH   5   9
TORSDOF 6
ENDMDL
MODEL      198
REMARK 921   NORMALIZED FREE ENERGY PREDICTED BY IDOCK:   -2.99 KCAL/MOL
REMARK 922        TOTAL FREE ENERGY PREDICTED BY IDOCK:   -5.59 KCAL/MOL
REMARK 923 INTER-LIGAND FREE ENERGY PREDICTED BY IDOCK:   -4.89 KCAL/MOL
REMARK 924 INTRA-LIGAND FREE ENERGY PREDICTED BY IDOCK:   -0.70 KCAL/MOL
REMARK 927      BINDING AFFINITY PREDICTED BY RF-SCORE:    0.00 PKD
ROOT
HETATM    1  C   UNL     1      -5.988  10.504  62.720  1.00  0.00    -0.144 C  
HETATM    2  C   UNL     1      -6.395   9.534  63.782  1.00  0.00    -0.099 A  
HETATM    3  N   UNL     1      -7.357   8.649  63.508  1.00  0.00    -0.098 NA 
HETATM    4  C   UNL     1      -7.663   7.804  64.514  1.00  0.00    -0.122 A  
HETATM    5  C   UNL     1      -7.078   7.793  65.774  1.00  0.00    -0.061 A  
HETATM    6  C   UNL     1      -5.136   8.898  67.110  1.00  0.00    -0.032 C  
HETATM    7  C   UNL     1      -6.072   8.736  65.950  1.00  0.00    -0.052 A  
HETATM    8  N   UNL     1      -5.744   9.606  64.954  1.00  0.00    -0.065 NA 
ENDROOT
BRANCH   5   9
HETATM    9  O   UNL     1      -7.596   6.829  66.584  1.00  0.00    -0.083 OA 
BRANCH   9  10
HETATM   10  C   UNL     1      -8.544   7.210  67.574  1.00  0.00    -0.122 C  
BRANCH  10  11
HETATM   11  C   UNL     1      -8.275   6.436  68.873  1.00  0.00    -0.118 C  
HETATM   12  C   UNL     1      -8.373   7.212  70.209  1.00  0.00    -0.136 C  
HETATM   13  C   UNL     1      -7.026   6.895  69.604  1.00  0.00    -0.063 C  
BRANCH  11  14
HETATM   14  C   UNL     1      -8.677   4.931  68.898  1.00  0.00    -0.103 A  
HETATM   15  C   UNL     1      -8.955   4.238  70.102  1.00  0.00    -0.144 A  
HETATM   16  F   UNL     1      -9.378   2.171  66.593  1.00  0.00    -0.132 F  
HETATM   17  C   UNL     1      -9.379   2.901  70.127  1.00  0.00    -0.212 A  
HETATM   18  C   UNL     1      -8.822   4.171  67.722  1.00  0.00    -0.130 A  
HETATM   19  C   UNL     1      -9.242   2.839  67.745  1.00  0.00    -0.202 A  
HETATM   20  C   UNL     1      -9.531   2.198  68.937  1.00  0.00    -0.168 A  
ENDBRANCH  11  14
BRANCH  12  21
HETATM   21  C   UNL     1      -8.927   8.606  70.232  1.00  0.00    -0.154 C  
HETATM   22  N   UNL     1     -10.103   8.730  69.526  1.00  0.00    -0.196 N  
HETATM   23  H   UNL     1     -10.543   7.877  69.181  1.00  0.00     0.000 HD 
HETATM   24  O   UNL     1      -8.331   9.481  70.843  1.00  0.00    -0.280 OA 
BRANCH  22  25
HETATM   25  C   UNL     1     -10.736   9.950  69.251  1.00  0.00    -0.224 A  
HETATM   26  N   UNL     1     -11.349  10.633  70.237  1.00  0.00    -0.316 NA 
HETATM   27  C   UNL     1     -11.947  11.806  69.921  1.00  0.00    -0.332 A  
HETATM   28  C   UNL     1     -11.958  12.334  68.646  1.00  0.00    -0.227 A  
HETATM   29  C   UNL     1     -11.313  11.641  67.636  1.00  0.00    -0.362 A  
HETATM   30  F   UNL     1     -12.581  13.489  68.387  1.00  0.00    -0.211 F  
HETATM   31  C   UNL     1     -10.682  10.433  67.942  1.00  0.00    -0.307 A  
ENDBRANCH  22  25
ENDBRANCH  12  21
ENDBRANCH  10  11
ENDBRANCH   9  10
ENDBRANCH   5   9
TORSDOF 6
ENDMDL
MODEL      199
REMARK 921   NORMALIZED FREE ENERGY PREDICTED BY IDOCK:   -2.97 KCAL/MOL
REMARK 922        TOTAL FREE ENERGY PREDICTED BY IDOCK:   -5.56 KCAL/MOL
REMARK 923 INTER-LIGAND FREE ENERGY PREDICTED BY IDOCK:   -5.53 KCAL/MOL
REMARK 924 INTRA-LIGAND FREE ENERGY PREDICTED BY IDOCK:   -0.03 KCAL/MOL
REMARK 927      BINDING AFFINITY PREDICTED BY RF-SCORE:    0.00 PKD
ROOT
HETATM    1  C   UNL     1     -10.599   5.942  69.042  1.00  0.00    -0.360 C  
HETATM    2  C   UNL     1     -10.700   7.412  68.789  1.00  0.00    -0.118 A  
HETATM    3  N   UNL     1     -10.888   8.230  69.828  1.00  0.00    -0.222 NA 
HETATM    4  C   UNL     1     -10.963   9.541  69.520  1.00  0.00    -0.195 A  
HETATM    5  C   UNL     1     -10.871  10.084  68.244  1.00  0.00    -0.241 A  
HETATM    6  C   UNL     1     -10.351   9.396  65.789  1.00  0.00     0.157 C  
HETATM    7  C   UNL     1     -10.652   9.152  67.237  1.00  0.00    -0.233 A  
HETATM    8  N   UNL     1     -10.576   7.820  67.516  1.00  0.00    -0.262 NA 
ENDROOT
BRANCH   5   9
HETATM    9  O   UNL     1     -10.989  11.440  68.243  1.00  0.00    -0.187 OA 
BRANCH   9  10
HETATM   10  C   UNL     1      -9.930  12.215  68.792  1.00  0.00    -0.052 C  
BRANCH  10  11
HETATM   11  C   UNL     1      -9.371  13.162  67.719  1.00  0.00    -0.206 C  
HETATM   12  C   UNL     1      -7.911  12.944  67.253  1.00  0.00    -0.151 C  
HETATM   13  C   UNL     1      -8.249  14.052  68.222  1.00  0.00    -0.153 C  
BRANCH  11  14
HETATM   14  C   UNL     1     -10.377  13.708  66.662  1.00  0.00    -0.275 A  
HETATM   15  C   UNL     1     -10.246  14.992  66.079  1.00  0.00    -0.318 A  
HETATM   16  F   UNL     1     -13.335  12.638  64.783  1.00  0.00    -0.394 F  
HETATM   17  C   UNL     1     -11.111  15.464  65.080  1.00  0.00    -0.402 A  
HETATM   18  C   UNL     1     -11.464  12.945  66.193  1.00  0.00    -0.393 A  
HETATM   19  C   UNL     1     -12.327  13.414  65.201  1.00  0.00    -0.456 A  
HETATM   20  C   UNL     1     -12.157  14.665  64.633  1.00  0.00    -0.466 A  
ENDBRANCH  11  14
BRANCH  12  21
HETATM   21  C   UNL     1      -7.160  11.717  67.678  1.00  0.00    -0.095 C  
HETATM   22  N   UNL     1      -7.364  10.642  66.841  1.00  0.00    -0.108 N  
HETATM   23  H   UNL     1      -7.875  10.806  65.973  1.00  0.00     0.000 HD 
HETATM   24  O   UNL     1      -6.458  11.756  68.678  1.00  0.00    -0.053 OA 
BRANCH  22  25
HETATM   25  C   UNL     1      -6.918   9.340  67.100  1.00  0.00    -0.085 A  
HETATM   26  N   UNL     1      -7.324   8.317  66.323  1.00  0.00    -0.078 NA 
HETATM   27  C   UNL     1      -6.866   7.076  66.614  1.00  0.00    -0.068 A  
HETATM   28  C   UNL     1      -6.005   6.810  67.660  1.00  0.00    -0.024 A  
HETATM   29  C   UNL     1      -5.573   7.864  68.447  1.00  0.00    -0.032 A  
HETATM   30  F   UNL     1      -5.598   5.562  67.913  1.00  0.00    -0.010 F  
HETATM   31  C   UNL     1      -6.027   9.153  68.159  1.00  0.00    -0.045 A  
ENDBRANCH  22  25
ENDBRANCH  12  21
ENDBRANCH  10  11
ENDBRANCH   9  10
ENDBRANCH   5   9
TORSDOF 6
ENDMDL
MODEL      200
REMARK 921   NORMALIZED FREE ENERGY PREDICTED BY IDOCK:   -2.85 KCAL/MOL
REMARK 922        TOTAL FREE ENERGY PREDICTED BY IDOCK:   -5.40 KCAL/MOL
REMARK 923 INTER-LIGAND FREE ENERGY PREDICTED BY IDOCK:   -4.52 KCAL/MOL
REMARK 924 INTRA-LIGAND FREE ENERGY PREDICTED BY IDOCK:   -0.88 KCAL/MOL
REMARK 927      BINDING AFFINITY PREDICTED BY RF-SCORE:    0.00 PKD
ROOT
HETATM    1  C   UNL     1     -12.012  14.262  66.737  1.00  0.00    -0.462 C  
HETATM    2  C   UNL     1     -11.251  13.252  67.534  1.00  0.00    -0.281 A  
HETATM    3  N   UNL     1      -9.940  13.430  67.710  1.00  0.00    -0.227 NA 
HETATM    4  C   UNL     1      -9.325  12.480  68.445  1.00  0.00    -0.149 A  
HETATM    5  C   UNL     1      -9.935  11.365  69.006  1.00  0.00    -0.067 A  
HETATM    6  C   UNL     1     -12.289  10.317  69.370  1.00  0.00     0.229 C  
HETATM    7  C   UNL     1     -11.304  11.286  68.787  1.00  0.00    -0.270 A  
HETATM    8  N   UNL     1     -11.952  12.227  68.044  1.00  0.00    -0.458 NA 
ENDROOT
BRANCH   5   9
HETATM    9  O   UNL     1      -9.058  10.579  69.690  1.00  0.00    -0.111 OA 
BRANCH   9  10
HETATM   10  C   UNL     1      -8.519   9.434  69.040  1.00  0.00    -0.129 C  
BRANCH  10  11
HETATM   11  C   UNL     1      -7.601   8.673  70.007  1.00  0.00    -0.068 C  
HETATM   12  C   UNL     1      -6.131   9.144  70.129  1.00  0.00    -0.035 C  
HETATM   13  C   UNL     1      -6.479   7.922  69.313  1.00  0.00    -0.036 C  
BRANCH  11  14
HETATM   14  C   UNL     1      -8.259   8.073  71.285  1.00  0.00    -0.119 A  
HETATM   15  C   UNL     1      -9.394   8.654  71.901  1.00  0.00    -0.357 A  
HETATM   16  F   UNL     1      -7.931   5.194  73.528  1.00  0.00    -0.104 F  
HETATM   17  C   UNL     1     -10.030   8.084  73.014  1.00  0.00    -0.349 A  
HETATM   18  C   UNL     1      -7.786   6.893  71.892  1.00  0.00    -0.094 A  
HETATM   19  C   UNL     1      -8.416   6.326  73.002  1.00  0.00    -0.117 A  
HETATM   20  C   UNL     1      -9.540   6.906  73.565  1.00  0.00    -0.222 A  
ENDBRANCH  11  14
BRANCH  12  21
HETATM   21  C   UNL     1      -5.697  10.431  69.490  1.00  0.00    -0.038 C  
HETATM   22  N   UNL     1      -5.998  11.539  70.250  1.00  0.00    -0.157 N  
HETATM   23  H   UNL     1      -6.350  11.386  71.195  1.00  0.00     0.000 HD 
HETATM   24  O   UNL     1      -5.136  10.404  68.404  1.00  0.00    -0.036 OA 
BRANCH  22  25
HETATM   25  C   UNL     1      -5.853  12.863  69.812  1.00  0.00    -0.121 A  
HETATM   26  N   UNL     1      -5.998  13.165  68.507  1.00  0.00    -0.076 NA 
HETATM   27  C   UNL     1      -5.848  14.457  68.134  1.00  0.00    -0.133 A  
HETATM   28  C   UNL     1      -5.558  15.476  69.020  1.00  0.00    -0.103 A  
HETATM   29  C   UNL     1      -5.428  15.168  70.363  1.00  0.00    -0.134 A  
HETATM   30  F   UNL     1      -5.403  16.733  68.592  1.00  0.00    -0.113 F  
HETATM   31  C   UNL     1      -5.587  13.842  70.771  1.00  0.00    -0.180 A  
ENDBRANCH  22  25
ENDBRANCH  12  21
ENDBRANCH  10  11
ENDBRANCH   9  10
ENDBRANCH   5   9
TORSDOF 6
ENDMDL
MODEL      201
REMARK 921   NORMALIZED FREE ENERGY PREDICTED BY IDOCK:   -2.79 KCAL/MOL
REMARK 922        TOTAL FREE ENERGY PREDICTED BY IDOCK:   -5.31 KCAL/MOL
REMARK 923 INTER-LIGAND FREE ENERGY PREDICTED BY IDOCK:   -4.36 KCAL/MOL
REMARK 924 INTRA-LIGAND FREE ENERGY PREDICTED BY IDOCK:   -0.96 KCAL/MOL
REMARK 927      BINDING AFFINITY PREDICTED BY RF-SCORE:    0.00 PKD
ROOT
HETATM    1  C   UNL     1      -7.803  16.096  66.953  1.00  0.00    -0.283 C  
HETATM    2  C   UNL     1      -8.441  14.759  67.157  1.00  0.00    -0.223 A  
HETATM    3  N   UNL     1      -8.099  14.042  68.231  1.00  0.00    -0.140 NA 
HETATM    4  C   UNL     1      -8.722  12.852  68.348  1.00  0.00    -0.119 A  
HETATM    5  C   UNL     1      -9.655  12.331  67.460  1.00  0.00    -0.184 A  
HETATM    6  C   UNL     1     -11.021  12.991  65.346  1.00  0.00    -0.297 C  
HETATM    7  C   UNL     1      -9.960  13.164  66.391  1.00  0.00    -0.282 A  
HETATM    8  N   UNL     1      -9.344  14.370  66.243  1.00  0.00    -0.267 NA 
ENDROOT
BRANCH   5   9
HETATM    9  O   UNL     1     -10.108  11.104  67.838  1.00  0.00    -0.170 OA 
BRANCH   9  10
HETATM   10  C   UNL     1      -9.418  10.413  68.873  1.00  0.00    -0.186 C  
BRANCH  10  11
HETATM   11  C   UNL     1     -10.243   9.197  69.323  1.00  0.00    -0.215 C  
HETATM   12  C   UNL     1     -10.571   8.116  68.264  1.00  0.00    -0.153 C  
HETATM   13  C   UNL     1     -11.616   9.125  68.680  1.00  0.00     0.878 C  
BRANCH  11  14
HETATM   14  C   UNL     1     -10.049   8.713  70.790  1.00  0.00    -0.244 A  
HETATM   15  C   UNL     1     -11.092   8.114  71.538  1.00  0.00    -0.302 A  
HETATM   16  F   UNL     1      -7.425   8.428  73.332  1.00  0.00    -0.165 F  
HETATM   17  C   UNL     1     -10.907   7.618  72.837  1.00  0.00    -0.446 A  
HETATM   18  C   UNL     1      -8.813   8.811  71.458  1.00  0.00    -0.295 A  
HETATM   19  C   UNL     1      -8.628   8.321  72.753  1.00  0.00    -0.203 A  
HETATM   20  C   UNL     1      -9.662   7.717  73.447  1.00  0.00    -0.363 A  
ENDBRANCH  11  14
BRANCH  12  21
HETATM   21  C   UNL     1      -9.916   8.159  66.915  1.00  0.00    -0.273 C  
HETATM   22  N   UNL     1      -8.637   7.648  66.920  1.00  0.00    -0.121 N  
HETATM   23  H   UNL     1      -8.314   7.185  67.769  1.00  0.00     0.000 HD 
HETATM   24  O   UNL     1     -10.530   8.615  65.962  1.00  0.00     0.181 OA 
BRANCH  22  25
HETATM   25  C   UNL     1      -7.750   7.722  65.837  1.00  0.00    -0.094 A  
HETATM   26  N   UNL     1      -7.465   6.619  65.118  1.00  0.00    -0.081 NA 
HETATM   27  C   UNL     1      -6.602   6.741  64.082  1.00  0.00    -0.044 A  
HETATM   28  C   UNL     1      -6.005   7.934  63.727  1.00  0.00    -0.058 A  
HETATM   29  C   UNL     1      -6.312   9.071  64.455  1.00  0.00    -0.071 A  
HETATM   30  F   UNL     1      -5.145   7.993  62.705  1.00  0.00    -0.049 F  
HETATM   31  C   UNL     1      -7.207   8.969  65.522  1.00  0.00    -0.085 A  
ENDBRANCH  22  25
ENDBRANCH  12  21
ENDBRANCH  10  11
ENDBRANCH   9  10
ENDBRANCH   5   9
TORSDOF 6
ENDMDL
MODEL      202
REMARK 921   NORMALIZED FREE ENERGY PREDICTED BY IDOCK:   -2.71 KCAL/MOL
REMARK 922        TOTAL FREE ENERGY PREDICTED BY IDOCK:   -5.20 KCAL/MOL
REMARK 923 INTER-LIGAND FREE ENERGY PREDICTED BY IDOCK:   -4.12 KCAL/MOL
REMARK 924 INTRA-LIGAND FREE ENERGY PREDICTED BY IDOCK:   -1.09 KCAL/MOL
REMARK 927      BINDING AFFINITY PREDICTED BY RF-SCORE:    0.00 PKD
ROOT
HETATM    1  C   UNL     1      -9.919   9.820  70.129  1.00  0.00    -0.315 C  
HETATM    2  C   UNL     1      -8.853   9.037  69.434  1.00  0.00    -0.144 A  
HETATM    3  N   UNL     1      -8.587   9.310  68.154  1.00  0.00    -0.124 NA 
HETATM    4  C   UNL     1      -7.609   8.565  67.599  1.00  0.00    -0.098 A  
HETATM    5  C   UNL     1      -6.888   7.563  68.237  1.00  0.00    -0.063 A  
HETATM    6  C   UNL     1      -6.550   6.503  70.589  1.00  0.00    -0.053 C  
HETATM    7  C   UNL     1      -7.222   7.375  69.572  1.00  0.00    -0.082 A  
HETATM    8  N   UNL     1      -8.210   8.108  70.160  1.00  0.00    -0.117 NA 
ENDROOT
BRANCH   5   9
HETATM    9  O   UNL     1      -5.967   6.981  67.421  1.00  0.00    -0.026 OA 
BRANCH   9  10
HETATM   10  C   UNL     1      -5.969   5.564  67.296  1.00  0.00    -0.022 C  
BRANCH  10  11
HETATM   11  C   UNL     1      -6.753   5.155  66.040  1.00  0.00    -0.053 C  
HETATM   12  C   UNL     1      -8.077   4.377  66.238  1.00  0.00    -0.102 C  
HETATM   13  C   UNL     1      -6.817   3.653  65.828  1.00  0.00    -0.057 C  
BRANCH  11  14
HETATM   14  C   UNL     1      -6.670   6.108  64.811  1.00  0.00    -0.043 A  
HETATM   15  C   UNL     1      -5.524   6.181  63.981  1.00  0.00    -0.018 A  
HETATM   16  F   UNL     1      -8.743   8.496  62.960  1.00  0.00    -0.163 F  
HETATM   17  C   UNL     1      -5.466   6.989  62.836  1.00  0.00    -0.033 A  
HETATM   18  C   UNL     1      -7.743   6.934  64.425  1.00  0.00    -0.113 A  
HETATM   19  C   UNL     1      -7.686   7.742  63.287  1.00  0.00    -0.135 A  
HETATM   20  C   UNL     1      -6.559   7.771  62.482  1.00  0.00    -0.080 A  
ENDBRANCH  11  14
BRANCH  12  21
HETATM   21  C   UNL     1      -8.669   4.232  67.609  1.00  0.00    -0.106 C  
HETATM   22  N   UNL     1      -9.511   5.268  67.946  1.00  0.00    -0.120 N  
HETATM   23  H   UNL     1      -9.753   5.940  67.218  1.00  0.00     0.000 HD 
HETATM   24  O   UNL     1      -8.379   3.259  68.290  1.00  0.00    -0.076 OA 
BRANCH  22  25
HETATM   25  C   UNL     1     -10.058   5.461  69.222  1.00  0.00    -0.231 A  
HETATM   26  N   UNL     1      -9.666   4.687  70.252  1.00  0.00    -0.206 NA 
HETATM   27  C   UNL     1     -10.224   4.912  71.465  1.00  0.00    -0.194 A  
HETATM   28  C   UNL     1     -11.168   5.892  71.697  1.00  0.00    -0.237 A  
HETATM   29  C   UNL     1     -11.558   6.699  70.642  1.00  0.00    -0.439 A  
HETATM   30  F   UNL     1     -11.700   6.058  72.913  1.00  0.00    -0.276 F  
HETATM   31  C   UNL     1     -10.988   6.490  69.385  1.00  0.00    -0.395 A  
ENDBRANCH  22  25
ENDBRANCH  12  21
ENDBRANCH  10  11
ENDBRANCH   9  10
ENDBRANCH   5   9
TORSDOF 6
ENDMDL
MODEL      203
REMARK 921   NORMALIZED FREE ENERGY PREDICTED BY IDOCK:   -2.69 KCAL/MOL
REMARK 922        TOTAL FREE ENERGY PREDICTED BY IDOCK:   -5.18 KCAL/MOL
REMARK 923 INTER-LIGAND FREE ENERGY PREDICTED BY IDOCK:   -5.45 KCAL/MOL
REMARK 924 INTRA-LIGAND FREE ENERGY PREDICTED BY IDOCK:    0.27 KCAL/MOL
REMARK 927      BINDING AFFINITY PREDICTED BY RF-SCORE:    0.00 PKD
ROOT
HETATM    1  C   UNL     1      -7.359   3.992  66.033  1.00  0.00    -0.076 C  
HETATM    2  C   UNL     1      -7.532   5.435  66.386  1.00  0.00    -0.087 A  
HETATM    3  N   UNL     1      -8.754   5.969  66.320  1.00  0.00    -0.133 NA 
HETATM    4  C   UNL     1      -8.829   7.273  66.659  1.00  0.00    -0.139 A  
HETATM    5  C   UNL     1      -7.763   8.075  67.049  1.00  0.00    -0.100 A  
HETATM    6  C   UNL     1      -5.232   7.928  67.633  1.00  0.00    -0.032 C  
HETATM    7  C   UNL     1      -6.540   7.418  67.109  1.00  0.00    -0.061 A  
HETATM    8  N   UNL     1      -6.432   6.103  66.768  1.00  0.00    -0.045 NA 
ENDROOT
BRANCH   5   9
HETATM    9  O   UNL     1      -8.144   9.353  67.324  1.00  0.00    -0.109 OA 
BRANCH   9  10
HETATM   10  C   UNL     1      -8.773  10.111  66.298  1.00  0.00    -0.141 C  
BRANCH  10  11
HETATM   11  C   UNL     1      -9.897  10.967  66.901  1.00  0.00    -0.222 C  
HETATM   12  C   UNL     1     -10.082  10.937  68.438  1.00  0.00    -0.196 C  
HETATM   13  C   UNL     1     -11.004  10.148  67.540  1.00  0.00    -0.319 C  
BRANCH  11  14
HETATM   14  C   UNL     1     -10.242  12.300  66.174  1.00  0.00    -0.263 A  
HETATM   15  C   UNL     1     -11.143  12.361  65.083  1.00  0.00    -0.348 A  
HETATM   16  F   UNL     1      -9.529  15.888  66.394  1.00  0.00    -0.236 F  
HETATM   17  C   UNL     1     -11.507  13.566  64.464  1.00  0.00    -0.407 A  
HETATM   18  C   UNL     1      -9.703  13.538  66.576  1.00  0.00    -0.287 A  
HETATM   19  C   UNL     1     -10.062  14.738  65.959  1.00  0.00    -0.308 A  
HETATM   20  C   UNL     1     -10.966  14.766  64.911  1.00  0.00    -0.425 A  
ENDBRANCH  11  14
BRANCH  12  21
HETATM   21  C   UNL     1      -9.056  10.271  69.308  1.00  0.00    -0.194 C  
HETATM   22  N   UNL     1      -9.469   9.049  69.790  1.00  0.00    -0.168 N  
HETATM   23  H   UNL     1     -10.338   8.662  69.423  1.00  0.00     0.000 HD 
HETATM   24  O   UNL     1      -7.987  10.827  69.511  1.00  0.00    -0.118 OA 
BRANCH  22  25
HETATM   25  C   UNL     1      -8.775   8.301  70.752  1.00  0.00    -0.140 A  
HETATM   26  N   UNL     1      -8.563   8.810  71.981  1.00  0.00    -0.369 NA 
HETATM   27  C   UNL     1      -7.887   8.050  72.875  1.00  0.00    -0.142 A  
HETATM   28  C   UNL     1      -7.411   6.786  72.591  1.00  0.00    -0.091 A  
HETATM   29  C   UNL     1      -7.645   6.256  71.334  1.00  0.00    -0.098 A  
HETATM   30  F   UNL     1      -6.734   6.086  73.508  1.00  0.00    -0.070 F  
HETATM   31  C   UNL     1      -8.348   7.020  70.400  1.00  0.00    -0.129 A  
ENDBRANCH  22  25
ENDBRANCH  12  21
ENDBRANCH  10  11
ENDBRANCH   9  10
ENDBRANCH   5   9
TORSDOF 6
ENDMDL
MODEL      204
REMARK 921   NORMALIZED FREE ENERGY PREDICTED BY IDOCK:   -2.64 KCAL/MOL
REMARK 922        TOTAL FREE ENERGY PREDICTED BY IDOCK:   -5.12 KCAL/MOL
REMARK 923 INTER-LIGAND FREE ENERGY PREDICTED BY IDOCK:   -4.01 KCAL/MOL
REMARK 924 INTRA-LIGAND FREE ENERGY PREDICTED BY IDOCK:   -1.11 KCAL/MOL
REMARK 927      BINDING AFFINITY PREDICTED BY RF-SCORE:    0.00 PKD
ROOT
HETATM    1  C   UNL     1      -5.150  12.047  72.681  1.00  0.00     0.371 C  
HETATM    2  C   UNL     1      -5.761  11.206  71.607  1.00  0.00     0.509 A  
HETATM    3  N   UNL     1      -6.140  11.794  70.469  1.00  0.00    -0.283 NA 
HETATM    4  C   UNL     1      -6.676  10.968  69.547  1.00  0.00    -0.126 A  
HETATM    5  C   UNL     1      -6.866   9.599  69.693  1.00  0.00    -0.067 A  
HETATM    6  C   UNL     1      -6.320   7.646  71.324  1.00  0.00    -0.035 C  
HETATM    7  C   UNL     1      -6.416   9.081  70.901  1.00  0.00    -0.064 A  
HETATM    8  N   UNL     1      -5.874   9.891  71.854  1.00  0.00    -0.292 NA 
ENDROOT
BRANCH   5   9
HETATM    9  O   UNL     1      -7.436   9.030  68.596  1.00  0.00    -0.081 OA 
BRANCH   9  10
HETATM   10  C   UNL     1      -8.855   8.945  68.533  1.00  0.00    -0.134 C  
BRANCH  10  11
HETATM   11  C   UNL     1      -9.281   8.395  67.163  1.00  0.00    -0.174 C  
HETATM   12  C   UNL     1     -10.335   9.195  66.360  1.00  0.00    -0.235 C  
HETATM   13  C   UNL     1     -10.730   7.948  67.114  1.00  0.00    -0.306 C  
BRANCH  11  14
HETATM   14  C   UNL     1      -8.204   7.624  66.343  1.00  0.00    -0.124 A  
HETATM   15  C   UNL     1      -7.626   8.149  65.162  1.00  0.00    -0.097 A  
HETATM   16  F   UNL     1      -6.264   4.518  66.474  1.00  0.00    -0.028 F  
HETATM   17  C   UNL     1      -6.611   7.488  64.454  1.00  0.00    -0.048 A  
HETATM   18  C   UNL     1      -7.712   6.366  66.743  1.00  0.00    -0.100 A  
HETATM   19  C   UNL     1      -6.704   5.706  66.038  1.00  0.00    -0.056 A  
HETATM   20  C   UNL     1      -6.141   6.258  64.900  1.00  0.00    -0.030 A  
ENDBRANCH  11  14
BRANCH  12  21
HETATM   21  C   UNL     1     -10.749  10.565  66.815  1.00  0.00    -0.188 C  
HETATM   22  N   UNL     1      -9.892  11.555  66.390  1.00  0.00    -0.200 N  
HETATM   23  H   UNL     1      -9.164  11.301  65.723  1.00  0.00     0.000 HD 
HETATM   24  O   UNL     1     -11.760  10.695  67.489  1.00  0.00    -0.445 OA 
BRANCH  22  25
HETATM   25  C   UNL     1      -9.954  12.891  66.811  1.00  0.00    -0.243 A  
HETATM   26  N   UNL     1     -10.163  13.875  65.915  1.00  0.00    -0.306 NA 
HETATM   27  C   UNL     1     -10.214  15.149  66.371  1.00  0.00    -0.281 A  
HETATM   28  C   UNL     1     -10.067  15.487  67.701  1.00  0.00    -0.243 A  
HETATM   29  C   UNL     1      -9.870  14.474  68.624  1.00  0.00    -0.232 A  
HETATM   30  F   UNL     1     -10.108  16.765  68.093  1.00  0.00    -0.246 F  
HETATM   31  C   UNL     1      -9.823  13.152  68.176  1.00  0.00    -0.228 A  
ENDBRANCH  22  25
ENDBRANCH  12  21
ENDBRANCH  10  11
ENDBRANCH   9  10
ENDBRANCH   5   9
TORSDOF 6
ENDMDL
MODEL      205
REMARK 921   NORMALIZED FREE ENERGY PREDICTED BY IDOCK:   -2.44 KCAL/MOL
REMARK 922        TOTAL FREE ENERGY PREDICTED BY IDOCK:   -4.84 KCAL/MOL
REMARK 923 INTER-LIGAND FREE ENERGY PREDICTED BY IDOCK:   -3.96 KCAL/MOL
REMARK 924 INTRA-LIGAND FREE ENERGY PREDICTED BY IDOCK:   -0.88 KCAL/MOL
REMARK 927      BINDING AFFINITY PREDICTED BY RF-SCORE:    0.00 PKD
ROOT
HETATM    1  C   UNL     1      -6.227   9.296  70.717  1.00  0.00    -0.066 C  
HETATM    2  C   UNL     1      -6.131  10.759  70.425  1.00  0.00    -0.135 A  
HETATM    3  N   UNL     1      -6.540  11.204  69.234  1.00  0.00    -0.084 NA 
HETATM    4  C   UNL     1      -6.428  12.536  69.049  1.00  0.00    -0.097 A  
HETATM    5  C   UNL     1      -5.927  13.446  69.972  1.00  0.00    -0.137 A  
HETATM    6  C   UNL     1      -5.126  13.584  72.444  1.00  0.00    -0.136 C  
HETATM    7  C   UNL     1      -5.552  12.887  71.188  1.00  0.00    -0.094 A  
HETATM    8  N   UNL     1      -5.649  11.544  71.403  1.00  0.00    -0.364 NA 
ENDROOT
BRANCH   5   9
HETATM    9  O   UNL     1      -5.931  14.723  69.501  1.00  0.00    -0.097 OA 
BRANCH   9  10
HETATM   10  C   UNL     1      -7.179  15.391  69.356  1.00  0.00    -0.203 C  
BRANCH  10  11
HETATM   11  C   UNL     1      -7.235  16.092  67.991  1.00  0.00    -0.139 C  
HETATM   12  C   UNL     1      -7.954  15.360  66.832  1.00  0.00    -0.230 C  
HETATM   13  C   UNL     1      -6.446  15.376  66.909  1.00  0.00     0.623 C  
BRANCH  11  14
HETATM   14  C   UNL     1      -7.305  17.648  67.996  1.00  0.00    -0.214 A  
HETATM   15  C   UNL     1      -7.570  18.402  66.826  1.00  0.00    -0.246 A  
HETATM   16  F   UNL     1      -7.117  20.463  70.335  1.00  0.00    -0.207 F  
HETATM   17  C   UNL     1      -7.698  19.799  66.835  1.00  0.00    -0.300 A  
HETATM   18  C   UNL     1      -7.142  18.405  69.172  1.00  0.00    -0.219 A  
HETATM   19  C   UNL     1      -7.267  19.796  69.182  1.00  0.00    -0.284 A  
HETATM   20  C   UNL     1      -7.552  20.501  68.026  1.00  0.00    -0.131 A  
ENDBRANCH  11  14
BRANCH  12  21
HETATM   21  C   UNL     1      -8.752  14.119  67.105  1.00  0.00    -0.224 C  
HETATM   22  N   UNL     1      -9.924  14.369  67.784  1.00  0.00    -0.224 N  
HETATM   23  H   UNL     1     -10.199  15.342  67.915  1.00  0.00     0.000 HD 
HETATM   24  O   UNL     1      -8.330  13.036  66.724  1.00  0.00    -0.090 OA 
BRANCH  22  25
HETATM   25  C   UNL     1     -10.764  13.376  68.306  1.00  0.00    -0.258 A  
HETATM   26  N   UNL     1     -11.379  12.506  67.481  1.00  0.00    -0.291 NA 
HETATM   27  C   UNL     1     -12.182  11.566  68.032  1.00  0.00     0.357 A  
HETATM   28  C   UNL     1     -12.398  11.453  69.391  1.00  0.00    -0.118 A  
HETATM   29  C   UNL     1     -11.751  12.335  70.240  1.00  0.00    -0.223 A  
HETATM   30  F   UNL     1     -13.216  10.516  69.880  1.00  0.00    -0.238 F  
HETATM   31  C   UNL     1     -10.912  13.308  69.692  1.00  0.00     0.103 A  
ENDBRANCH  22  25
ENDBRANCH  12  21
ENDBRANCH  10  11
ENDBRANCH   9  10
ENDBRANCH   5   9
TORSDOF 6
ENDMDL
MODEL      206
REMARK 921   NORMALIZED FREE ENERGY PREDICTED BY IDOCK:   -2.27 KCAL/MOL
REMARK 922        TOTAL FREE ENERGY PREDICTED BY IDOCK:   -4.61 KCAL/MOL
REMARK 923 INTER-LIGAND FREE ENERGY PREDICTED BY IDOCK:   -3.95 KCAL/MOL
REMARK 924 INTRA-LIGAND FREE ENERGY PREDICTED BY IDOCK:   -0.66 KCAL/MOL
REMARK 927      BINDING AFFINITY PREDICTED BY RF-SCORE:    0.00 PKD
ROOT
HETATM    1  C   UNL     1      -5.268   2.599  72.727  1.00  0.00     0.000 C  
HETATM    2  C   UNL     1      -6.114   3.422  71.810  1.00  0.00    -0.014 A  
HETATM    3  N   UNL     1      -6.719   2.821  70.782  1.00  0.00    -0.032 NA 
HETATM    4  C   UNL     1      -7.468   3.630  70.005  1.00  0.00    -0.045 A  
HETATM    5  C   UNL     1      -7.643   4.997  70.183  1.00  0.00    -0.060 A  
HETATM    6  C   UNL     1      -7.089   6.902  71.867  1.00  0.00    -0.074 C  
HETATM    7  C   UNL     1      -6.992   5.521  71.293  1.00  0.00    -0.066 A  
HETATM    8  N   UNL     1      -6.224   4.730  72.095  1.00  0.00    -0.024 NA 
ENDROOT
BRANCH   5   9
HETATM    9  O   UNL     1      -8.451   5.549  69.236  1.00  0.00    -0.100 OA 
BRANCH   9  10
HETATM   10  C   UNL     1      -7.862   6.018  68.029  1.00  0.00    -0.106 C  
BRANCH  10  11
HETATM   11  C   UNL     1      -8.612   5.431  66.824  1.00  0.00    -0.110 C  
HETATM   12  C   UNL     1      -9.998   6.027  66.477  1.00  0.00    -0.189 C  
HETATM   13  C   UNL     1      -9.892   4.707  67.202  1.00  0.00    -0.227 C  
BRANCH  11  14
HETATM   14  C   UNL     1      -7.749   4.910  65.637  1.00  0.00    -0.087 A  
HETATM   15  C   UNL     1      -6.657   5.642  65.111  1.00  0.00    -0.043 A  
HETATM   16  F   UNL     1      -7.423   1.966  63.480  1.00  0.00    -0.047 F  
HETATM   17  C   UNL     1      -5.836   5.150  64.086  1.00  0.00    -0.017 A  
HETATM   18  C   UNL     1      -7.980   3.659  65.032  1.00  0.00    -0.090 A  
HETATM   19  C   UNL     1      -7.165   3.169  64.008  1.00  0.00    -0.057 A  
HETATM   20  C   UNL     1      -6.089   3.899  63.534  1.00  0.00    -0.018 A  
ENDBRANCH  11  14
BRANCH  12  21
HETATM   21  C   UNL     1     -10.475   7.275  67.161  1.00  0.00    -0.324 C  
HETATM   22  N   UNL     1     -10.213   8.419  66.440  1.00  0.00    -0.433 N  
HETATM   23  H   UNL     1      -9.858   8.311  65.490  1.00  0.00     0.000 HD 
HETATM   24  O   UNL     1     -11.032   7.191  68.245  1.00  0.00    -0.137 OA 
BRANCH  22  25
HETATM   25  C   UNL     1     -10.403   9.721  66.923  1.00  0.00    -0.234 A  
HETATM   26  N   UNL     1     -10.444   9.951  68.250  1.00  0.00    -0.198 NA 
HETATM   27  C   UNL     1     -10.629  11.226  68.668  1.00  0.00    -0.202 A  
HETATM   28  C   UNL     1     -10.775  12.294  67.807  1.00  0.00    -0.217 A  
HETATM   29  C   UNL     1     -10.714  12.060  66.444  1.00  0.00    -0.294 A  
HETATM   30  F   UNL     1     -10.974  13.531  68.275  1.00  0.00    -0.238 F  
HETATM   31  C   UNL     1     -10.515  10.754  65.991  1.00  0.00    -0.273 A  
ENDBRANCH  22  25
ENDBRANCH  12  21
ENDBRANCH  10  11
ENDBRANCH   9  10
ENDBRANCH   5   9
TORSDOF 6
ENDMDL
MODEL      207
REMARK 921   NORMALIZED FREE ENERGY PREDICTED BY IDOCK:   -2.25 KCAL/MOL
REMARK 922        TOTAL FREE ENERGY PREDICTED BY IDOCK:   -4.58 KCAL/MOL
REMARK 923 INTER-LIGAND FREE ENERGY PREDICTED BY IDOCK:   -4.50 KCAL/MOL
REMARK 924 INTRA-LIGAND FREE ENERGY PREDICTED BY IDOCK:   -0.08 KCAL/MOL
REMARK 927      BINDING AFFINITY PREDICTED BY RF-SCORE:    0.00 PKD
ROOT
HETATM    1  C   UNL     1      -5.362   2.422  71.441  1.00  0.00    -0.004 C  
HETATM    2  C   UNL     1      -6.133   3.595  70.924  1.00  0.00    -0.018 A  
HETATM    3  N   UNL     1      -6.956   3.415  69.888  1.00  0.00    -0.040 NA 
HETATM    4  C   UNL     1      -7.620   4.518  69.485  1.00  0.00    -0.055 A  
HETATM    5  C   UNL     1      -7.507   5.785  70.043  1.00  0.00    -0.075 A  
HETATM    6  C   UNL     1      -6.409   7.016  72.056  1.00  0.00    -0.044 C  
HETATM    7  C   UNL     1      -6.645   5.861  71.131  1.00  0.00    -0.049 A  
HETATM    8  N   UNL     1      -5.957   4.765  71.558  1.00  0.00    -0.016 NA 
ENDROOT
BRANCH   5   9
HETATM    9  O   UNL     1      -8.297   6.703  69.421  1.00  0.00    -0.125 OA 
BRANCH   9  10
HETATM   10  C   UNL     1      -7.681   7.675  68.584  1.00  0.00    -0.119 C  
BRANCH  10  11
HETATM   11  C   UNL     1      -8.216   7.538  67.150  1.00  0.00    -0.114 C  
HETATM   12  C   UNL     1      -9.749   7.595  66.944  1.00  0.00    -0.277 C  
HETATM   13  C   UNL     1      -9.022   6.272  66.923  1.00  0.00    -0.120 C  
BRANCH  11  14
HETATM   14  C   UNL     1      -7.327   8.105  66.005  1.00  0.00    -0.076 A  
HETATM   15  C   UNL     1      -6.439   9.192  66.197  1.00  0.00    -0.065 A  
HETATM   16  F   UNL     1      -6.510   7.448  62.493  1.00  0.00    -0.060 F  
HETATM   17  C   UNL     1      -5.589   9.667  65.187  1.00  0.00    -0.057 A  
HETATM   18  C   UNL     1      -7.324   7.552  64.710  1.00  0.00    -0.080 A  
HETATM   19  C   UNL     1      -6.480   8.025  63.702  1.00  0.00    -0.071 A  
HETATM   20  C   UNL     1      -5.606   9.073  63.930  1.00  0.00    -0.069 A  
ENDBRANCH  11  14
BRANCH  12  21
HETATM   21  C   UNL     1     -10.648   7.992  68.078  1.00  0.00    -0.128 C  
HETATM   22  N   UNL     1     -10.730   9.356  68.250  1.00  0.00    -0.378 N  
HETATM   23  H   UNL     1     -10.302   9.951  67.541  1.00  0.00     0.000 HD 
HETATM   24  O   UNL     1     -11.213   7.126  68.730  1.00  0.00    -0.029 OA 
BRANCH  22  25
HETATM   25  C   UNL     1     -11.363   9.981  69.333  1.00  0.00    -0.141 A  
HETATM   26  N   UNL     1     -11.758   9.257  70.398  1.00  0.00    -0.178 NA 
HETATM   27  C   UNL     1     -12.365   9.906  71.418  1.00  0.00    -0.404 A  
HETATM   28  C   UNL     1     -12.596  11.267  71.423  1.00  0.00    -0.351 A  
HETATM   29  C   UNL     1     -12.174  12.015  70.336  1.00  0.00    -0.379 A  
HETATM   30  F   UNL     1     -13.218  11.854  72.451  1.00  0.00    -0.598 F  
HETATM   31  C   UNL     1     -11.538  11.365  69.276  1.00  0.00    -0.384 A  
ENDBRANCH  22  25
ENDBRANCH  12  21
ENDBRANCH  10  11
ENDBRANCH   9  10
ENDBRANCH   5   9
TORSDOF 6
ENDMDL
MODEL      208
REMARK 921   NORMALIZED FREE ENERGY PREDICTED BY IDOCK:   -2.10 KCAL/MOL
REMARK 922        TOTAL FREE ENERGY PREDICTED BY IDOCK:   -4.39 KCAL/MOL
REMARK 923 INTER-LIGAND FREE ENERGY PREDICTED BY IDOCK:   -3.64 KCAL/MOL
REMARK 924 INTRA-LIGAND FREE ENERGY PREDICTED BY IDOCK:   -0.74 KCAL/MOL
REMARK 927      BINDING AFFINITY PREDICTED BY RF-SCORE:    0.00 PKD
ROOT
HETATM    1  C   UNL     1      -5.293   2.631  72.721  1.00  0.00     0.000 C  
HETATM    2  C   UNL     1      -6.037   3.607  71.867  1.00  0.00    -0.014 A  
HETATM    3  N   UNL     1      -6.626   3.166  70.753  1.00  0.00    -0.031 NA 
HETATM    4  C   UNL     1      -7.282   4.106  70.040  1.00  0.00    -0.045 A  
HETATM    5  C   UNL     1      -7.378   5.453  70.365  1.00  0.00    -0.070 A  
HETATM    6  C   UNL     1      -6.790   7.119  72.276  1.00  0.00    -0.060 C  
HETATM    7  C   UNL     1      -6.752   5.805  71.554  1.00  0.00    -0.058 A  
HETATM    8  N   UNL     1      -6.078   4.880  72.294  1.00  0.00    -0.024 NA 
ENDROOT
BRANCH   5   9
HETATM    9  O   UNL     1      -8.099   6.161  69.452  1.00  0.00    -0.109 OA 
BRANCH   9  10
HETATM   10  C   UNL     1      -7.410   6.785  68.376  1.00  0.00    -0.087 C  
BRANCH  10  11
HETATM   11  C   UNL     1      -8.099   6.437  67.048  1.00  0.00    -0.112 C  
HETATM   12  C   UNL     1      -9.438   7.143  66.722  1.00  0.00    -0.214 C  
HETATM   13  C   UNL     1      -9.425   5.718  67.224  1.00  0.00    -0.116 C  
BRANCH  11  14
HETATM   14  C   UNL     1      -7.178   6.079  65.844  1.00  0.00    -0.075 A  
HETATM   15  C   UNL     1      -6.023   6.832  65.519  1.00  0.00    -0.035 A  
HETATM   16  F   UNL     1      -6.823   3.526  63.239  1.00  0.00    -0.037 F  
HETATM   17  C   UNL     1      -5.154   6.478  64.476  1.00  0.00    -0.021 A  
HETATM   18  C   UNL     1      -7.416   4.961  65.021  1.00  0.00    -0.076 A  
HETATM   19  C   UNL     1      -6.554   4.609  63.980  1.00  0.00    -0.042 A  
HETATM   20  C   UNL     1      -5.419   5.352  63.704  1.00  0.00    -0.013 A  
ENDBRANCH  11  14
BRANCH  12  21
HETATM   21  C   UNL     1      -9.916   8.282  67.574  1.00  0.00    -0.193 C  
HETATM   22  N   UNL     1     -10.350   7.880  68.818  1.00  0.00    -0.206 N  
HETATM   23  H   UNL     1     -10.190   6.910  69.087  1.00  0.00     0.000 HD 
HETATM   24  O   UNL     1      -9.885   9.420  67.130  1.00  0.00    -0.165 OA 
BRANCH  22  25
HETATM   25  C   UNL     1     -10.997   8.715  69.739  1.00  0.00    -0.127 A  
HETATM   26  N   UNL     1     -11.508   9.896  69.340  1.00  0.00    -0.095 NA 
HETATM   27  C   UNL     1     -12.123  10.668  70.267  1.00  0.00    -0.338 A  
HETATM   28  C   UNL     1     -12.254  10.305  71.593  1.00  0.00    -0.291 A  
HETATM   29  C   UNL     1     -11.744   9.083  71.999  1.00  0.00    -0.417 A  
HETATM   30  F   UNL     1     -12.855  11.116  72.470  1.00  0.00    -0.287 F  
HETATM   31  C   UNL     1     -11.114   8.268  71.056  1.00  0.00    -0.284 A  
ENDBRANCH  22  25
ENDBRANCH  12  21
ENDBRANCH  10  11
ENDBRANCH   9  10
ENDBRANCH   5   9
TORSDOF 6
ENDMDL
MODEL      209
REMARK 921   NORMALIZED FREE ENERGY PREDICTED BY IDOCK:   -1.94 KCAL/MOL
REMARK 922        TOTAL FREE ENERGY PREDICTED BY IDOCK:   -4.17 KCAL/MOL
REMARK 923 INTER-LIGAND FREE ENERGY PREDICTED BY IDOCK:   -3.96 KCAL/MOL
REMARK 924 INTRA-LIGAND FREE ENERGY PREDICTED BY IDOCK:   -0.21 KCAL/MOL
REMARK 927      BINDING AFFINITY PREDICTED BY RF-SCORE:    0.00 PKD
ROOT
HETATM    1  C   UNL     1     -10.311  15.450  66.297  1.00  0.00    -0.304 C  
HETATM    2  C   UNL     1      -9.985  14.193  67.038  1.00  0.00    -0.260 A  
HETATM    3  N   UNL     1      -8.807  14.102  67.659  1.00  0.00    -0.184 NA 
HETATM    4  C   UNL     1      -8.590  12.940  68.311  1.00  0.00    -0.170 A  
HETATM    5  C   UNL     1      -9.469  11.866  68.373  1.00  0.00    -0.189 A  
HETATM    6  C   UNL     1     -11.897  11.201  67.714  1.00  0.00    -0.098 C  
HETATM    7  C   UNL     1     -10.676  12.071  67.717  1.00  0.00    -0.210 A  
HETATM    8  N   UNL     1     -10.922  13.231  67.046  1.00  0.00    -0.272 NA 
ENDROOT
BRANCH   5   9
HETATM    9  O   UNL     1      -8.973  10.827  69.099  1.00  0.00    -0.159 OA 
BRANCH   9  10
HETATM   10  C   UNL     1      -8.437   9.706  68.406  1.00  0.00    -0.118 C  
BRANCH  10  11
HETATM   11  C   UNL     1      -7.881   8.690  69.414  1.00  0.00    -0.096 C  
HETATM   12  C   UNL     1      -7.679   7.232  68.933  1.00  0.00    -0.116 C  
HETATM   13  C   UNL     1      -8.871   7.600  69.783  1.00  0.00    -0.140 C  
BRANCH  11  14
HETATM   14  C   UNL     1      -6.885   9.226  70.485  1.00  0.00    -0.087 A  
HETATM   15  C   UNL     1      -6.149  10.423  70.308  1.00  0.00    -0.107 A  
HETATM   16  F   UNL     1      -5.678   8.426  73.851  1.00  0.00    -0.075 F  
HETATM   17  C   UNL     1      -5.299  10.945  71.295  1.00  0.00    -0.042 A  
HETATM   18  C   UNL     1      -6.675   8.569  71.713  1.00  0.00    -0.082 A  
HETATM   19  C   UNL     1      -5.827   9.086  72.695  1.00  0.00    -0.038 A  
HETATM   20  C   UNL     1      -5.142  10.273  72.501  1.00  0.00     0.064 A  
ENDBRANCH  11  14
BRANCH  12  21
HETATM   21  C   UNL     1      -7.813   6.894  67.477  1.00  0.00    -0.112 C  
HETATM   22  N   UNL     1      -8.861   6.039  67.217  1.00  0.00    -0.108 N  
HETATM   23  H   UNL     1      -9.504   5.828  67.980  1.00  0.00     0.000 HD 
HETATM   24  O   UNL     1      -7.031   7.377  66.672  1.00  0.00    -0.066 OA 
BRANCH  22  25
HETATM   25  C   UNL     1      -9.103   5.438  65.974  1.00  0.00    -0.154 A  
HETATM   26  N   UNL     1      -8.388   5.806  64.893  1.00  0.00    -0.137 NA 
HETATM   27  C   UNL     1      -8.659   5.197  63.714  1.00  0.00    -0.084 A  
HETATM   28  C   UNL     1      -9.625   4.221  63.567  1.00  0.00    -0.087 A  
HETATM   29  C   UNL     1     -10.346   3.830  64.682  1.00  0.00    -0.171 A  
HETATM   30  F   UNL     1      -9.863   3.666  62.375  1.00  0.00    -0.097 F  
HETATM   31  C   UNL     1     -10.076   4.439  65.910  1.00  0.00    -0.262 A  
ENDBRANCH  22  25
ENDBRANCH  12  21
ENDBRANCH  10  11
ENDBRANCH   9  10
ENDBRANCH   5   9
TORSDOF 6
ENDMDL
MODEL      210
REMARK 921   NORMALIZED FREE ENERGY PREDICTED BY IDOCK:   -1.90 KCAL/MOL
REMARK 922        TOTAL FREE ENERGY PREDICTED BY IDOCK:   -4.12 KCAL/MOL
REMARK 923 INTER-LIGAND FREE ENERGY PREDICTED BY IDOCK:   -2.95 KCAL/MOL
REMARK 924 INTRA-LIGAND FREE ENERGY PREDICTED BY IDOCK:   -1.16 KCAL/MOL
REMARK 927      BINDING AFFINITY PREDICTED BY RF-SCORE:    0.00 PKD
ROOT
HETATM    1  C   UNL     1     -14.410  13.676  70.966  1.00  0.00     1.237 C  
HETATM    2  C   UNL     1     -13.099  14.364  70.758  1.00  0.00    -0.285 A  
HETATM    3  N   UNL     1     -12.372  14.047  69.684  1.00  0.00    -0.316 NA 
HETATM    4  C   UNL     1     -11.205  14.714  69.564  1.00  0.00    -0.269 A  
HETATM    5  C   UNL     1     -10.719  15.668  70.450  1.00  0.00    -0.317 A  
HETATM    6  C   UNL     1     -11.428  17.012  72.562  1.00  0.00     0.688 C  
HETATM    7  C   UNL     1     -11.561  15.944  71.520  1.00  0.00    -0.465 A  
HETATM    8  N   UNL     1     -12.743  15.282  71.671  1.00  0.00    -0.351 NA 
ENDROOT
BRANCH   5   9
HETATM    9  O   UNL     1      -9.510  16.166  70.069  1.00  0.00     0.141 OA 
BRANCH   9  10
HETATM   10  C   UNL     1      -9.217  16.253  68.680  1.00  0.00    -0.227 C  
BRANCH  10  11
HETATM   11  C   UNL     1      -7.779  16.755  68.484  1.00  0.00    -0.223 C  
HETATM   12  C   UNL     1      -6.681  15.705  68.188  1.00  0.00    -0.133 C  
HETATM   13  C   UNL     1      -6.824  16.296  69.571  1.00  0.00    -0.188 C  
BRANCH  11  14
HETATM   14  C   UNL     1      -7.601  18.163  67.842  1.00  0.00    -0.234 A  
HETATM   15  C   UNL     1      -6.328  18.721  67.572  1.00  0.00    -0.192 A  
HETATM   16  F   UNL     1      -9.614  20.901  66.472  1.00  0.00    -0.364 F  
HETATM   17  C   UNL     1      -6.161  19.961  66.936  1.00  0.00    -0.197 A  
HETATM   18  C   UNL     1      -8.698  18.959  67.459  1.00  0.00    -0.296 A  
HETATM   19  C   UNL     1      -8.534  20.195  66.828  1.00  0.00    -0.302 A  
HETATM   20  C   UNL     1      -7.275  20.701  66.555  1.00  0.00    -0.246 A  
ENDBRANCH  11  14
BRANCH  12  21
HETATM   21  C   UNL     1      -7.059  14.284  67.887  1.00  0.00    -0.160 C  
HETATM   22  N   UNL     1      -6.792  13.423  68.928  1.00  0.00    -0.108 N  
HETATM   23  H   UNL     1      -6.502  13.828  69.818  1.00  0.00     0.000 HD 
HETATM   24  O   UNL     1      -7.551  14.009  66.803  1.00  0.00     0.287 OA 
BRANCH  22  25
HETATM   25  C   UNL     1      -6.894  12.027  68.848  1.00  0.00    -0.103 A  
HETATM   26  N   UNL     1      -8.048  11.412  69.170  1.00  0.00     0.004 NA 
HETATM   27  C   UNL     1      -8.097  10.062  69.077  1.00  0.00    -0.118 A  
HETATM   28  C   UNL     1      -7.029   9.290  68.667  1.00  0.00    -0.062 A  
HETATM   29  C   UNL     1      -5.848   9.923  68.318  1.00  0.00    -0.042 A  
HETATM   30  F   UNL     1      -7.127   7.958  68.611  1.00  0.00    -0.067 F  
HETATM   31  C   UNL     1      -5.780  11.316  68.399  1.00  0.00    -0.042 A  
ENDBRANCH  22  25
ENDBRANCH  12  21
ENDBRANCH  10  11
ENDBRANCH   9  10
ENDBRANCH   5   9
TORSDOF 6
ENDMDL
MODEL      211
REMARK 921   NORMALIZED FREE ENERGY PREDICTED BY IDOCK:   -1.87 KCAL/MOL
REMARK 922        TOTAL FREE ENERGY PREDICTED BY IDOCK:   -4.08 KCAL/MOL
REMARK 923 INTER-LIGAND FREE ENERGY PREDICTED BY IDOCK:   -3.10 KCAL/MOL
REMARK 924 INTRA-LIGAND FREE ENERGY PREDICTED BY IDOCK:   -0.98 KCAL/MOL
REMARK 927      BINDING AFFINITY PREDICTED BY RF-SCORE:    0.00 PKD
ROOT
HETATM    1  C   UNL     1     -11.171  10.148  70.911  1.00  0.00    -0.383 C  
HETATM    2  C   UNL     1      -9.989  10.208  69.997  1.00  0.00    -0.161 A  
HETATM    3  N   UNL     1     -10.189  10.495  68.708  1.00  0.00    -0.180 NA 
HETATM    4  C   UNL     1      -9.075  10.535  67.949  1.00  0.00    -0.136 A  
HETATM    5  C   UNL     1      -7.779  10.300  68.393  1.00  0.00    -0.093 A  
HETATM    6  C   UNL     1      -6.437   9.893  70.585  1.00  0.00    -0.106 C  
HETATM    7  C   UNL     1      -7.676  10.035  69.753  1.00  0.00    -0.168 A  
HETATM    8  N   UNL     1      -8.784   9.982  70.545  1.00  0.00     0.055 NA 
ENDROOT
BRANCH   5   9
HETATM    9  O   UNL     1      -6.858  10.406  67.397  1.00  0.00    -0.074 OA 
BRANCH   9  10
HETATM   10  C   UNL     1      -6.002   9.299  67.141  1.00  0.00    -0.049 C  
BRANCH  10  11
HETATM   11  C   UNL     1      -6.307   8.717  65.752  1.00  0.00    -0.056 C  
HETATM   12  C   UNL     1      -6.546   7.192  65.645  1.00  0.00    -0.051 C  
HETATM   13  C   UNL     1      -5.223   7.791  65.232  1.00  0.00    -0.029 C  
BRANCH  11  14
HETATM   14  C   UNL     1      -7.091   9.627  64.760  1.00  0.00    -0.115 A  
HETATM   15  C   UNL     1      -6.448  10.372  63.741  1.00  0.00    -0.033 A  
HETATM   16  F   UNL     1     -10.533  10.570  63.930  1.00  0.00    -0.394 F  
HETATM   17  C   UNL     1      -7.152  11.143  62.805  1.00  0.00     0.426 A  
HETATM   18  C   UNL     1      -8.494   9.741  64.791  1.00  0.00    -0.172 A  
HETATM   19  C   UNL     1      -9.197  10.510  63.861  1.00  0.00    -0.256 A  
HETATM   20  C   UNL     1      -8.540  11.207  62.861  1.00  0.00    -0.107 A  
ENDBRANCH  11  14
BRANCH  12  21
HETATM   21  C   UNL     1      -6.691   6.362  66.887  1.00  0.00    -0.060 C  
HETATM   22  N   UNL     1      -7.954   6.422  67.432  1.00  0.00    -0.114 N  
HETATM   23  H   UNL     1      -8.682   6.892  66.894  1.00  0.00     0.000 HD 
HETATM   24  O   UNL     1      -5.732   5.727  67.302  1.00  0.00    -0.015 OA 
BRANCH  22  25
HETATM   25  C   UNL     1      -8.308   5.878  68.674  1.00  0.00    -0.109 A  
HETATM   26  N   UNL     1      -8.923   6.643  69.597  1.00  0.00    -0.142 NA 
HETATM   27  C   UNL     1      -9.245   6.073  70.783  1.00  0.00    -0.154 A  
HETATM   28  C   UNL     1      -8.977   4.755  71.089  1.00  0.00    -0.131 A  
HETATM   29  C   UNL     1      -8.360   3.964  70.134  1.00  0.00    -0.083 A  
HETATM   30  F   UNL     1      -9.300   4.248  72.284  1.00  0.00    -0.131 F  
HETATM   31  C   UNL     1      -8.029   4.530  68.901  1.00  0.00    -0.074 A  
ENDBRANCH  22  25
ENDBRANCH  12  21
ENDBRANCH  10  11
ENDBRANCH   9  10
ENDBRANCH   5   9
TORSDOF 6
ENDMDL
MODEL      212
REMARK 921   NORMALIZED FREE ENERGY PREDICTED BY IDOCK:   -1.80 KCAL/MOL
REMARK 922        TOTAL FREE ENERGY PREDICTED BY IDOCK:   -3.98 KCAL/MOL
REMARK 923 INTER-LIGAND FREE ENERGY PREDICTED BY IDOCK:   -4.07 KCAL/MOL
REMARK 924 INTRA-LIGAND FREE ENERGY PREDICTED BY IDOCK:    0.09 KCAL/MOL
REMARK 927      BINDING AFFINITY PREDICTED BY RF-SCORE:    0.00 PKD
ROOT
HETATM    1  C   UNL     1      -5.128   2.553  71.422  1.00  0.00     0.000 C  
HETATM    2  C   UNL     1      -5.918   3.531  70.614  1.00  0.00    -0.018 A  
HETATM    3  N   UNL     1      -6.589   3.089  69.548  1.00  0.00    -0.033 NA 
HETATM    4  C   UNL     1      -7.283   4.030  68.875  1.00  0.00    -0.054 A  
HETATM    5  C   UNL     1      -7.341   5.381  69.194  1.00  0.00    -0.066 A  
HETATM    6  C   UNL     1      -6.602   7.054  71.045  1.00  0.00    -0.048 C  
HETATM    7  C   UNL     1      -6.630   5.735  70.334  1.00  0.00    -0.044 A  
HETATM    8  N   UNL     1      -5.916   4.808  71.032  1.00  0.00    -0.017 NA 
ENDROOT
BRANCH   5   9
HETATM    9  O   UNL     1      -8.117   6.090  68.328  1.00  0.00    -0.108 OA 
BRANCH   9  10
HETATM   10  C   UNL     1      -7.488   6.754  67.238  1.00  0.00    -0.096 C  
BRANCH  10  11
HETATM   11  C   UNL     1      -8.385   6.670  65.994  1.00  0.00    -0.134 C  
HETATM   12  C   UNL     1      -9.868   6.278  66.198  1.00  0.00     0.021 C  
HETATM   13  C   UNL     1      -8.870   5.264  65.691  1.00  0.00    -0.152 C  
BRANCH  11  14
HETATM   14  C   UNL     1      -8.066   7.648  64.824  1.00  0.00    -0.121 A  
HETATM   15  C   UNL     1      -7.149   7.329  63.793  1.00  0.00    -0.069 A  
HETATM   16  F   UNL     1      -9.094  10.923  63.540  1.00  0.00    -0.189 F  
HETATM   17  C   UNL     1      -6.906   8.177  62.703  1.00  0.00    -0.086 A  
HETATM   18  C   UNL     1      -8.696   8.902  64.698  1.00  0.00    -0.138 A  
HETATM   19  C   UNL     1      -8.453   9.749  63.615  1.00  0.00    -0.184 A  
HETATM   20  C   UNL     1      -7.569   9.396  62.610  1.00  0.00    -0.110 A  
ENDBRANCH  11  14
BRANCH  12  21
HETATM   21  C   UNL     1     -10.445   6.204  67.581  1.00  0.00    -0.234 C  
HETATM   22  N   UNL     1     -10.557   7.437  68.185  1.00  0.00    -0.326 N  
HETATM   23  H   UNL     1     -10.375   8.264  67.616  1.00  0.00     0.000 HD 
HETATM   24  O   UNL     1     -10.758   5.118  68.046  1.00  0.00    -0.024 OA 
BRANCH  22  25
HETATM   25  C   UNL     1     -10.906   7.632  69.529  1.00  0.00    -0.165 A  
HETATM   26  N   UNL     1     -11.889   6.899  70.087  1.00  0.00    -0.265 NA 
HETATM   27  C   UNL     1     -12.190   7.125  71.387  1.00  0.00    -0.362 A  
HETATM   28  C   UNL     1     -11.541   8.062  72.166  1.00  0.00    -0.342 A  
HETATM   29  C   UNL     1     -10.519   8.802  71.597  1.00  0.00    -0.387 A  
HETATM   30  F   UNL     1     -11.893   8.256  73.441  1.00  0.00    -0.120 F  
HETATM   31  C   UNL     1     -10.186   8.579  70.260  1.00  0.00    -0.206 A  
ENDBRANCH  22  25
ENDBRANCH  12  21
ENDBRANCH  10  11
ENDBRANCH   9  10
ENDBRANCH   5   9
TORSDOF 6
ENDMDL
MODEL      213
REMARK 921   NORMALIZED FREE ENERGY PREDICTED BY IDOCK:   -1.63 KCAL/MOL
REMARK 922        TOTAL FREE ENERGY PREDICTED BY IDOCK:   -3.75 KCAL/MOL
REMARK 923 INTER-LIGAND FREE ENERGY PREDICTED BY IDOCK:   -5.18 KCAL/MOL
REMARK 924 INTRA-LIGAND FREE ENERGY PREDICTED BY IDOCK:    1.43 KCAL/MOL
REMARK 927      BINDING AFFINITY PREDICTED BY RF-SCORE:    0.00 PKD
ROOT
HETATM    1  C   UNL     1      -9.417  11.277  62.523  1.00  0.00    -0.173 C  
HETATM    2  C   UNL     1     -10.011  11.908  63.741  1.00  0.00    -0.355 A  
HETATM    3  N   UNL     1     -10.178  13.232  63.761  1.00  0.00    -0.034 NA 
HETATM    4  C   UNL     1     -10.724  13.726  64.892  1.00  0.00    -0.399 A  
HETATM    5  C   UNL     1     -11.104  12.982  66.003  1.00  0.00    -0.278 A  
HETATM    6  C   UNL     1     -11.349  10.516  66.797  1.00  0.00     0.267 C  
HETATM    7  C   UNL     1     -10.913  11.612  65.872  1.00  0.00    -0.280 A  
HETATM    8  N   UNL     1     -10.358  11.085  64.744  1.00  0.00    -0.313 NA 
ENDROOT
BRANCH   5   9
HETATM    9  O   UNL     1     -11.621  13.756  66.997  1.00  0.00    -0.328 OA 
BRANCH   9  10
HETATM   10  C   UNL     1     -11.018  13.701  68.284  1.00  0.00    -0.254 C  
BRANCH  10  11
HETATM   11  C   UNL     1      -9.683  14.460  68.264  1.00  0.00    -0.222 C  
HETATM   12  C   UNL     1      -8.378  13.627  68.295  1.00  0.00    -0.165 C  
HETATM   13  C   UNL     1      -8.881  14.311  69.544  1.00  0.00     0.552 C  
BRANCH  11  14
HETATM   14  C   UNL     1      -9.644  15.805  67.479  1.00  0.00    -0.224 A  
HETATM   15  C   UNL     1      -8.811  16.885  67.861  1.00  0.00    -0.218 A  
HETATM   16  F   UNL     1     -11.071  17.350  64.478  1.00  0.00    -0.217 F  
HETATM   17  C   UNL     1      -8.724  18.075  67.122  1.00  0.00    -0.247 A  
HETATM   18  C   UNL     1     -10.412  16.022  66.318  1.00  0.00    -0.326 A  
HETATM   19  C   UNL     1     -10.328  17.206  65.584  1.00  0.00    -0.183 A  
HETATM   20  C   UNL     1      -9.485  18.234  65.970  1.00  0.00    -0.038 A  
ENDBRANCH  11  14
BRANCH  12  21
HETATM   21  C   UNL     1      -8.431  12.137  68.127  1.00  0.00    -0.175 C  
HETATM   22  N   UNL     1      -8.900  11.484  69.245  1.00  0.00    -0.293 N  
HETATM   23  H   UNL     1      -9.280  12.052  70.003  1.00  0.00     0.000 HD 
HETATM   24  O   UNL     1      -8.077  11.638  67.069  1.00  0.00    -0.152 OA 
BRANCH  22  25
HETATM   25  C   UNL     1      -8.893  10.093  69.412  1.00  0.00    -0.185 A  
HETATM   26  N   UNL     1      -7.859   9.361  68.952  1.00  0.00    -0.082 NA 
HETATM   27  C   UNL     1      -7.897   8.020  69.136  1.00  0.00    -0.108 A  
HETATM   28  C   UNL     1      -8.936   7.370  69.771  1.00  0.00    -0.141 A  
HETATM   29  C   UNL     1      -9.990   8.124  70.260  1.00  0.00    -0.189 A  
HETATM   30  F   UNL     1      -8.931   6.040  69.910  1.00  0.00    -0.134 F  
HETATM   31  C   UNL     1      -9.966   9.510  70.088  1.00  0.00    -0.285 A  
ENDBRANCH  22  25
ENDBRANCH  12  21
ENDBRANCH  10  11
ENDBRANCH   9  10
ENDBRANCH   5   9
TORSDOF 6
ENDMDL
MODEL      214
REMARK 921   NORMALIZED FREE ENERGY PREDICTED BY IDOCK:   -1.46 KCAL/MOL
REMARK 922        TOTAL FREE ENERGY PREDICTED BY IDOCK:   -3.52 KCAL/MOL
REMARK 923 INTER-LIGAND FREE ENERGY PREDICTED BY IDOCK:   -2.80 KCAL/MOL
REMARK 924 INTRA-LIGAND FREE ENERGY PREDICTED BY IDOCK:   -0.72 KCAL/MOL
REMARK 927      BINDING AFFINITY PREDICTED BY RF-SCORE:    0.00 PKD
ROOT
HETATM    1  C   UNL     1      -9.771  10.063  70.286  1.00  0.00    -0.108 C  
HETATM    2  C   UNL     1      -8.597   9.579  69.498  1.00  0.00    -0.169 A  
HETATM    3  N   UNL     1      -8.293  10.196  68.353  1.00  0.00    -0.110 NA 
HETATM    4  C   UNL     1      -7.218   9.705  67.704  1.00  0.00    -0.089 A  
HETATM    5  C   UNL     1      -6.435   8.635  68.119  1.00  0.00    -0.060 A  
HETATM    6  C   UNL     1      -6.116   7.031  70.144  1.00  0.00    -0.024 C  
HETATM    7  C   UNL     1      -6.818   8.078  69.334  1.00  0.00    -0.047 A  
HETATM    8  N   UNL     1      -7.903   8.549  70.011  1.00  0.00    -0.099 NA 
ENDROOT
BRANCH   5   9
HETATM    9  O   UNL     1      -5.419   8.363  67.255  1.00  0.00    -0.036 OA 
BRANCH   9  10
HETATM   10  C   UNL     1      -5.281   7.034  66.764  1.00  0.00    -0.021 C  
BRANCH  10  11
HETATM   11  C   UNL     1      -5.895   6.935  65.359  1.00  0.00    -0.035 C  
HETATM   12  C   UNL     1      -6.779   5.703  65.044  1.00  0.00    -0.047 C  
HETATM   13  C   UNL     1      -5.356   5.773  64.544  1.00  0.00    -0.016 C  
BRANCH  11  14
HETATM   14  C   UNL     1      -6.267   8.271  64.651  1.00  0.00    -0.064 A  
HETATM   15  C   UNL     1      -5.317   9.293  64.407  1.00  0.00    -0.055 A  
HETATM   16  F   UNL     1      -9.132   9.902  63.051  1.00  0.00    -0.206 F  
HETATM   17  C   UNL     1      -5.630  10.471  63.713  1.00  0.00    -0.127 A  
HETATM   18  C   UNL     1      -7.567   8.536  64.179  1.00  0.00    -0.123 A  
HETATM   19  C   UNL     1      -7.881   9.711  63.491  1.00  0.00    -0.136 A  
HETATM   20  C   UNL     1      -6.923  10.679  63.246  1.00  0.00     0.126 A  
ENDBRANCH  11  14
BRANCH  12  21
HETATM   21  C   UNL     1      -7.191   4.769  66.144  1.00  0.00    -0.076 C  
HETATM   22  N   UNL     1      -8.204   5.273  66.928  1.00  0.00    -0.108 N  
HETATM   23  H   UNL     1      -8.656   6.136  66.625  1.00  0.00     0.000 HD 
HETATM   24  O   UNL     1      -6.631   3.688  66.257  1.00  0.00    -0.036 OA 
BRANCH  22  25
HETATM   25  C   UNL     1      -8.657   4.681  68.115  1.00  0.00    -0.102 A  
HETATM   26  N   UNL     1      -8.124   3.518  68.538  1.00  0.00    -0.069 NA 
HETATM   27  C   UNL     1      -8.595   2.985  69.690  1.00  0.00    -0.066 A  
HETATM   28  C   UNL     1      -9.586   3.572  70.450  1.00  0.00    -0.171 A  
HETATM   29  C   UNL     1     -10.121   4.777  70.025  1.00  0.00    -0.308 A  
HETATM   30  F   UNL     1     -10.026   2.992  71.571  1.00  0.00    -0.228 F  
HETATM   31  C   UNL     1      -9.643   5.348  68.844  1.00  0.00    -0.188 A  
ENDBRANCH  22  25
ENDBRANCH  12  21
ENDBRANCH  10  11
ENDBRANCH   9  10
ENDBRANCH   5   9
TORSDOF 6
ENDMDL
MODEL      215
REMARK 921   NORMALIZED FREE ENERGY PREDICTED BY IDOCK:   -0.55 KCAL/MOL
REMARK 922        TOTAL FREE ENERGY PREDICTED BY IDOCK:   -2.29 KCAL/MOL
REMARK 923 INTER-LIGAND FREE ENERGY PREDICTED BY IDOCK:   -1.65 KCAL/MOL
REMARK 924 INTRA-LIGAND FREE ENERGY PREDICTED BY IDOCK:   -0.64 KCAL/MOL
REMARK 927      BINDING AFFINITY PREDICTED BY RF-SCORE:    0.00 PKD
ROOT
HETATM    1  C   UNL     1     -10.312   4.798  68.109  1.00  0.00     0.026 C  
HETATM    2  C   UNL     1     -10.267   6.284  68.266  1.00  0.00    -0.169 A  
HETATM    3  N   UNL     1     -10.621   6.816  69.438  1.00  0.00    -0.219 NA 
HETATM    4  C   UNL     1     -10.548   8.162  69.503  1.00  0.00    -0.213 A  
HETATM    5  C   UNL     1     -10.153   9.005  68.472  1.00  0.00    -0.190 A  
HETATM    6  C   UNL     1      -9.162   8.931  66.067  1.00  0.00    -0.287 C  
HETATM    7  C   UNL     1      -9.780   8.352  67.304  1.00  0.00    -0.184 A  
HETATM    8  N   UNL     1      -9.848   6.994  67.206  1.00  0.00    -0.155 NA 
ENDROOT
BRANCH   5   9
HETATM    9  O   UNL     1     -10.184  10.318  68.830  1.00  0.00    -0.184 OA 
BRANCH   9  10
HETATM   10  C   UNL     1      -9.080  10.853  69.551  1.00  0.00     0.256 C  
BRANCH  10  11
HETATM   11  C   UNL     1      -8.193  11.676  68.605  1.00  0.00    -0.110 C  
HETATM   12  C   UNL     1      -6.723  11.227  68.420  1.00  0.00    -0.061 C  
HETATM   13  C   UNL     1      -7.061  12.398  69.312  1.00  0.00     0.075 C  
BRANCH  11  14
HETATM   14  C   UNL     1      -8.889  12.340  67.380  1.00  0.00    -0.185 A  
HETATM   15  C   UNL     1      -9.838  13.382  67.515  1.00  0.00    -0.227 A  
HETATM   16  F   UNL     1      -8.843  12.222  63.717  1.00  0.00     0.445 F  
HETATM   17  C   UNL     1     -10.421  14.028  66.415  1.00  0.00    -0.284 A  
HETATM   18  C   UNL     1      -8.593  11.968  66.054  1.00  0.00     0.197 A  
HETATM   19  C   UNL     1      -9.174  12.608  64.956  1.00  0.00     0.657 A  
HETATM   20  C   UNL     1     -10.080  13.641  65.123  1.00  0.00    -0.298 A  
ENDBRANCH  11  14
BRANCH  12  21
HETATM   21  C   UNL     1      -6.262   9.911  68.975  1.00  0.00    -0.040 C  
HETATM   22  N   UNL     1      -7.100   8.867  68.655  1.00  0.00    -0.070 N  
HETATM   23  H   UNL     1      -7.851   9.047  67.987  1.00  0.00     0.000 HD 
HETATM   24  O   UNL     1      -5.233   9.863  69.632  1.00  0.00    -0.034 OA 
BRANCH  22  25
HETATM   25  C   UNL     1      -6.992   7.573  69.182  1.00  0.00    -0.072 A  
HETATM   26  N   UNL     1      -6.553   6.561  68.410  1.00  0.00    -0.056 NA 
HETATM   27  C   UNL     1      -6.466   5.329  68.965  1.00  0.00    -0.042 A  
HETATM   28  C   UNL     1      -6.801   5.061  70.277  1.00  0.00    -0.044 A  
HETATM   29  C   UNL     1      -7.235   6.105  71.076  1.00  0.00    -0.075 A  
HETATM   30  F   UNL     1      -6.713   3.821  70.768  1.00  0.00    -0.029 F  
HETATM   31  C   UNL     1      -7.323   7.386  70.525  1.00  0.00    -0.076 A  
ENDBRANCH  22  25
ENDBRANCH  12  21
ENDBRANCH  10  11
ENDBRANCH   9  10
ENDBRANCH   5   9
TORSDOF 6
ENDMDL
MODEL      216
REMARK 921   NORMALIZED FREE ENERGY PREDICTED BY IDOCK:    0.59 KCAL/MOL
REMARK 922        TOTAL FREE ENERGY PREDICTED BY IDOCK:   -0.75 KCAL/MOL
REMARK 923 INTER-LIGAND FREE ENERGY PREDICTED BY IDOCK:   -0.34 KCAL/MOL
REMARK 924 INTRA-LIGAND FREE ENERGY PREDICTED BY IDOCK:   -0.41 KCAL/MOL
REMARK 927      BINDING AFFINITY PREDICTED BY RF-SCORE:    0.00 PKD
ROOT
HETATM    1  C   UNL     1     -10.397   4.794  68.039  1.00  0.00     0.020 C  
HETATM    2  C   UNL     1     -10.640   6.269  68.030  1.00  0.00    -0.262 A  
HETATM    3  N   UNL     1     -11.174   6.838  69.114  1.00  0.00    -0.213 NA 
HETATM    4  C   UNL     1     -11.358   8.172  69.031  1.00  0.00     0.601 A  
HETATM    5  C   UNL     1     -11.051   8.968  67.934  1.00  0.00     0.234 A  
HETATM    6  C   UNL     1      -9.887   8.846  65.610  1.00  0.00     0.006 C  
HETATM    7  C   UNL     1     -10.477   8.285  66.869  1.00  0.00    -0.295 A  
HETATM    8  N   UNL     1     -10.284   6.937  66.921  1.00  0.00    -0.232 NA 
ENDROOT
BRANCH   5   9
HETATM    9  O   UNL     1     -11.352  10.280  68.140  1.00  0.00    -0.268 OA 
BRANCH   9  10
HETATM   10  C   UNL     1     -10.544  11.031  69.039  1.00  0.00    -0.225 C  
BRANCH  10  11
HETATM   11  C   UNL     1      -9.319  11.584  68.296  1.00  0.00    -0.190 C  
HETATM   12  C   UNL     1      -7.921  11.092  68.742  1.00  0.00    -0.144 C  
HETATM   13  C   UNL     1      -8.425  12.451  69.163  1.00  0.00     0.601 C  
BRANCH  11  14
HETATM   14  C   UNL     1      -9.500  11.925  66.787  1.00  0.00    -0.207 A  
HETATM   15  C   UNL     1      -8.466  11.742  65.836  1.00  0.00     0.205 A  
HETATM   16  F   UNL     1     -12.076  13.096  64.459  1.00  0.00    -0.376 F  
HETATM   17  C   UNL     1      -8.642  11.986  64.466  1.00  0.00     1.405 A  
HETATM   18  C   UNL     1     -10.716  12.406  66.264  1.00  0.00    -0.287 A  
HETATM   19  C   UNL     1     -10.892  12.653  64.901  1.00  0.00    -0.298 A  
HETATM   20  C   UNL     1      -9.869  12.440  63.994  1.00  0.00    -0.160 A  
ENDBRANCH  11  14
BRANCH  12  21
HETATM   21  C   UNL     1      -7.797   9.953  69.712  1.00  0.00    -0.163 C  
HETATM   22  N   UNL     1      -6.993  10.248  70.790  1.00  0.00     0.017 N  
HETATM   23  H   UNL     1      -6.678  11.212  70.899  1.00  0.00     0.000 HD 
HETATM   24  O   UNL     1      -8.387   8.906  69.490  1.00  0.00    -0.113 OA 
BRANCH  22  25
HETATM   25  C   UNL     1      -6.579   9.314  71.750  1.00  0.00     0.118 A  
HETATM   26  N   UNL     1      -7.171   9.278  72.959  1.00  0.00     0.165 NA 
HETATM   27  C   UNL     1      -6.736   8.358  73.852  1.00  0.00    -0.117 A  
HETATM   28  C   UNL     1      -5.724   7.458  73.585  1.00  0.00    -0.049 A  
HETATM   29  C   UNL     1      -5.128   7.484  72.335  1.00  0.00    -0.036 A  
HETATM   30  F   UNL     1      -5.322   6.582  74.512  1.00  0.00    -0.045 F  
HETATM   31  C   UNL     1      -5.568   8.419  71.396  1.00  0.00    -0.035 A  
ENDBRANCH  22  25
ENDBRANCH  12  21
ENDBRANCH  10  11
ENDBRANCH   9  10
ENDBRANCH   5   9
TORSDOF 6
ENDMDL
MODEL      217
REMARK 921   NORMALIZED FREE ENERGY PREDICTED BY IDOCK:    0.64 KCAL/MOL
REMARK 922        TOTAL FREE ENERGY PREDICTED BY IDOCK:   -0.69 KCAL/MOL
REMARK 923 INTER-LIGAND FREE ENERGY PREDICTED BY IDOCK:    0.53 KCAL/MOL
REMARK 924 INTRA-LIGAND FREE ENERGY PREDICTED BY IDOCK:   -1.22 KCAL/MOL
REMARK 927      BINDING AFFINITY PREDICTED BY RF-SCORE:    0.00 PKD
ROOT
HETATM    1  C   UNL     1     -14.409  13.669  72.424  1.00  0.00    -0.351 C  
HETATM    2  C   UNL     1     -13.261  14.402  71.808  1.00  0.00    -0.358 A  
HETATM    3  N   UNL     1     -13.407  14.908  70.581  1.00  0.00    -0.283 NA 
HETATM    4  C   UNL     1     -12.330  15.559  70.097  1.00  0.00    -0.353 A  
HETATM    5  C   UNL     1     -11.117  15.728  70.755  1.00  0.00    -0.341 A  
HETATM    6  C   UNL     1     -10.000  15.319  73.069  1.00  0.00     5.629 C  
HETATM    7  C   UNL     1     -11.076  15.187  72.034  1.00  0.00     0.017 A  
HETATM    8  N   UNL     1     -12.147  14.519  72.548  1.00  0.00    -0.138 NA 
ENDROOT
BRANCH   5   9
HETATM    9  O   UNL     1     -10.213  16.425  70.013  1.00  0.00    -0.127 OA 
BRANCH   9  10
HETATM   10  C   UNL     1     -10.475  16.622  68.629  1.00  0.00    -0.323 C  
BRANCH  10  11
HETATM   11  C   UNL     1      -9.204  17.123  67.927  1.00  0.00    -0.241 C  
HETATM   12  C   UNL     1      -8.102  16.086  67.602  1.00  0.00    -0.164 C  
HETATM   13  C   UNL     1      -7.956  17.015  68.784  1.00  0.00    -0.248 C  
BRANCH  11  14
HETATM   14  C   UNL     1      -9.364  18.318  66.940  1.00  0.00    -0.286 A  
HETATM   15  C   UNL     1     -10.567  18.567  66.236  1.00  0.00    -0.370 A  
HETATM   16  F   UNL     1      -7.487  21.211  65.702  1.00  0.00     0.182 F  
HETATM   17  C   UNL     1     -10.739  19.677  65.395  1.00  0.00    -0.159 A  
HETATM   18  C   UNL     1      -8.332  19.247  66.710  1.00  0.00    -0.311 A  
HETATM   19  C   UNL     1      -8.500  20.351  65.871  1.00  0.00     0.164 A  
HETATM   20  C   UNL     1      -9.698  20.580  65.216  1.00  0.00     0.670 A  
ENDBRANCH  11  14
BRANCH  12  21
HETATM   21  C   UNL     1      -8.373  14.620  67.771  1.00  0.00    -0.162 C  
HETATM   22  N   UNL     1      -8.933  14.043  66.653  1.00  0.00    -0.423 N  
HETATM   23  H   UNL     1      -8.986  14.606  65.803  1.00  0.00     0.000 HD 
HETATM   24  O   UNL     1      -8.091  14.073  68.827  1.00  0.00    -0.133 OA 
BRANCH  22  25
HETATM   25  C   UNL     1      -9.434  12.736  66.603  1.00  0.00    -0.249 A  
HETATM   26  N   UNL     1     -10.719  12.490  66.926  1.00  0.00    -0.239 NA 
HETATM   27  C   UNL     1     -11.157  11.210  66.862  1.00  0.00    -0.247 A  
HETATM   28  C   UNL     1     -10.357  10.151  66.483  1.00  0.00    -0.202 A  
HETATM   29  C   UNL     1      -9.041  10.406  66.133  1.00  0.00    -0.183 A  
HETATM   30  F   UNL     1     -10.837   8.904  66.456  1.00  0.00    -0.237 F  
HETATM   31  C   UNL     1      -8.572  11.721  66.183  1.00  0.00    -0.001 A  
ENDBRANCH  22  25
ENDBRANCH  12  21
ENDBRANCH  10  11
ENDBRANCH   9  10
ENDBRANCH   5   9
TORSDOF 6
ENDMDL
MODEL      218
REMARK 921   NORMALIZED FREE ENERGY PREDICTED BY IDOCK:    1.22 KCAL/MOL
REMARK 922        TOTAL FREE ENERGY PREDICTED BY IDOCK:    0.10 KCAL/MOL
REMARK 923 INTER-LIGAND FREE ENERGY PREDICTED BY IDOCK:   -1.13 KCAL/MOL
REMARK 924 INTRA-LIGAND FREE ENERGY PREDICTED BY IDOCK:    1.23 KCAL/MOL
REMARK 927      BINDING AFFINITY PREDICTED BY RF-SCORE:    0.00 PKD
ROOT
HETATM    1  C   UNL     1     -12.712  11.841  66.401  1.00  0.00     2.959 C  
HETATM    2  C   UNL     1     -11.229  11.730  66.552  1.00  0.00    -0.321 A  
HETATM    3  N   UNL     1     -10.550  10.978  65.681  1.00  0.00    -0.231 NA 
HETATM    4  C   UNL     1      -9.217  10.933  65.880  1.00  0.00    -0.191 A  
HETATM    5  C   UNL     1      -8.522  11.581  66.894  1.00  0.00    -0.165 A  
HETATM    6  C   UNL     1      -8.887  13.302  68.811  1.00  0.00     0.146 C  
HETATM    7  C   UNL     1      -9.316  12.358  67.729  1.00  0.00    -0.196 A  
HETATM    8  N   UNL     1     -10.666  12.419  67.557  1.00  0.00    -0.224 NA 
ENDROOT
BRANCH   5   9
HETATM    9  O   UNL     1      -7.183  11.344  66.844  1.00  0.00    -0.131 OA 
BRANCH   9  10
HETATM   10  C   UNL     1      -6.734  10.055  66.445  1.00  0.00    -0.088 C  
BRANCH  10  11
HETATM   11  C   UNL     1      -6.880   9.070  67.614  1.00  0.00    -0.070 C  
HETATM   12  C   UNL     1      -6.271   9.474  68.979  1.00  0.00    -0.042 C  
HETATM   13  C   UNL     1      -5.559   8.487  68.084  1.00  0.00    -0.035 C  
BRANCH  11  14
HETATM   14  C   UNL     1      -8.167   8.194  67.646  1.00  0.00    -0.127 A  
HETATM   15  C   UNL     1      -8.420   7.176  66.694  1.00  0.00    -0.121 A  
HETATM   16  F   UNL     1     -11.166   7.678  69.689  1.00  0.00    -0.223 F  
HETATM   17  C   UNL     1      -9.546   6.342  66.754  1.00  0.00    -0.183 A  
HETATM   18  C   UNL     1      -9.149   8.335  68.646  1.00  0.00    -0.140 A  
HETATM   19  C   UNL     1     -10.272   7.507  68.706  1.00  0.00    -0.197 A  
HETATM   20  C   UNL     1     -10.477   6.505  67.774  1.00  0.00    -0.279 A  
ENDBRANCH  11  14
BRANCH  12  21
HETATM   21  C   UNL     1      -5.759  10.868  69.192  1.00  0.00    -0.040 C  
HETATM   22  N   UNL     1      -5.992  11.340  70.465  1.00  0.00    -0.143 N  
HETATM   23  H   UNL     1      -6.353  10.683  71.156  1.00  0.00     0.000 HD 
HETATM   24  O   UNL     1      -5.200  11.451  68.274  1.00  0.00    -0.040 OA 
BRANCH  22  25
HETATM   25  C   UNL     1      -5.766  12.661  70.874  1.00  0.00    -0.069 A  
HETATM   26  N   UNL     1      -5.334  12.919  72.124  1.00  0.00    -0.386 NA 
HETATM   27  C   UNL     1      -5.131  14.211  72.472  1.00  0.00    -0.215 A  
HETATM   28  C   UNL     1      -5.341  15.272  71.614  1.00  0.00     0.048 A  
HETATM   29  C   UNL     1      -5.767  15.006  70.323  1.00  0.00    -0.144 A  
HETATM   30  F   UNL     1      -5.142  16.531  72.017  1.00  0.00    -0.148 F  
HETATM   31  C   UNL     1      -5.974  13.678  69.941  1.00  0.00    -0.131 A  
ENDBRANCH  22  25
ENDBRANCH  12  21
ENDBRANCH  10  11
ENDBRANCH   9  10
ENDBRANCH   5   9
TORSDOF 6
ENDMDL
MODEL      219
REMARK 921   NORMALIZED FREE ENERGY PREDICTED BY IDOCK:    3.35 KCAL/MOL
REMARK 922        TOTAL FREE ENERGY PREDICTED BY IDOCK:    2.98 KCAL/MOL
REMARK 923 INTER-LIGAND FREE ENERGY PREDICTED BY IDOCK:   -4.87 KCAL/MOL
REMARK 924 INTRA-LIGAND FREE ENERGY PREDICTED BY IDOCK:    7.85 KCAL/MOL
REMARK 927      BINDING AFFINITY PREDICTED BY RF-SCORE:    0.00 PKD
ROOT
HETATM    1  C   UNL     1      -9.223  17.937  69.466  1.00  0.00     0.583 C  
HETATM    2  C   UNL     1      -9.721  16.702  68.787  1.00  0.00    -0.254 A  
HETATM    3  N   UNL     1      -9.643  15.537  69.436  1.00  0.00    -0.266 NA 
HETATM    4  C   UNL     1     -10.118  14.470  68.761  1.00  0.00    -0.239 A  
HETATM    5  C   UNL     1     -10.656  14.493  67.479  1.00  0.00    -0.262 A  
HETATM    6  C   UNL     1     -11.368  16.163  65.615  1.00  0.00     0.255 C  
HETATM    7  C   UNL     1     -10.715  15.755  66.901  1.00  0.00    -0.299 A  
HETATM    8  N   UNL     1     -10.238  16.850  67.557  1.00  0.00    -0.287 NA 
ENDROOT
BRANCH   5   9
HETATM    9  O   UNL     1     -11.047  13.260  67.056  1.00  0.00    -0.272 OA 
BRANCH   9  10
HETATM   10  C   UNL     1     -10.912  12.159  67.947  1.00  0.00    -0.229 C  
BRANCH  10  11
HETATM   11  C   UNL     1      -9.863  11.177  67.403  1.00  0.00    -0.195 C  
HETATM   12  C   UNL     1      -8.561  11.768  66.808  1.00  0.00    -0.185 C  
HETATM   13  C   UNL     1      -9.664  11.275  65.901  1.00  0.00    -0.258 C  
BRANCH  11  14
HETATM   14  C   UNL     1      -9.753   9.794  68.110  1.00  0.00    -0.163 A  
HETATM   15  C   UNL     1     -10.031   8.575  67.445  1.00  0.00    -0.275 A  
HETATM   16  F   UNL     1      -8.766   8.356  71.333  1.00  0.00    -0.138 F  
HETATM   17  C   UNL     1      -9.873   7.323  68.057  1.00  0.00    -0.167 A  
HETATM   18  C   UNL     1      -9.336   9.664  69.449  1.00  0.00    -0.201 A  
HETATM   19  C   UNL     1      -9.180   8.418  70.060  1.00  0.00    -0.158 A  
HETATM   20  C   UNL     1      -9.437   7.244  69.374  1.00  0.00    -0.154 A  
ENDBRANCH  11  14
BRANCH  12  21
HETATM   21  C   UNL     1      -8.255  13.229  66.967  1.00  0.00    -0.045 C  
HETATM   22  N   UNL     1      -7.024  13.463  67.537  1.00  0.00    -0.215 N  
HETATM   23  H   UNL     1      -6.402  12.665  67.669  1.00  0.00     0.000 HD 
HETATM   24  O   UNL     1      -9.073  14.059  66.598  1.00  0.00    -0.250 OA 
BRANCH  22  25
HETATM   25  C   UNL     1      -6.567  14.723  67.947  1.00  0.00    -0.161 A  
HETATM   26  N   UNL     1      -6.100  15.602  67.039  1.00  0.00    -0.242 NA 
HETATM   27  C   UNL     1      -5.669  16.806  67.484  1.00  0.00    -0.150 A  
HETATM   28  C   UNL     1      -5.687  17.176  68.813  1.00  0.00    -0.146 A  
HETATM   29  C   UNL     1      -6.184  16.279  69.744  1.00  0.00    -0.192 A  
HETATM   30  F   UNL     1      -5.232  18.373  69.199  1.00  0.00    -0.176 F  
HETATM   31  C   UNL     1      -6.642  15.035  69.305  1.00  0.00    -0.131 A  
ENDBRANCH  22  25
ENDBRANCH  12  21
ENDBRANCH  10  11
ENDBRANCH   9  10
ENDBRANCH   5   9
TORSDOF 6
ENDMDL
MODEL      220
REMARK 921   NORMALIZED FREE ENERGY PREDICTED BY IDOCK:   12.39 KCAL/MOL
REMARK 922        TOTAL FREE ENERGY PREDICTED BY IDOCK:   15.18 KCAL/MOL
REMARK 923 INTER-LIGAND FREE ENERGY PREDICTED BY IDOCK:   -0.61 KCAL/MOL
REMARK 924 INTRA-LIGAND FREE ENERGY PREDICTED BY IDOCK:   15.79 KCAL/MOL
REMARK 927      BINDING AFFINITY PREDICTED BY RF-SCORE:    0.00 PKD
ROOT
HETATM    1  C   UNL     1      -8.574  16.947  69.672  1.00  0.00     0.738 C  
HETATM    2  C   UNL     1      -8.753  15.576  69.103  1.00  0.00    -0.247 A  
HETATM    3  N   UNL     1      -8.375  14.525  69.834  1.00  0.00     0.486 NA 
HETATM    4  C   UNL     1      -8.575  13.322  69.256  1.00  0.00     0.833 A  
HETATM    5  C   UNL     1      -9.118  13.106  67.995  1.00  0.00    -0.207 A  
HETATM    6  C   UNL     1     -10.253  14.390  66.037  1.00  0.00    -0.328 C  
HETATM    7  C   UNL     1      -9.501  14.263  67.327  1.00  0.00    -0.220 A  
HETATM    8  N   UNL     1      -9.308  15.492  67.883  1.00  0.00    -0.192 NA 
ENDROOT
BRANCH   5   9
HETATM    9  O   UNL     1      -9.191  11.785  67.677  1.00  0.00    -0.172 OA 
BRANCH   9  10
HETATM   10  C   UNL     1      -9.030  10.825  68.715  1.00  0.00    -0.170 C  
BRANCH  10  11
HETATM   11  C   UNL     1      -7.636  10.186  68.619  1.00  0.00    -0.086 C  
HETATM   12  C   UNL     1      -6.480  11.056  68.069  1.00  0.00    -0.057 C  
HETATM   13  C   UNL     1      -7.143  10.021  67.193  1.00  0.00    -0.089 C  
BRANCH  11  14
HETATM   14  C   UNL     1      -7.270   9.120  69.693  1.00  0.00    -0.061 A  
HETATM   15  C   UNL     1      -6.442   9.413  70.804  1.00  0.00    -0.086 A  
HETATM   16  F   UNL     1      -7.997   5.634  70.556  1.00  0.00    -0.093 F  
HETATM   17  C   UNL     1      -6.160   8.476  71.809  1.00  0.00    -0.058 A  
HETATM   18  C   UNL     1      -7.766   7.803  69.647  1.00  0.00    -0.101 A  
HETATM   19  C   UNL     1      -7.484   6.868  70.645  1.00  0.00    -0.082 A  
HETATM   20  C   UNL     1      -6.691   7.194  71.732  1.00  0.00    -0.052 A  
ENDBRANCH  11  14
BRANCH  12  21
HETATM   21  C   UNL     1      -6.681  12.528  67.853  1.00  0.00    -0.103 C  
HETATM   22  N   UNL     1      -5.511  13.250  67.939  1.00  0.00    -0.116 N  
HETATM   23  H   UNL     1      -4.636  12.731  68.003  1.00  0.00     0.000 HD 
HETATM   24  O   UNL     1      -7.803  12.955  67.627  1.00  0.00    -0.141 OA 
BRANCH  22  25
HETATM   25  C   UNL     1      -5.443  14.650  67.943  1.00  0.00    -0.087 A  
HETATM   26  N   UNL     1      -5.434  15.331  66.781  1.00  0.00     0.652 NA 
HETATM   27  C   UNL     1      -5.367  16.682  66.836  1.00  0.00    -0.041 A  
HETATM   28  C   UNL     1      -5.310  17.392  68.019  1.00  0.00    -0.133 A  
HETATM   29  C   UNL     1      -5.338  16.693  69.214  1.00  0.00    -0.136 A  
HETATM   30  F   UNL     1      -5.226  18.727  68.015  1.00  0.00    -0.168 F  
HETATM   31  C   UNL     1      -5.416  15.299  69.178  1.00  0.00    -0.095 A  
ENDBRANCH  22  25
ENDBRANCH  12  21
ENDBRANCH  10  11
ENDBRANCH   9  10
ENDBRANCH   5   9
TORSDOF 6
ENDMDL
MODEL      221
REMARK 921   NORMALIZED FREE ENERGY PREDICTED BY IDOCK:   38.78 KCAL/MOL
REMARK 922        TOTAL FREE ENERGY PREDICTED BY IDOCK:   50.83 KCAL/MOL
REMARK 923 INTER-LIGAND FREE ENERGY PREDICTED BY IDOCK:   37.13 KCAL/MOL
REMARK 924 INTRA-LIGAND FREE ENERGY PREDICTED BY IDOCK:   13.70 KCAL/MOL
REMARK 927      BINDING AFFINITY PREDICTED BY RF-SCORE:    0.00 PKD
ROOT
HETATM    1  C   UNL     1      -8.687  13.672  62.336  1.00  0.00    13.722 C  
HETATM    2  C   UNL     1      -9.404  13.591  63.645  1.00  0.00     4.282 A  
HETATM    3  N   UNL     1      -8.945  14.307  64.674  1.00  0.00     2.630 NA 
HETATM    4  C   UNL     1      -9.649  14.186  65.818  1.00  0.00    -0.133 A  
HETATM    5  C   UNL     1     -10.773  13.390  66.000  1.00  0.00    -0.278 A  
HETATM    6  C   UNL     1     -12.429  11.894  64.662  1.00  0.00    -0.030 C  
HETATM    7  C   UNL     1     -11.185  12.705  64.864  1.00  0.00    -0.297 A  
HETATM    8  N   UNL     1     -10.491  12.804  63.695  1.00  0.00    -0.328 NA 
ENDROOT
BRANCH   5   9
HETATM    9  O   UNL     1     -11.267  13.466  67.267  1.00  0.00    -0.278 OA 
BRANCH   9  10
HETATM   10  C   UNL     1     -10.383  13.823  68.322  1.00  0.00    -0.247 C  
BRANCH  10  11
HETATM   11  C   UNL     1      -8.978  14.080  67.756  1.00  0.00    -0.186 C  
HETATM   12  C   UNL     1      -8.135  15.207  68.401  1.00  0.00    -0.139 C  
HETATM   13  C   UNL     1      -8.835  15.432  67.082  1.00  0.00    -0.234 C  
BRANCH  11  14
HETATM   14  C   UNL     1      -8.203  12.850  67.197  1.00  0.00    -0.142 A  
HETATM   15  C   UNL     1      -7.562  12.864  65.934  1.00  0.00     2.806 A  
HETATM   16  F   UNL     1      -7.205   9.467  68.192  1.00  0.00    -0.074 F  
HETATM   17  C   UNL     1      -6.809  11.783  65.452  1.00  0.00     1.970 A  
HETATM   18  C   UNL     1      -8.063  11.653  67.926  1.00  0.00    -0.138 A  
HETATM   19  C   UNL     1      -7.316  10.575  67.447  1.00  0.00    -0.093 A  
HETATM   20  C   UNL     1      -6.680  10.630  66.219  1.00  0.00    -0.129 A  
ENDBRANCH  11  14
BRANCH  12  21
HETATM   21  C   UNL     1      -8.598  15.863  69.669  1.00  0.00     0.044 C  
HETATM   22  N   UNL     1      -9.889  15.527  70.010  1.00  0.00    -0.380 N  
HETATM   23  H   UNL     1     -10.347  14.792  69.471  1.00  0.00     0.000 HD 
HETATM   24  O   UNL     1      -7.838  16.603  70.276  1.00  0.00     1.420 OA 
BRANCH  22  25
HETATM   25  C   UNL     1     -10.615  16.126  71.048  1.00  0.00     0.620 A  
HETATM   26  N   UNL     1     -11.563  17.042  70.771  1.00  0.00     0.797 NA 
HETATM   27  C   UNL     1     -12.237  17.593  71.808  1.00  0.00     5.378 A  
HETATM   28  C   UNL     1     -12.005  17.261  73.127  1.00  0.00     0.769 A  
HETATM   29  C   UNL     1     -11.044  16.305  73.411  1.00  0.00     1.968 A  
HETATM   30  F   UNL     1     -12.689  17.850  74.114  1.00  0.00     0.907 F  
HETATM   31  C   UNL     1     -10.343  15.719  72.355  1.00  0.00     2.925 A  
ENDBRANCH  22  25
ENDBRANCH  12  21
ENDBRANCH  10  11
ENDBRANCH   9  10
ENDBRANCH   5   9
TORSDOF 6
ENDMDL
