MODEL        1
REMARK 921   NORMALIZED FREE ENERGY PREDICTED BY IDOCK:   -7.14 KCAL/MOL
REMARK 922        TOTAL FREE ENERGY PREDICTED BY IDOCK:   -7.91 KCAL/MOL
REMARK 923 INTER-LIGAND FREE ENERGY PREDICTED BY IDOCK:   -7.56 KCAL/MOL
REMARK 924 INTRA-LIGAND FREE ENERGY PREDICTED BY IDOCK:   -0.34 KCAL/MOL
REMARK 927      BINDING AFFINITY PREDICTED BY RF-SCORE:    0.00 PKD
ROOT
HETATM    1  N   UNL     1     -13.497  12.384  72.093  1.00  0.00    -0.493 NA 
HETATM    2  C   UNL     1     -13.061  13.707  72.011  1.00  0.00    -0.393 A  
HETATM    3  H1  UNL     1     -13.577  11.820  71.246  1.00  0.00     0.000 HD 
HETATM    4  H2  UNL     1     -14.395  12.369  72.577  1.00  0.00     0.000 HD 
HETATM    5  C   UNL     1     -12.951  14.483  73.178  1.00  0.00    -0.577 A  
HETATM    6  C   UNL     1     -12.388  15.775  73.162  1.00  0.00    -0.591 A  
HETATM    7  C   UNL     1     -11.874  16.305  71.983  1.00  0.00    -0.568 A  
HETATM    8  C   UNL     1     -11.938  15.506  70.858  1.00  0.00    -0.420 A  
HETATM    9  C   UNL     1     -12.506  14.228  70.855  1.00  0.00    -0.424 A  
HETATM   10  C   UNL     1     -12.377  13.630  69.491  1.00  0.00    -0.182 C  
HETATM   11  N   UNL     1     -11.765  14.705  68.721  1.00  0.00    -0.314 N  
HETATM   12  O   UNL     1     -10.861  16.812  69.179  1.00  0.00    -0.324 OA 
HETATM   13  C   UNL     1     -11.438  15.794  69.510  1.00  0.00    -0.353 C  
ENDROOT
BRANCH  11  14
HETATM   14  C   UNL     1     -11.310  14.571  67.343  1.00  0.00    -0.356 C  
HETATM   15  C   UNL     1     -12.359  13.945  66.432  1.00  0.00    -0.468 C  
HETATM   16  C   UNL     1     -11.884  14.055  64.989  1.00  0.00    -0.383 C  
HETATM   17  C   UNL     1     -10.514  13.440  64.807  1.00  0.00    -0.403 C  
HETATM   18  O   UNL     1     -10.165  12.925  63.748  1.00  0.00    -0.378 OA 
HETATM   19  N   UNL     1      -9.658  13.500  65.879  1.00  0.00    -0.485 N  
HETATM   20  C   UNL     1     -10.006  13.776  67.185  1.00  0.00    -0.243 C  
HETATM   21  H   UNL     1      -8.672  13.324  65.692  1.00  0.00     0.000 HD 
HETATM   22  O   UNL     1      -9.310  13.377  68.114  1.00  0.00    -0.207 OA 
ENDBRANCH  11  14
TORSDOF 1
ENDMDL
MODEL        2
REMARK 921   NORMALIZED FREE ENERGY PREDICTED BY IDOCK:   -7.02 KCAL/MOL
REMARK 922        TOTAL FREE ENERGY PREDICTED BY IDOCK:   -7.78 KCAL/MOL
REMARK 923 INTER-LIGAND FREE ENERGY PREDICTED BY IDOCK:   -7.56 KCAL/MOL
REMARK 924 INTRA-LIGAND FREE ENERGY PREDICTED BY IDOCK:   -0.21 KCAL/MOL
REMARK 927      BINDING AFFINITY PREDICTED BY RF-SCORE:    0.00 PKD
ROOT
HETATM    1  N   UNL     1     -13.809  13.345  72.110  1.00  0.00    -0.528 NA 
HETATM    2  C   UNL     1     -13.013  12.346  71.551  1.00  0.00    -0.285 A  
HETATM    3  H1  UNL     1     -13.772  14.295  71.738  1.00  0.00     0.000 HD 
HETATM    4  H2  UNL     1     -13.623  13.384  73.112  1.00  0.00     0.000 HD 
HETATM    5  C   UNL     1     -13.066  11.038  72.064  1.00  0.00    -0.449 A  
HETATM    6  C   UNL     1     -12.386   9.968  71.448  1.00  0.00    -0.512 A  
HETATM    7  C   UNL     1     -11.674  10.172  70.270  1.00  0.00    -0.361 A  
HETATM    8  C   UNL     1     -11.679  11.450  69.748  1.00  0.00    -0.418 A  
HETATM    9  C   UNL     1     -12.338  12.524  70.355  1.00  0.00    -0.311 A  
HETATM   10  C   UNL     1     -12.175  13.748  69.513  1.00  0.00    -0.293 C  
HETATM   11  N   UNL     1     -11.310  13.288  68.434  1.00  0.00    -0.271 N  
HETATM   12  O   UNL     1     -10.429  11.240  67.730  1.00  0.00    -0.176 OA 
HETATM   13  C   UNL     1     -11.055  11.930  68.511  1.00  0.00    -0.243 C  
ENDROOT
BRANCH  11  14
HETATM   14  C   UNL     1     -10.958  14.086  67.268  1.00  0.00    -0.295 C  
HETATM   15  C   UNL     1     -11.000  15.585  67.541  1.00  0.00    -0.316 C  
HETATM   16  C   UNL     1     -10.404  16.318  66.347  1.00  0.00    -0.319 C  
HETATM   17  C   UNL     1     -11.103  15.943  65.059  1.00  0.00    -0.360 C  
HETATM   18  O   UNL     1     -11.205  16.726  64.119  1.00  0.00    -1.155 OA 
HETATM   19  N   UNL     1     -11.607  14.668  64.974  1.00  0.00    -0.371 N  
HETATM   20  C   UNL     1     -11.820  13.804  66.027  1.00  0.00    -0.390 C  
HETATM   21  H   UNL     1     -11.847  14.328  64.043  1.00  0.00     0.000 HD 
HETATM   22  O   UNL     1     -12.656  12.910  65.943  1.00  0.00    -0.509 OA 
ENDBRANCH  11  14
TORSDOF 1
ENDMDL
MODEL        3
REMARK 921   NORMALIZED FREE ENERGY PREDICTED BY IDOCK:   -7.00 KCAL/MOL
REMARK 922        TOTAL FREE ENERGY PREDICTED BY IDOCK:   -7.76 KCAL/MOL
REMARK 923 INTER-LIGAND FREE ENERGY PREDICTED BY IDOCK:   -7.39 KCAL/MOL
REMARK 924 INTRA-LIGAND FREE ENERGY PREDICTED BY IDOCK:   -0.36 KCAL/MOL
REMARK 927      BINDING AFFINITY PREDICTED BY RF-SCORE:    0.00 PKD
ROOT
HETATM    1  N   UNL     1      -5.588  17.205  66.219  1.00  0.00    -0.337 NA 
HETATM    2  C   UNL     1      -6.615  17.672  67.039  1.00  0.00    -0.167 A  
HETATM    3  H1  UNL     1      -5.715  16.347  65.682  1.00  0.00     0.000 HD 
HETATM    4  H2  UNL     1      -4.743  17.110  66.782  1.00  0.00     0.000 HD 
HETATM    5  C   UNL     1      -6.440  18.854  67.779  1.00  0.00    -0.220 A  
HETATM    6  C   UNL     1      -7.493  19.437  68.512  1.00  0.00    -0.366 A  
HETATM    7  C   UNL     1      -8.766  18.877  68.483  1.00  0.00    -0.382 A  
HETATM    8  C   UNL     1      -8.935  17.748  67.705  1.00  0.00    -0.249 A  
HETATM    9  C   UNL     1      -7.897  17.151  66.983  1.00  0.00    -0.229 A  
HETATM   10  C   UNL     1      -8.429  15.978  66.224  1.00  0.00    -0.302 C  
HETATM   11  N   UNL     1      -9.824  15.925  66.644  1.00  0.00    -0.243 N  
HETATM   12  O   UNL     1     -11.259  17.261  67.918  1.00  0.00    -0.177 OA 
HETATM   13  C   UNL     1     -10.165  16.989  67.461  1.00  0.00    -0.323 C  
ENDROOT
BRANCH  11  14
HETATM   14  C   UNL     1     -10.817  15.022  66.078  1.00  0.00    -0.334 C  
HETATM   15  C   UNL     1     -10.273  13.618  65.840  1.00  0.00    -0.318 C  
HETATM   16  C   UNL     1     -11.430  12.701  65.468  1.00  0.00    -0.375 C  
HETATM   17  C   UNL     1     -12.201  13.233  64.281  1.00  0.00    -0.392 C  
HETATM   18  O   UNL     1     -12.771  12.491  63.486  1.00  0.00    -0.722 OA 
HETATM   19  N   UNL     1     -12.258  14.597  64.138  1.00  0.00    -0.847 N  
HETATM   20  C   UNL     1     -11.445  15.518  64.766  1.00  0.00    -0.313 C  
HETATM   21  H   UNL     1     -12.969  14.966  63.507  1.00  0.00     0.000 HD 
HETATM   22  O   UNL     1     -11.251  16.623  64.269  1.00  0.00    -1.098 OA 
ENDBRANCH  11  14
TORSDOF 1
ENDMDL
MODEL        4
REMARK 921   NORMALIZED FREE ENERGY PREDICTED BY IDOCK:   -6.96 KCAL/MOL
REMARK 922        TOTAL FREE ENERGY PREDICTED BY IDOCK:   -7.71 KCAL/MOL
REMARK 923 INTER-LIGAND FREE ENERGY PREDICTED BY IDOCK:   -7.59 KCAL/MOL
REMARK 924 INTRA-LIGAND FREE ENERGY PREDICTED BY IDOCK:   -0.13 KCAL/MOL
REMARK 927      BINDING AFFINITY PREDICTED BY RF-SCORE:    0.00 PKD
ROOT
HETATM    1  N   UNL     1      -7.414  18.851  65.591  1.00  0.00    -0.489 NA 
HETATM    2  C   UNL     1      -8.225  18.626  66.703  1.00  0.00    -0.278 A  
HETATM    3  H1  UNL     1      -7.393  18.173  64.829  1.00  0.00     0.000 HD 
HETATM    4  H2  UNL     1      -6.458  19.002  65.914  1.00  0.00     0.000 HD 
HETATM    5  C   UNL     1      -8.253  19.560  67.753  1.00  0.00    -0.333 A  
HETATM    6  C   UNL     1      -9.156  19.444  68.829  1.00  0.00    -0.411 A  
HETATM    7  C   UNL     1     -10.090  18.414  68.857  1.00  0.00    -0.352 A  
HETATM    8  C   UNL     1     -10.088  17.538  67.789  1.00  0.00    -0.330 A  
HETATM    9  C   UNL     1      -9.190  17.632  66.721  1.00  0.00    -0.281 A  
HETATM   10  C   UNL     1      -9.485  16.556  65.726  1.00  0.00    -0.114 C  
HETATM   11  N   UNL     1     -10.564  15.812  66.364  1.00  0.00    -0.309 N  
HETATM   12  O   UNL     1     -11.897  16.063  68.268  1.00  0.00    -0.250 OA 
HETATM   13  C   UNL     1     -10.981  16.402  67.544  1.00  0.00    -0.184 C  
ENDROOT
BRANCH  11  14
HETATM   14  C   UNL     1     -11.300  14.727  65.727  1.00  0.00    -0.336 C  
HETATM   15  C   UNL     1     -10.457  13.472  65.536  1.00  0.00    -0.304 C  
HETATM   16  C   UNL     1     -11.364  12.337  65.080  1.00  0.00    -0.376 C  
HETATM   17  C   UNL     1     -12.139  12.711  63.836  1.00  0.00    -0.487 C  
HETATM   18  O   UNL     1     -12.479  11.876  63.003  1.00  0.00    -0.398 OA 
HETATM   19  N   UNL     1     -12.470  14.034  63.685  1.00  0.00    -1.042 N  
HETATM   20  C   UNL     1     -11.918  15.097  64.370  1.00  0.00    -0.310 C  
HETATM   21  H   UNL     1     -13.194  14.254  63.001  1.00  0.00     0.000 HD 
HETATM   22  O   UNL     1     -11.924  16.224  63.885  1.00  0.00    -1.003 OA 
ENDBRANCH  11  14
TORSDOF 1
ENDMDL
MODEL        5
REMARK 921   NORMALIZED FREE ENERGY PREDICTED BY IDOCK:   -6.83 KCAL/MOL
REMARK 922        TOTAL FREE ENERGY PREDICTED BY IDOCK:   -7.58 KCAL/MOL
REMARK 923 INTER-LIGAND FREE ENERGY PREDICTED BY IDOCK:   -7.69 KCAL/MOL
REMARK 924 INTRA-LIGAND FREE ENERGY PREDICTED BY IDOCK:    0.12 KCAL/MOL
REMARK 927      BINDING AFFINITY PREDICTED BY RF-SCORE:    0.00 PKD
ROOT
HETATM    1  N   UNL     1      -9.873   8.332  68.611  1.00  0.00    -0.171 NA 
HETATM    2  C   UNL     1     -10.692   9.280  69.223  1.00  0.00    -0.196 A  
HETATM    3  H1  UNL     1      -9.571   8.466  67.646  1.00  0.00     0.000 HD 
HETATM    4  H2  UNL     1     -10.324   7.420  68.684  1.00  0.00     0.000 HD 
HETATM    5  C   UNL     1     -11.108   9.095  70.553  1.00  0.00    -0.308 A  
HETATM    6  C   UNL     1     -11.820  10.088  71.256  1.00  0.00    -0.471 A  
HETATM    7  C   UNL     1     -12.092  11.314  70.660  1.00  0.00    -0.480 A  
HETATM    8  C   UNL     1     -11.627  11.502  69.373  1.00  0.00    -0.388 A  
HETATM    9  C   UNL     1     -10.930  10.522  68.658  1.00  0.00    -0.294 A  
HETATM   10  C   UNL     1     -10.543  11.063  67.320  1.00  0.00    -0.245 C  
HETATM   11  N   UNL     1     -11.146  12.390  67.319  1.00  0.00    -0.266 N  
HETATM   12  O   UNL     1     -12.256  13.745  68.868  1.00  0.00    -0.344 OA 
HETATM   13  C   UNL     1     -11.733  12.699  68.533  1.00  0.00    -0.330 C  
ENDROOT
BRANCH  11  14
HETATM   14  C   UNL     1     -10.944  13.382  66.271  1.00  0.00    -0.288 C  
HETATM   15  C   UNL     1     -10.619  14.766  66.822  1.00  0.00    -0.302 C  
HETATM   16  C   UNL     1     -10.206  15.668  65.667  1.00  0.00    -0.402 C  
HETATM   17  C   UNL     1     -11.263  15.707  64.586  1.00  0.00    -0.369 C  
HETATM   18  O   UNL     1     -11.438  16.696  63.879  1.00  0.00    -1.186 OA 
HETATM   19  N   UNL     1     -12.014  14.571  64.411  1.00  0.00    -0.585 N  
HETATM   20  C   UNL     1     -12.125  13.522  65.299  1.00  0.00    -0.411 C  
HETATM   21  H   UNL     1     -12.540  14.496  63.541  1.00  0.00     0.000 HD 
HETATM   22  O   UNL     1     -13.117  12.799  65.291  1.00  0.00    -0.658 OA 
ENDBRANCH  11  14
TORSDOF 1
ENDMDL
MODEL        6
REMARK 921   NORMALIZED FREE ENERGY PREDICTED BY IDOCK:   -6.80 KCAL/MOL
REMARK 922        TOTAL FREE ENERGY PREDICTED BY IDOCK:   -7.54 KCAL/MOL
REMARK 923 INTER-LIGAND FREE ENERGY PREDICTED BY IDOCK:   -7.18 KCAL/MOL
REMARK 924 INTRA-LIGAND FREE ENERGY PREDICTED BY IDOCK:   -0.36 KCAL/MOL
REMARK 927      BINDING AFFINITY PREDICTED BY RF-SCORE:    0.00 PKD
ROOT
HETATM    1  N   UNL     1     -10.221  12.706  68.141  1.00  0.00    -0.233 NA 
HETATM    2  C   UNL     1     -10.802  13.136  66.948  1.00  0.00    -0.265 A  
HETATM    3  H1  UNL     1      -9.477  13.255  68.573  1.00  0.00     0.000 HD 
HETATM    4  H2  UNL     1      -9.885  11.752  68.012  1.00  0.00     0.000 HD 
HETATM    5  C   UNL     1     -11.827  12.380  66.354  1.00  0.00    -0.421 A  
HETATM    6  C   UNL     1     -12.535  12.842  65.226  1.00  0.00    -0.552 A  
HETATM    7  C   UNL     1     -12.267  14.098  64.693  1.00  0.00    -0.465 A  
HETATM    8  C   UNL     1     -11.297  14.853  65.323  1.00  0.00    -0.358 A  
HETATM    9  C   UNL     1     -10.577  14.402  66.435  1.00  0.00    -0.297 A  
HETATM   10  C   UNL     1      -9.639  15.474  66.887  1.00  0.00    -0.228 C  
HETATM   11  N   UNL     1      -9.839  16.522  65.893  1.00  0.00    -0.314 N  
HETATM   12  O   UNL     1     -11.297  16.902  64.106  1.00  0.00    -1.208 OA 
HETATM   13  C   UNL     1     -10.850  16.211  65.002  1.00  0.00    -0.363 C  
ENDROOT
BRANCH  11  14
HETATM   14  C   UNL     1      -9.239  17.847  65.967  1.00  0.00    -0.010 C  
HETATM   15  C   UNL     1      -7.759  17.808  66.330  1.00  0.00    -0.308 C  
HETATM   16  C   UNL     1      -7.175  19.205  66.160  1.00  0.00    -0.283 C  
HETATM   17  C   UNL     1      -7.943  20.229  66.965  1.00  0.00    -0.324 C  
HETATM   18  O   UNL     1      -7.407  21.233  67.426  1.00  0.00    -0.484 OA 
HETATM   19  N   UNL     1      -9.285  20.000  67.143  1.00  0.00    -0.349 N  
HETATM   20  C   UNL     1      -9.942  18.804  66.941  1.00  0.00    -0.346 C  
HETATM   21  H   UNL     1      -9.850  20.789  67.455  1.00  0.00     0.000 HD 
HETATM   22  O   UNL     1     -10.990  18.560  67.531  1.00  0.00    -0.371 OA 
ENDBRANCH  11  14
TORSDOF 1
ENDMDL
MODEL        7
REMARK 921   NORMALIZED FREE ENERGY PREDICTED BY IDOCK:   -6.78 KCAL/MOL
REMARK 922        TOTAL FREE ENERGY PREDICTED BY IDOCK:   -7.52 KCAL/MOL
REMARK 923 INTER-LIGAND FREE ENERGY PREDICTED BY IDOCK:   -7.77 KCAL/MOL
REMARK 924 INTRA-LIGAND FREE ENERGY PREDICTED BY IDOCK:    0.25 KCAL/MOL
REMARK 927      BINDING AFFINITY PREDICTED BY RF-SCORE:    0.00 PKD
ROOT
HETATM    1  N   UNL     1     -12.522  14.710  63.760  1.00  0.00    -1.068 NA 
HETATM    2  C   UNL     1     -11.997  13.547  64.324  1.00  0.00    -0.432 A  
HETATM    3  H1  UNL     1     -12.851  15.466  64.362  1.00  0.00     0.000 HD 
HETATM    4  H2  UNL     1     -13.278  14.450  63.127  1.00  0.00     0.000 HD 
HETATM    5  C   UNL     1     -11.544  12.507  63.494  1.00  0.00    -0.584 A  
HETATM    6  C   UNL     1     -10.884  11.375  64.012  1.00  0.00    -0.450 A  
HETATM    7  C   UNL     1     -10.615  11.278  65.373  1.00  0.00    -0.312 A  
HETATM    8  C   UNL     1     -11.015  12.335  66.167  1.00  0.00    -0.328 A  
HETATM    9  C   UNL     1     -11.683  13.459  65.670  1.00  0.00    -0.374 A  
HETATM   10  C   UNL     1     -11.934  14.422  66.784  1.00  0.00    -0.399 C  
HETATM   11  N   UNL     1     -11.424  13.711  67.950  1.00  0.00    -0.295 N  
HETATM   12  O   UNL     1     -10.247  11.729  68.340  1.00  0.00    -0.195 OA 
HETATM   13  C   UNL     1     -10.822  12.512  67.609  1.00  0.00    -0.225 C  
ENDROOT
BRANCH  11  14
HETATM   14  C   UNL     1     -11.320  14.289  69.283  1.00  0.00    -0.283 C  
HETATM   15  C   UNL     1     -12.517  13.956  70.168  1.00  0.00    -0.355 C  
HETATM   16  C   UNL     1     -12.213  14.404  71.591  1.00  0.00    -0.385 C  
HETATM   17  C   UNL     1     -11.842  15.869  71.644  1.00  0.00    -0.490 C  
HETATM   18  O   UNL     1     -12.082  16.569  72.625  1.00  0.00    -0.502 OA 
HETATM   19  N   UNL     1     -11.198  16.388  70.548  1.00  0.00    -0.462 N  
HETATM   20  C   UNL     1     -11.129  15.813  69.296  1.00  0.00    -0.297 C  
HETATM   21  H   UNL     1     -10.726  17.283  70.671  1.00  0.00     0.000 HD 
HETATM   22  O   UNL     1     -10.949  16.506  68.300  1.00  0.00    -0.337 OA 
ENDBRANCH  11  14
TORSDOF 1
ENDMDL
MODEL        8
REMARK 921   NORMALIZED FREE ENERGY PREDICTED BY IDOCK:   -6.69 KCAL/MOL
REMARK 922        TOTAL FREE ENERGY PREDICTED BY IDOCK:   -7.43 KCAL/MOL
REMARK 923 INTER-LIGAND FREE ENERGY PREDICTED BY IDOCK:   -7.07 KCAL/MOL
REMARK 924 INTRA-LIGAND FREE ENERGY PREDICTED BY IDOCK:   -0.36 KCAL/MOL
REMARK 927      BINDING AFFINITY PREDICTED BY RF-SCORE:    0.00 PKD
ROOT
HETATM    1  N   UNL     1     -12.320  14.510  63.488  1.00  0.00    -1.090 NA 
HETATM    2  C   UNL     1     -12.008  14.016  64.754  1.00  0.00    -0.417 A  
HETATM    3  H1  UNL     1     -12.200  15.502  63.283  1.00  0.00     0.000 HD 
HETATM    4  H2  UNL     1     -13.282  14.250  63.268  1.00  0.00     0.000 HD 
HETATM    5  C   UNL     1     -12.174  12.649  65.036  1.00  0.00    -0.535 A  
HETATM    6  C   UNL     1     -11.744  12.081  66.252  1.00  0.00    -0.319 A  
HETATM    7  C   UNL     1     -11.091  12.861  67.201  1.00  0.00    -0.309 A  
HETATM    8  C   UNL     1     -10.884  14.190  66.885  1.00  0.00    -0.296 A  
HETATM    9  C   UNL     1     -11.316  14.770  65.688  1.00  0.00    -0.343 A  
HETATM   10  C   UNL     1     -10.899  16.205  65.652  1.00  0.00    -0.238 C  
HETATM   11  N   UNL     1     -10.273  16.394  66.954  1.00  0.00    -0.285 N  
HETATM   12  O   UNL     1      -9.669  15.030  68.755  1.00  0.00    -0.212 OA 
HETATM   13  C   UNL     1     -10.193  15.214  67.673  1.00  0.00    -0.241 C  
ENDROOT
BRANCH  11  14
HETATM   14  C   UNL     1      -9.579  17.608  67.362  1.00  0.00    -0.267 C  
HETATM   15  C   UNL     1     -10.357  18.875  67.028  1.00  0.00    -0.469 C  
HETATM   16  C   UNL     1      -9.668  20.062  67.688  1.00  0.00    -0.535 C  
HETATM   17  C   UNL     1      -8.213  20.153  67.288  1.00  0.00    -0.336 C  
HETATM   18  O   UNL     1      -7.620  21.226  67.218  1.00  0.00    -0.408 OA 
HETATM   19  N   UNL     1      -7.567  18.971  67.022  1.00  0.00    -0.225 N  
HETATM   20  C   UNL     1      -8.164  17.751  66.780  1.00  0.00    -0.250 C  
HETATM   21  H   UNL     1      -6.548  18.996  67.002  1.00  0.00     0.000 HD 
HETATM   22  O   UNL     1      -7.583  16.889  66.128  1.00  0.00    -0.297 OA 
ENDBRANCH  11  14
TORSDOF 1
ENDMDL
MODEL        9
REMARK 921   NORMALIZED FREE ENERGY PREDICTED BY IDOCK:   -6.68 KCAL/MOL
REMARK 922        TOTAL FREE ENERGY PREDICTED BY IDOCK:   -7.41 KCAL/MOL
REMARK 923 INTER-LIGAND FREE ENERGY PREDICTED BY IDOCK:   -7.07 KCAL/MOL
REMARK 924 INTRA-LIGAND FREE ENERGY PREDICTED BY IDOCK:   -0.34 KCAL/MOL
REMARK 927      BINDING AFFINITY PREDICTED BY RF-SCORE:    0.00 PKD
ROOT
HETATM    1  N   UNL     1     -11.123  10.542  70.543  1.00  0.00    -0.427 NA 
HETATM    2  C   UNL     1     -10.719   9.870  69.390  1.00  0.00    -0.232 A  
HETATM    3  H1  UNL     1     -11.160  11.561  70.553  1.00  0.00     0.000 HD 
HETATM    4  H2  UNL     1     -10.538  10.233  71.319  1.00  0.00     0.000 HD 
HETATM    5  C   UNL     1     -10.668   8.465  69.377  1.00  0.00    -0.162 A  
HETATM    6  C   UNL     1     -10.399   7.740  68.199  1.00  0.00    -0.248 A  
HETATM    7  C   UNL     1     -10.222   8.403  66.989  1.00  0.00    -0.377 A  
HETATM    8  C   UNL     1     -10.332   9.780  67.008  1.00  0.00    -0.305 A  
HETATM    9  C   UNL     1     -10.585  10.514  68.171  1.00  0.00    -0.240 A  
HETATM   10  C   UNL     1     -10.679  11.966  67.832  1.00  0.00    -0.204 C  
HETATM   11  N   UNL     1     -10.379  11.988  66.406  1.00  0.00    -0.212 N  
HETATM   12  O   UNL     1     -10.049  10.398  64.723  1.00  0.00    -0.339 OA 
HETATM   13  C   UNL     1     -10.234  10.714  65.883  1.00  0.00    -0.251 C  
ENDROOT
BRANCH  11  14
HETATM   14  C   UNL     1     -10.472  13.174  65.566  1.00  0.00    -0.288 C  
HETATM   15  C   UNL     1     -10.056  14.448  66.292  1.00  0.00    -0.308 C  
HETATM   16  C   UNL     1      -9.970  15.583  65.280  1.00  0.00    -0.273 C  
HETATM   17  C   UNL     1     -11.265  15.747  64.517  1.00  0.00    -0.322 C  
HETATM   18  O   UNL     1     -11.637  16.835  64.089  1.00  0.00    -1.106 OA 
HETATM   19  N   UNL     1     -12.006  14.612  64.299  1.00  0.00    -0.661 N  
HETATM   20  C   UNL     1     -11.863  13.407  64.955  1.00  0.00    -0.352 C  
HETATM   21  H   UNL     1     -12.731  14.664  63.585  1.00  0.00     0.000 HD 
HETATM   22  O   UNL     1     -12.805  12.625  65.039  1.00  0.00    -0.765 OA 
ENDBRANCH  11  14
TORSDOF 1
ENDMDL
MODEL       10
REMARK 921   NORMALIZED FREE ENERGY PREDICTED BY IDOCK:   -6.62 KCAL/MOL
REMARK 922        TOTAL FREE ENERGY PREDICTED BY IDOCK:   -7.35 KCAL/MOL
REMARK 923 INTER-LIGAND FREE ENERGY PREDICTED BY IDOCK:   -7.01 KCAL/MOL
REMARK 924 INTRA-LIGAND FREE ENERGY PREDICTED BY IDOCK:   -0.34 KCAL/MOL
REMARK 927      BINDING AFFINITY PREDICTED BY RF-SCORE:    0.00 PKD
ROOT
HETATM    1  N   UNL     1      -9.702  11.301  66.112  1.00  0.00    -0.212 NA 
HETATM    2  C   UNL     1     -10.421  12.084  65.209  1.00  0.00    -0.284 A  
HETATM    3  H1  UNL     1      -9.012  11.735  66.726  1.00  0.00     0.000 HD 
HETATM    4  H2  UNL     1      -9.246  10.549  65.596  1.00  0.00     0.000 HD 
HETATM    5  C   UNL     1     -11.371  11.486  64.364  1.00  0.00    -0.283 A  
HETATM    6  C   UNL     1     -12.216  12.250  63.535  1.00  0.00    -0.669 A  
HETATM    7  C   UNL     1     -12.166  13.640  63.567  1.00  0.00    -0.329 A  
HETATM    8  C   UNL     1     -11.267  14.213  64.446  1.00  0.00    -0.290 A  
HETATM    9  C   UNL     1     -10.413  13.468  65.265  1.00  0.00    -0.345 A  
HETATM   10  C   UNL     1      -9.603  14.394  66.113  1.00  0.00    -0.283 C  
HETATM   11  N   UNL     1     -10.018  15.710  65.645  1.00  0.00    -0.347 N  
HETATM   12  O   UNL     1     -11.641  16.553  64.188  1.00  0.00    -1.052 OA 
HETATM   13  C   UNL     1     -11.039  15.636  64.713  1.00  0.00    -0.412 C  
ENDROOT
BRANCH  11  14
HETATM   14  C   UNL     1      -9.605  16.967  66.256  1.00  0.00    -0.276 C  
HETATM   15  C   UNL     1      -8.098  17.054  66.469  1.00  0.00    -0.320 C  
HETATM   16  C   UNL     1      -7.745  18.473  66.895  1.00  0.00    -0.241 C  
HETATM   17  C   UNL     1      -8.530  18.898  68.116  1.00  0.00    -0.309 C  
HETATM   18  O   UNL     1      -8.081  19.693  68.937  1.00  0.00    -0.330 OA 
HETATM   19  N   UNL     1      -9.789  18.369  68.261  1.00  0.00    -0.339 N  
HETATM   20  C   UNL     1     -10.294  17.272  67.595  1.00  0.00    -0.350 C  
HETATM   21  H   UNL     1     -10.410  18.832  68.924  1.00  0.00     0.000 HD 
HETATM   22  O   UNL     1     -11.205  16.610  68.083  1.00  0.00    -0.339 OA 
ENDBRANCH  11  14
TORSDOF 1
ENDMDL
MODEL       11
REMARK 921   NORMALIZED FREE ENERGY PREDICTED BY IDOCK:   -6.48 KCAL/MOL
REMARK 922        TOTAL FREE ENERGY PREDICTED BY IDOCK:   -7.20 KCAL/MOL
REMARK 923 INTER-LIGAND FREE ENERGY PREDICTED BY IDOCK:   -7.22 KCAL/MOL
REMARK 924 INTRA-LIGAND FREE ENERGY PREDICTED BY IDOCK:    0.01 KCAL/MOL
REMARK 927      BINDING AFFINITY PREDICTED BY RF-SCORE:    0.00 PKD
ROOT
HETATM    1  N   UNL     1     -11.965  16.436  71.333  1.00  0.00    -0.617 NA 
HETATM    2  C   UNL     1     -12.155  15.055  71.289  1.00  0.00    -0.328 A  
HETATM    3  H1  UNL     1     -11.476  16.908  70.572  1.00  0.00     0.000 HD 
HETATM    4  H2  UNL     1     -11.499  16.671  72.210  1.00  0.00     0.000 HD 
HETATM    5  C   UNL     1     -12.829  14.406  72.338  1.00  0.00    -0.436 A  
HETATM    6  C   UNL     1     -13.164  13.038  72.274  1.00  0.00    -0.539 A  
HETATM    7  C   UNL     1     -12.876  12.295  71.134  1.00  0.00    -0.302 A  
HETATM    8  C   UNL     1     -12.266  12.962  70.089  1.00  0.00    -0.336 A  
HETATM    9  C   UNL     1     -11.915  14.315  70.143  1.00  0.00    -0.391 A  
HETATM   10  C   UNL     1     -11.311  14.725  68.839  1.00  0.00    -0.282 C  
HETATM   11  N   UNL     1     -11.283  13.477  68.088  1.00  0.00    -0.259 N  
HETATM   12  O   UNL     1     -12.089  11.303  68.388  1.00  0.00    -0.598 OA 
HETATM   13  C   UNL     1     -11.894  12.440  68.772  1.00  0.00    -0.311 C  
ENDROOT
BRANCH  11  14
HETATM   14  C   UNL     1     -10.897  13.371  66.687  1.00  0.00    -0.282 C  
HETATM   15  C   UNL     1     -12.032  12.880  65.796  1.00  0.00    -0.496 C  
HETATM   16  C   UNL     1     -11.606  13.018  64.340  1.00  0.00    -0.418 C  
HETATM   17  C   UNL     1     -10.303  12.298  64.071  1.00  0.00    -0.397 C  
HETATM   18  O   UNL     1     -10.043  11.807  62.976  1.00  0.00    -0.384 OA 
HETATM   19  N   UNL     1      -9.404  12.234  65.106  1.00  0.00    -0.424 N  
HETATM   20  C   UNL     1      -9.673  12.475  66.437  1.00  0.00    -0.249 C  
HETATM   21  H   UNL     1      -8.444  11.984  64.868  1.00  0.00     0.000 HD 
HETATM   22  O   UNL     1      -8.978  11.975  67.316  1.00  0.00    -0.168 OA 
ENDBRANCH  11  14
TORSDOF 1
ENDMDL
MODEL       12
REMARK 921   NORMALIZED FREE ENERGY PREDICTED BY IDOCK:   -6.41 KCAL/MOL
REMARK 922        TOTAL FREE ENERGY PREDICTED BY IDOCK:   -7.13 KCAL/MOL
REMARK 923 INTER-LIGAND FREE ENERGY PREDICTED BY IDOCK:   -6.79 KCAL/MOL
REMARK 924 INTRA-LIGAND FREE ENERGY PREDICTED BY IDOCK:   -0.34 KCAL/MOL
REMARK 927      BINDING AFFINITY PREDICTED BY RF-SCORE:    0.00 PKD
ROOT
HETATM    1  N   UNL     1     -11.383   9.945  69.240  1.00  0.00    -0.432 NA 
HETATM    2  C   UNL     1     -12.021  10.929  69.994  1.00  0.00    -0.350 A  
HETATM    3  H1  UNL     1     -10.933  10.191  68.358  1.00  0.00     0.000 HD 
HETATM    4  H2  UNL     1     -12.047   9.191  69.063  1.00  0.00     0.000 HD 
HETATM    5  C   UNL     1     -12.641  10.589  71.210  1.00  0.00    -0.531 A  
HETATM    6  C   UNL     1     -13.178  11.567  72.070  1.00  0.00    -0.443 A  
HETATM    7  C   UNL     1     -13.064  12.918  71.759  1.00  0.00    -0.458 A  
HETATM    8  C   UNL     1     -12.402  13.238  70.590  1.00  0.00    -0.416 A  
HETATM    9  C   UNL     1     -11.875  12.278  69.720  1.00  0.00    -0.388 A  
HETATM   10  C   UNL     1     -11.195  12.962  68.578  1.00  0.00    -0.274 C  
HETATM   11  N   UNL     1     -11.454  14.372  68.843  1.00  0.00    -0.271 N  
HETATM   12  O   UNL     1     -12.397  15.621  70.579  1.00  0.00    -0.397 OA 
HETATM   13  C   UNL     1     -12.104  14.567  70.049  1.00  0.00    -0.339 C  
ENDROOT
BRANCH  11  14
HETATM   14  C   UNL     1     -10.881  15.469  68.075  1.00  0.00    -0.300 C  
HETATM   15  C   UNL     1     -10.735  15.142  66.593  1.00  0.00    -0.310 C  
HETATM   16  C   UNL     1     -10.347  16.412  65.847  1.00  0.00    -0.378 C  
HETATM   17  C   UNL     1      -9.100  17.039  66.429  1.00  0.00    -0.270 C  
HETATM   18  O   UNL     1      -8.312  17.684  65.742  1.00  0.00    -0.537 OA 
HETATM   19  N   UNL     1      -8.892  16.876  67.776  1.00  0.00    -0.215 N  
HETATM   20  C   UNL     1      -9.518  15.956  68.591  1.00  0.00    -0.214 C  
HETATM   21  H   UNL     1      -8.210  17.492  68.216  1.00  0.00     0.000 HD 
HETATM   22  O   UNL     1      -8.981  15.570  69.625  1.00  0.00    -0.266 OA 
ENDBRANCH  11  14
TORSDOF 1
ENDMDL
MODEL       13
REMARK 921   NORMALIZED FREE ENERGY PREDICTED BY IDOCK:   -6.36 KCAL/MOL
REMARK 922        TOTAL FREE ENERGY PREDICTED BY IDOCK:   -7.08 KCAL/MOL
REMARK 923 INTER-LIGAND FREE ENERGY PREDICTED BY IDOCK:   -6.78 KCAL/MOL
REMARK 924 INTRA-LIGAND FREE ENERGY PREDICTED BY IDOCK:   -0.31 KCAL/MOL
REMARK 927      BINDING AFFINITY PREDICTED BY RF-SCORE:    0.00 PKD
ROOT
HETATM    1  N   UNL     1     -12.988  11.713  71.455  1.00  0.00    -0.415 NA 
HETATM    2  C   UNL     1     -12.778  13.067  71.199  1.00  0.00    -0.283 A  
HETATM    3  H1  UNL     1     -12.979  11.041  70.687  1.00  0.00     0.000 HD 
HETATM    4  H2  UNL     1     -13.869  11.612  71.961  1.00  0.00     0.000 HD 
HETATM    5  C   UNL     1     -12.790  13.992  72.258  1.00  0.00    -0.403 A  
HETATM    6  C   UNL     1     -12.448  15.346  72.068  1.00  0.00    -0.450 A  
HETATM    7  C   UNL     1     -12.036  15.800  70.820  1.00  0.00    -0.444 A  
HETATM    8  C   UNL     1     -11.974  14.867  69.803  1.00  0.00    -0.366 A  
HETATM    9  C   UNL     1     -12.323  13.523  69.973  1.00  0.00    -0.315 A  
HETATM   10  C   UNL     1     -12.105  12.787  68.691  1.00  0.00    -0.113 C  
HETATM   11  N   UNL     1     -11.684  13.842  67.778  1.00  0.00    -0.338 N  
HETATM   12  O   UNL     1     -11.138  16.109  67.949  1.00  0.00    -0.340 OA 
HETATM   13  C   UNL     1     -11.537  15.060  68.418  1.00  0.00    -0.331 C  
ENDROOT
BRANCH  11  14
HETATM   14  C   UNL     1     -11.221  13.612  66.415  1.00  0.00    -0.308 C  
HETATM   15  C   UNL     1     -12.217  12.817  65.578  1.00  0.00    -0.519 C  
HETATM   16  C   UNL     1     -11.754  12.825  64.128  1.00  0.00    -0.465 C  
HETATM   17  C   UNL     1     -10.339  12.307  63.994  1.00  0.00    -0.397 C  
HETATM   18  O   UNL     1      -9.951  11.721  62.987  1.00  0.00    -0.396 OA 
HETATM   19  N   UNL     1      -9.490  12.539  65.047  1.00  0.00    -0.444 N  
HETATM   20  C   UNL     1      -9.857  12.912  66.323  1.00  0.00    -0.273 C  
HETATM   21  H   UNL     1      -8.492  12.426  64.869  1.00  0.00     0.000 HD 
HETATM   22  O   UNL     1      -9.130  12.663  67.280  1.00  0.00    -0.177 OA 
ENDBRANCH  11  14
TORSDOF 1
ENDMDL
MODEL       14
REMARK 921   NORMALIZED FREE ENERGY PREDICTED BY IDOCK:   -6.31 KCAL/MOL
REMARK 922        TOTAL FREE ENERGY PREDICTED BY IDOCK:   -7.02 KCAL/MOL
REMARK 923 INTER-LIGAND FREE ENERGY PREDICTED BY IDOCK:   -6.76 KCAL/MOL
REMARK 924 INTRA-LIGAND FREE ENERGY PREDICTED BY IDOCK:   -0.26 KCAL/MOL
REMARK 927      BINDING AFFINITY PREDICTED BY RF-SCORE:    0.00 PKD
ROOT
HETATM    1  N   UNL     1     -11.605  16.120  71.005  1.00  0.00    -0.523 NA 
HETATM    2  C   UNL     1     -11.670  15.515  69.750  1.00  0.00    -0.349 A  
HETATM    3  H1  UNL     1     -11.830  15.582  71.843  1.00  0.00     0.000 HD 
HETATM    4  H2  UNL     1     -12.189  16.955  70.991  1.00  0.00     0.000 HD 
HETATM    5  C   UNL     1     -11.360  16.255  68.596  1.00  0.00    -0.333 A  
HETATM    6  C   UNL     1     -11.279  15.654  67.324  1.00  0.00    -0.184 A  
HETATM    7  C   UNL     1     -11.459  14.282  67.181  1.00  0.00    -0.377 A  
HETATM    8  C   UNL     1     -11.706  13.560  68.332  1.00  0.00    -0.393 A  
HETATM    9  C   UNL     1     -11.802  14.144  69.599  1.00  0.00    -0.379 A  
HETATM   10  C   UNL     1     -12.038  13.080  70.622  1.00  0.00    -0.248 C  
HETATM   11  N   UNL     1     -12.143  11.871  69.814  1.00  0.00    -0.278 N  
HETATM   12  O   UNL     1     -11.834  11.307  67.566  1.00  0.00    -0.613 OA 
HETATM   13  C   UNL     1     -11.889  12.113  68.475  1.00  0.00    -0.310 C  
ENDROOT
BRANCH  11  14
HETATM   14  C   UNL     1     -12.245  10.525  70.361  1.00  0.00    -0.328 C  
HETATM   15  C   UNL     1     -12.928  10.490  71.724  1.00  0.00    -0.582 C  
HETATM   16  C   UNL     1     -13.190   9.039  72.104  1.00  0.00    -0.504 C  
HETATM   17  C   UNL     1     -11.920   8.218  72.070  1.00  0.00    -0.348 C  
HETATM   18  O   UNL     1     -11.746   7.253  72.809  1.00  0.00    -0.219 OA 
HETATM   19  N   UNL     1     -10.966   8.587  71.155  1.00  0.00    -0.242 N  
HETATM   20  C   UNL     1     -10.901   9.791  70.484  1.00  0.00    -0.323 C  
HETATM   21  H   UNL     1     -10.235   7.906  70.950  1.00  0.00     0.000 HD 
HETATM   22  O   UNL     1      -9.830  10.212  70.058  1.00  0.00    -0.228 OA 
ENDBRANCH  11  14
TORSDOF 1
ENDMDL
MODEL       15
REMARK 921   NORMALIZED FREE ENERGY PREDICTED BY IDOCK:   -6.31 KCAL/MOL
REMARK 922        TOTAL FREE ENERGY PREDICTED BY IDOCK:   -7.02 KCAL/MOL
REMARK 923 INTER-LIGAND FREE ENERGY PREDICTED BY IDOCK:   -7.92 KCAL/MOL
REMARK 924 INTRA-LIGAND FREE ENERGY PREDICTED BY IDOCK:    0.89 KCAL/MOL
REMARK 927      BINDING AFFINITY PREDICTED BY RF-SCORE:    0.00 PKD
ROOT
HETATM    1  N   UNL     1      -9.623  20.511  66.703  1.00  0.00    -0.650 NA 
HETATM    2  C   UNL     1      -8.711  19.477  66.915  1.00  0.00    -0.311 A  
HETATM    3  H1  UNL     1     -10.489  20.330  66.194  1.00  0.00     0.000 HD 
HETATM    4  H2  UNL     1      -9.137  21.283  66.248  1.00  0.00     0.000 HD 
HETATM    5  C   UNL     1      -7.518  19.727  67.616  1.00  0.00    -0.314 A  
HETATM    6  C   UNL     1      -6.633  18.690  67.972  1.00  0.00    -0.227 A  
HETATM    7  C   UNL     1      -6.944  17.366  67.678  1.00  0.00    -0.175 A  
HETATM    8  C   UNL     1      -8.147  17.132  67.040  1.00  0.00    -0.228 A  
HETATM    9  C   UNL     1      -9.029  18.152  66.668  1.00  0.00    -0.292 A  
HETATM   10  C   UNL     1     -10.244  17.553  66.036  1.00  0.00    -0.299 C  
HETATM   11  N   UNL     1      -9.931  16.130  66.016  1.00  0.00    -0.326 N  
HETATM   12  O   UNL     1      -8.238  14.757  66.862  1.00  0.00    -0.203 OA 
HETATM   13  C   UNL     1      -8.736  15.847  66.655  1.00  0.00    -0.289 C  
ENDROOT
BRANCH  11  14
HETATM   14  C   UNL     1     -10.866  15.090  65.608  1.00  0.00    -0.349 C  
HETATM   15  C   UNL     1     -10.180  13.765  65.295  1.00  0.00    -0.355 C  
HETATM   16  C   UNL     1     -11.245  12.694  65.103  1.00  0.00    -0.336 C  
HETATM   17  C   UNL     1     -12.249  13.092  64.044  1.00  0.00    -0.414 C  
HETATM   18  O   UNL     1     -12.825  12.263  63.346  1.00  0.00    -0.754 OA 
HETATM   19  N   UNL     1     -12.509  14.433  63.908  1.00  0.00    -1.005 N  
HETATM   20  C   UNL     1     -11.743  15.467  64.404  1.00  0.00    -0.242 C  
HETATM   21  H   UNL     1     -13.349  14.690  63.390  1.00  0.00     0.000 HD 
HETATM   22  O   UNL     1     -11.775  16.577  63.881  1.00  0.00    -1.148 OA 
ENDBRANCH  11  14
TORSDOF 1
ENDMDL
MODEL       16
REMARK 921   NORMALIZED FREE ENERGY PREDICTED BY IDOCK:   -6.30 KCAL/MOL
REMARK 922        TOTAL FREE ENERGY PREDICTED BY IDOCK:   -7.02 KCAL/MOL
REMARK 923 INTER-LIGAND FREE ENERGY PREDICTED BY IDOCK:   -6.68 KCAL/MOL
REMARK 924 INTRA-LIGAND FREE ENERGY PREDICTED BY IDOCK:   -0.33 KCAL/MOL
REMARK 927      BINDING AFFINITY PREDICTED BY RF-SCORE:    0.00 PKD
ROOT
HETATM    1  N   UNL     1     -12.407  14.944  63.653  1.00  0.00    -1.053 NA 
HETATM    2  C   UNL     1     -11.357  15.196  64.535  1.00  0.00    -0.290 A  
HETATM    3  H1  UNL     1     -12.655  13.983  63.416  1.00  0.00     0.000 HD 
HETATM    4  H2  UNL     1     -12.231  15.454  62.787  1.00  0.00     0.000 HD 
HETATM    5  C   UNL     1     -11.017  16.521  64.861  1.00  0.00    -0.223 A  
HETATM    6  C   UNL     1     -10.057  16.821  65.849  1.00  0.00    -0.324 A  
HETATM    7  C   UNL     1      -9.448  15.802  66.573  1.00  0.00    -0.298 A  
HETATM    8  C   UNL     1      -9.836  14.509  66.281  1.00  0.00    -0.322 A  
HETATM    9  C   UNL     1     -10.777  14.194  65.295  1.00  0.00    -0.374 A  
HETATM   10  C   UNL     1     -10.990  12.715  65.265  1.00  0.00    -0.286 C  
HETATM   11  N   UNL     1     -10.038  12.229  66.256  1.00  0.00    -0.229 N  
HETATM   12  O   UNL     1      -8.599  13.186  67.830  1.00  0.00    -0.163 OA 
HETATM   13  C   UNL     1      -9.393  13.263  66.913  1.00  0.00    -0.244 C  
ENDROOT
BRANCH  11  14
HETATM   14  C   UNL     1      -9.949  10.844  66.697  1.00  0.00    -0.208 C  
HETATM   15  C   UNL     1      -9.845   9.859  65.538  1.00  0.00    -0.381 C  
HETATM   16  C   UNL     1      -9.530   8.477  66.096  1.00  0.00    -0.286 C  
HETATM   17  C   UNL     1     -10.547   8.051  67.131  1.00  0.00    -0.297 C  
HETATM   18  O   UNL     1     -10.841   6.872  67.311  1.00  0.00    -0.309 OA 
HETATM   19  N   UNL     1     -11.120   9.044  67.885  1.00  0.00    -0.480 N  
HETATM   20  C   UNL     1     -11.107  10.394  67.602  1.00  0.00    -0.293 C  
HETATM   21  H   UNL     1     -11.602   8.757  68.737  1.00  0.00     0.000 HD 
HETATM   22  O   UNL     1     -11.982  11.134  68.040  1.00  0.00    -0.625 OA 
ENDBRANCH  11  14
TORSDOF 1
ENDMDL
MODEL       17
REMARK 921   NORMALIZED FREE ENERGY PREDICTED BY IDOCK:   -6.27 KCAL/MOL
REMARK 922        TOTAL FREE ENERGY PREDICTED BY IDOCK:   -6.98 KCAL/MOL
REMARK 923 INTER-LIGAND FREE ENERGY PREDICTED BY IDOCK:   -6.63 KCAL/MOL
REMARK 924 INTRA-LIGAND FREE ENERGY PREDICTED BY IDOCK:   -0.35 KCAL/MOL
REMARK 927      BINDING AFFINITY PREDICTED BY RF-SCORE:    0.00 PKD
ROOT
HETATM    1  N   UNL     1      -9.937  17.104  68.581  1.00  0.00    -0.295 NA 
HETATM    2  C   UNL     1     -10.481  16.374  67.524  1.00  0.00    -0.304 A  
HETATM    3  H1  UNL     1     -10.020  16.756  69.537  1.00  0.00     0.000 HD 
HETATM    4  H2  UNL     1     -10.315  18.050  68.548  1.00  0.00     0.000 HD 
HETATM    5  C   UNL     1     -10.366  16.853  66.207  1.00  0.00    -0.312 A  
HETATM    6  C   UNL     1     -10.777  16.088  65.098  1.00  0.00    -0.429 A  
HETATM    7  C   UNL     1     -11.270  14.800  65.275  1.00  0.00    -0.366 A  
HETATM    8  C   UNL     1     -11.323  14.322  66.570  1.00  0.00    -0.351 A  
HETATM    9  C   UNL     1     -10.931  15.074  67.682  1.00  0.00    -0.305 A  
HETATM   10  C   UNL     1     -11.080  14.248  68.918  1.00  0.00    -0.262 C  
HETATM   11  N   UNL     1     -11.658  13.009  68.414  1.00  0.00    -0.312 N  
HETATM   12  O   UNL     1     -12.127  12.093  66.315  1.00  0.00    -0.626 OA 
HETATM   13  C   UNL     1     -11.753  12.999  67.033  1.00  0.00    -0.383 C  
ENDROOT
BRANCH  11  14
HETATM   14  C   UNL     1     -11.876  11.817  69.222  1.00  0.00    -0.326 C  
HETATM   15  C   UNL     1     -12.305  12.139  70.649  1.00  0.00    -0.385 C  
HETATM   16  C   UNL     1     -12.724  10.848  71.339  1.00  0.00    -0.539 C  
HETATM   17  C   UNL     1     -11.628   9.807  71.283  1.00  0.00    -0.390 C  
HETATM   18  O   UNL     1     -11.483   8.963  72.163  1.00  0.00    -0.362 OA 
HETATM   19  N   UNL     1     -10.804   9.830  70.185  1.00  0.00    -0.268 N  
HETATM   20  C   UNL     1     -10.667  10.872  69.291  1.00  0.00    -0.231 C  
HETATM   21  H   UNL     1     -10.240   8.999  70.014  1.00  0.00     0.000 HD 
HETATM   22  O   UNL     1      -9.635  11.005  68.641  1.00  0.00    -0.183 OA 
ENDBRANCH  11  14
TORSDOF 1
ENDMDL
MODEL       18
REMARK 921   NORMALIZED FREE ENERGY PREDICTED BY IDOCK:   -6.26 KCAL/MOL
REMARK 922        TOTAL FREE ENERGY PREDICTED BY IDOCK:   -6.97 KCAL/MOL
REMARK 923 INTER-LIGAND FREE ENERGY PREDICTED BY IDOCK:   -6.62 KCAL/MOL
REMARK 924 INTRA-LIGAND FREE ENERGY PREDICTED BY IDOCK:   -0.35 KCAL/MOL
REMARK 927      BINDING AFFINITY PREDICTED BY RF-SCORE:    0.00 PKD
ROOT
HETATM    1  N   UNL     1     -13.097  14.691  73.207  1.00  0.00    -0.573 NA 
HETATM    2  C   UNL     1     -12.846  14.515  71.846  1.00  0.00    -0.338 A  
HETATM    3  H1  UNL     1     -13.373  13.894  73.782  1.00  0.00     0.000 HD 
HETATM    4  H2  UNL     1     -13.799  15.424  73.313  1.00  0.00     0.000 HD 
HETATM    5  C   UNL     1     -12.466  15.612  71.054  1.00  0.00    -0.501 A  
HETATM    6  C   UNL     1     -12.070  15.460  69.710  1.00  0.00    -0.373 A  
HETATM    7  C   UNL     1     -11.997  14.195  69.137  1.00  0.00    -0.388 A  
HETATM    8  C   UNL     1     -12.318  13.121  69.945  1.00  0.00    -0.201 A  
HETATM    9  C   UNL     1     -12.725  13.258  71.276  1.00  0.00    -0.411 A  
HETATM   10  C   UNL     1     -12.957  11.905  71.867  1.00  0.00    -0.329 C  
HETATM   11  N   UNL     1     -12.723  11.013  70.738  1.00  0.00    -0.339 N  
HETATM   12  O   UNL     1     -11.944  11.230  68.544  1.00  0.00    -0.519 OA 
HETATM   13  C   UNL     1     -12.285  11.694  69.615  1.00  0.00    -0.206 C  
ENDROOT
BRANCH  11  14
HETATM   14  C   UNL     1     -12.697   9.559  70.832  1.00  0.00    -0.159 C  
HETATM   15  C   UNL     1     -13.721   9.013  71.821  1.00  0.00    -0.474 C  
HETATM   16  C   UNL     1     -13.774   7.497  71.682  1.00  0.00    -0.465 C  
HETATM   17  C   UNL     1     -12.408   6.874  71.858  1.00  0.00    -0.325 C  
HETATM   18  O   UNL     1     -12.258   5.747  72.321  1.00  0.00    -0.188 OA 
HETATM   19  N   UNL     1     -11.328   7.620  71.453  1.00  0.00    -0.253 N  
HETATM   20  C   UNL     1     -11.324   8.975  71.197  1.00  0.00    -0.307 C  
HETATM   21  H   UNL     1     -10.446   7.125  71.330  1.00  0.00     0.000 HD 
HETATM   22  O   UNL     1     -10.287   9.625  71.288  1.00  0.00    -0.275 OA 
ENDBRANCH  11  14
TORSDOF 1
ENDMDL
MODEL       19
REMARK 921   NORMALIZED FREE ENERGY PREDICTED BY IDOCK:   -6.20 KCAL/MOL
REMARK 922        TOTAL FREE ENERGY PREDICTED BY IDOCK:   -6.90 KCAL/MOL
REMARK 923 INTER-LIGAND FREE ENERGY PREDICTED BY IDOCK:   -6.56 KCAL/MOL
REMARK 924 INTRA-LIGAND FREE ENERGY PREDICTED BY IDOCK:   -0.34 KCAL/MOL
REMARK 927      BINDING AFFINITY PREDICTED BY RF-SCORE:    0.00 PKD
ROOT
HETATM    1  N   UNL     1     -12.530  13.721  63.095  1.00  0.00    -1.074 NA 
HETATM    2  C   UNL     1     -11.690  12.929  63.877  1.00  0.00    -0.460 A  
HETATM    3  H1  UNL     1     -12.769  14.666  63.398  1.00  0.00     0.000 HD 
HETATM    4  H2  UNL     1     -13.395  13.208  62.928  1.00  0.00     0.000 HD 
HETATM    5  C   UNL     1     -11.361  11.628  63.458  1.00  0.00    -0.447 A  
HETATM    6  C   UNL     1     -10.411  10.843  64.142  1.00  0.00    -0.397 A  
HETATM    7  C   UNL     1      -9.728  11.360  65.237  1.00  0.00    -0.276 A  
HETATM    8  C   UNL     1     -10.021  12.661  65.601  1.00  0.00    -0.253 A  
HETATM    9  C   UNL     1     -10.970  13.447  64.940  1.00  0.00    -0.353 A  
HETATM   10  C   UNL     1     -11.011  14.805  65.563  1.00  0.00    -0.346 C  
HETATM   11  N   UNL     1     -10.068  14.685  66.668  1.00  0.00    -0.266 N  
HETATM   12  O   UNL     1      -8.544  13.081  67.424  1.00  0.00    -0.179 OA 
HETATM   13  C   UNL     1      -9.426  13.459  66.677  1.00  0.00    -0.260 C  
ENDROOT
BRANCH  11  14
HETATM   14  C   UNL     1      -9.650  15.794  67.515  1.00  0.00    -0.224 C  
HETATM   15  C   UNL     1     -10.825  16.596  68.063  1.00  0.00    -0.337 C  
HETATM   16  C   UNL     1     -10.305  17.578  69.104  1.00  0.00    -0.239 C  
HETATM   17  C   UNL     1      -9.214  18.460  68.539  1.00  0.00    -0.328 C  
HETATM   18  O   UNL     1      -9.031  19.608  68.936  1.00  0.00    -0.333 OA 
HETATM   19  N   UNL     1      -8.414  17.913  67.567  1.00  0.00    -0.230 N  
HETATM   20  C   UNL     1      -8.681  16.775  66.836  1.00  0.00    -0.216 C  
HETATM   21  H   UNL     1      -7.538  18.394  67.366  1.00  0.00     0.000 HD 
HETATM   22  O   UNL     1      -8.181  16.612  65.727  1.00  0.00    -0.344 OA 
ENDBRANCH  11  14
TORSDOF 1
ENDMDL
MODEL       20
REMARK 921   NORMALIZED FREE ENERGY PREDICTED BY IDOCK:   -6.19 KCAL/MOL
REMARK 922        TOTAL FREE ENERGY PREDICTED BY IDOCK:   -6.89 KCAL/MOL
REMARK 923 INTER-LIGAND FREE ENERGY PREDICTED BY IDOCK:   -6.56 KCAL/MOL
REMARK 924 INTRA-LIGAND FREE ENERGY PREDICTED BY IDOCK:   -0.34 KCAL/MOL
REMARK 927      BINDING AFFINITY PREDICTED BY RF-SCORE:    0.00 PKD
ROOT
HETATM    1  N   UNL     1      -9.774   8.431  67.240  1.00  0.00    -0.169 NA 
HETATM    2  C   UNL     1     -10.418   9.091  68.286  1.00  0.00    -0.200 A  
HETATM    3  H1  UNL     1      -9.796   8.824  66.299  1.00  0.00     0.000 HD 
HETATM    4  H2  UNL     1     -10.123   7.474  67.198  1.00  0.00     0.000 HD 
HETATM    5  C   UNL     1     -10.387   8.549  69.583  1.00  0.00    -0.218 A  
HETATM    6  C   UNL     1     -10.904   9.246  70.694  1.00  0.00    -0.339 A  
HETATM    7  C   UNL     1     -11.423  10.527  70.542  1.00  0.00    -0.433 A  
HETATM    8  C   UNL     1     -11.394  11.068  69.272  1.00  0.00    -0.350 A  
HETATM    9  C   UNL     1     -10.896  10.385  68.158  1.00  0.00    -0.311 A  
HETATM   10  C   UNL     1     -10.978  11.267  66.955  1.00  0.00    -0.290 C  
HETATM   11  N   UNL     1     -11.632  12.463  67.472  1.00  0.00    -0.348 N  
HETATM   12  O   UNL     1     -12.286  13.258  69.572  1.00  0.00    -0.269 OA 
HETATM   13  C   UNL     1     -11.830  12.400  68.841  1.00  0.00    -0.301 C  
ENDROOT
BRANCH  11  14
HETATM   14  C   UNL     1     -11.827  13.688  66.708  1.00  0.00    -0.413 C  
HETATM   15  C   UNL     1     -12.115  13.426  65.234  1.00  0.00    -0.446 C  
HETATM   16  C   UNL     1     -12.524  14.737  64.576  1.00  0.00    -0.272 C  
HETATM   17  C   UNL     1     -11.481  15.812  64.781  1.00  0.00    -0.255 C  
HETATM   18  O   UNL     1     -11.294  16.706  63.961  1.00  0.00    -1.120 OA 
HETATM   19  N   UNL     1     -10.756  15.760  65.946  1.00  0.00    -0.325 N  
HETATM   20  C   UNL     1     -10.656  14.678  66.796  1.00  0.00    -0.288 C  
HETATM   21  H   UNL     1     -10.243  16.601  66.208  1.00  0.00     0.000 HD 
HETATM   22  O   UNL     1      -9.680  14.548  67.529  1.00  0.00    -0.208 OA 
ENDBRANCH  11  14
TORSDOF 1
ENDMDL
MODEL       21
REMARK 921   NORMALIZED FREE ENERGY PREDICTED BY IDOCK:   -6.19 KCAL/MOL
REMARK 922        TOTAL FREE ENERGY PREDICTED BY IDOCK:   -6.89 KCAL/MOL
REMARK 923 INTER-LIGAND FREE ENERGY PREDICTED BY IDOCK:   -6.53 KCAL/MOL
REMARK 924 INTRA-LIGAND FREE ENERGY PREDICTED BY IDOCK:   -0.36 KCAL/MOL
REMARK 927      BINDING AFFINITY PREDICTED BY RF-SCORE:    0.00 PKD
ROOT
HETATM    1  N   UNL     1      -8.697   8.161  65.004  1.00  0.00    -0.381 NA 
HETATM    2  C   UNL     1      -9.413   8.401  66.177  1.00  0.00    -0.194 A  
HETATM    3  H1  UNL     1      -8.757   8.819  64.227  1.00  0.00     0.000 HD 
HETATM    4  H2  UNL     1      -8.941   7.233  64.661  1.00  0.00     0.000 HD 
HETATM    5  C   UNL     1      -9.329   7.494  67.248  1.00  0.00    -0.168 A  
HETATM    6  C   UNL     1      -9.923   7.761  68.498  1.00  0.00    -0.193 A  
HETATM    7  C   UNL     1     -10.576   8.968  68.724  1.00  0.00    -0.196 A  
HETATM    8  C   UNL     1     -10.600   9.872  67.680  1.00  0.00    -0.325 A  
HETATM    9  C   UNL     1     -10.026   9.616  66.430  1.00  0.00    -0.323 A  
HETATM   10  C   UNL     1     -10.197  10.812  65.550  1.00  0.00    -0.266 C  
HETATM   11  N   UNL     1     -10.978  11.719  66.382  1.00  0.00    -0.284 N  
HETATM   12  O   UNL     1     -11.722  11.764  68.598  1.00  0.00    -0.287 OA 
HETATM   13  C   UNL     1     -11.174  11.221  67.658  1.00  0.00    -0.292 C  
ENDROOT
BRANCH  11  14
HETATM   14  C   UNL     1     -11.300  13.093  66.020  1.00  0.00    -0.308 C  
HETATM   15  C   UNL     1     -11.762  13.231  64.573  1.00  0.00    -0.420 C  
HETATM   16  C   UNL     1     -12.285  14.645  64.359  1.00  0.00    -0.473 C  
HETATM   17  C   UNL     1     -11.254  15.683  64.741  1.00  0.00    -0.382 C  
HETATM   18  O   UNL     1     -11.195  16.779  64.189  1.00  0.00    -1.155 OA 
HETATM   19  N   UNL     1     -10.389  15.356  65.755  1.00  0.00    -0.333 N  
HETATM   20  C   UNL     1     -10.154  14.090  66.250  1.00  0.00    -0.300 C  
HETATM   21  H   UNL     1      -9.871  16.122  66.184  1.00  0.00     0.000 HD 
HETATM   22  O   UNL     1      -9.092  13.823  66.803  1.00  0.00    -0.247 OA 
ENDBRANCH  11  14
TORSDOF 1
ENDMDL
MODEL       22
REMARK 921   NORMALIZED FREE ENERGY PREDICTED BY IDOCK:   -6.17 KCAL/MOL
REMARK 922        TOTAL FREE ENERGY PREDICTED BY IDOCK:   -6.88 KCAL/MOL
REMARK 923 INTER-LIGAND FREE ENERGY PREDICTED BY IDOCK:   -6.51 KCAL/MOL
REMARK 924 INTRA-LIGAND FREE ENERGY PREDICTED BY IDOCK:   -0.36 KCAL/MOL
REMARK 927      BINDING AFFINITY PREDICTED BY RF-SCORE:    0.00 PKD
ROOT
HETATM    1  N   UNL     1      -9.987  12.923  65.105  1.00  0.00    -0.473 NA 
HETATM    2  C   UNL     1     -10.693  13.151  66.286  1.00  0.00    -0.284 A  
HETATM    3  H1  UNL     1      -9.558  13.704  64.608  1.00  0.00     0.000 HD 
HETATM    4  H2  UNL     1     -10.594  12.422  64.457  1.00  0.00     0.000 HD 
HETATM    5  C   UNL     1     -11.283  12.074  66.970  1.00  0.00    -0.377 A  
HETATM    6  C   UNL     1     -11.888  12.236  68.233  1.00  0.00    -0.367 A  
HETATM    7  C   UNL     1     -11.874  13.473  68.867  1.00  0.00    -0.384 A  
HETATM    8  C   UNL     1     -11.239  14.508  68.207  1.00  0.00    -0.295 A  
HETATM    9  C   UNL     1     -10.647  14.366  66.948  1.00  0.00    -0.278 A  
HETATM   10  C   UNL     1     -10.022  15.662  66.544  1.00  0.00    -0.273 C  
HETATM   11  N   UNL     1     -10.382  16.553  67.640  1.00  0.00    -0.284 N  
HETATM   12  O   UNL     1     -11.409  16.335  69.729  1.00  0.00    -0.321 OA 
HETATM   13  C   UNL     1     -11.041  15.888  68.659  1.00  0.00    -0.337 C  
ENDROOT
BRANCH  11  14
HETATM   14  C   UNL     1      -9.893  17.918  67.783  1.00  0.00    -0.300 C  
HETATM   15  C   UNL     1      -9.872  18.680  66.463  1.00  0.00    -0.388 C  
HETATM   16  C   UNL     1      -9.567  20.145  66.748  1.00  0.00    -0.559 C  
HETATM   17  C   UNL     1      -8.283  20.303  67.530  1.00  0.00    -0.310 C  
HETATM   18  O   UNL     1      -7.567  21.294  67.415  1.00  0.00    -0.410 OA 
HETATM   19  N   UNL     1      -7.957  19.293  68.400  1.00  0.00    -0.328 N  
HETATM   20  C   UNL     1      -8.497  18.024  68.416  1.00  0.00    -0.298 C  
HETATM   21  H   UNL     1      -7.247  19.500  69.103  1.00  0.00     0.000 HD 
HETATM   22  O   UNL     1      -7.867  17.082  68.888  1.00  0.00    -0.249 OA 
ENDBRANCH  11  14
TORSDOF 1
ENDMDL
MODEL       23
REMARK 921   NORMALIZED FREE ENERGY PREDICTED BY IDOCK:   -6.16 KCAL/MOL
REMARK 922        TOTAL FREE ENERGY PREDICTED BY IDOCK:   -6.87 KCAL/MOL
REMARK 923 INTER-LIGAND FREE ENERGY PREDICTED BY IDOCK:   -6.55 KCAL/MOL
REMARK 924 INTRA-LIGAND FREE ENERGY PREDICTED BY IDOCK:   -0.31 KCAL/MOL
REMARK 927      BINDING AFFINITY PREDICTED BY RF-SCORE:    0.00 PKD
ROOT
HETATM    1  N   UNL     1     -12.273  14.985  68.810  1.00  0.00    -0.597 NA 
HETATM    2  C   UNL     1     -12.021  14.018  67.838  1.00  0.00    -0.351 A  
HETATM    3  H1  UNL     1     -12.432  14.706  69.779  1.00  0.00     0.000 HD 
HETATM    4  H2  UNL     1     -13.063  15.553  68.505  1.00  0.00     0.000 HD 
HETATM    5  C   UNL     1     -11.802  14.403  66.504  1.00  0.00    -0.406 A  
HETATM    6  C   UNL     1     -11.411  13.477  65.516  1.00  0.00    -0.320 A  
HETATM    7  C   UNL     1     -11.181  12.147  65.849  1.00  0.00    -0.384 A  
HETATM    8  C   UNL     1     -11.345  11.796  67.175  1.00  0.00    -0.387 A  
HETATM    9  C   UNL     1     -11.745  12.700  68.164  1.00  0.00    -0.396 A  
HETATM   10  C   UNL     1     -11.787  12.005  69.486  1.00  0.00    -0.326 C  
HETATM   11  N   UNL     1     -11.455  10.629  69.140  1.00  0.00    -0.275 N  
HETATM   12  O   UNL     1     -10.746   9.490  67.226  1.00  0.00    -0.263 OA 
HETATM   13  C   UNL     1     -11.129  10.489  67.803  1.00  0.00    -0.317 C  
ENDROOT
BRANCH  11  14
HETATM   14  C   UNL     1     -11.237   9.567  70.115  1.00  0.00    -0.234 C  
HETATM   15  C   UNL     1     -12.098   9.723  71.363  1.00  0.00    -0.486 C  
HETATM   16  C   UNL     1     -11.969   8.463  72.207  1.00  0.00    -0.455 C  
HETATM   17  C   UNL     1     -10.524   8.158  72.534  1.00  0.00    -0.339 C  
HETATM   18  O   UNL     1     -10.195   7.589  73.571  1.00  0.00    -0.332 OA 
HETATM   19  N   UNL     1      -9.585   8.530  71.603  1.00  0.00    -0.223 N  
HETATM   20  C   UNL     1      -9.775   9.414  70.562  1.00  0.00    -0.271 C  
HETATM   21  H   UNL     1      -8.660   8.112  71.691  1.00  0.00     0.000 HD 
HETATM   22  O   UNL     1      -8.826  10.022  70.078  1.00  0.00    -0.192 OA 
ENDBRANCH  11  14
TORSDOF 1
ENDMDL
MODEL       24
REMARK 921   NORMALIZED FREE ENERGY PREDICTED BY IDOCK:   -6.07 KCAL/MOL
REMARK 922        TOTAL FREE ENERGY PREDICTED BY IDOCK:   -6.77 KCAL/MOL
REMARK 923 INTER-LIGAND FREE ENERGY PREDICTED BY IDOCK:   -7.01 KCAL/MOL
REMARK 924 INTRA-LIGAND FREE ENERGY PREDICTED BY IDOCK:    0.24 KCAL/MOL
REMARK 927      BINDING AFFINITY PREDICTED BY RF-SCORE:    0.00 PKD
ROOT
HETATM    1  N   UNL     1     -13.626   8.735  72.955  1.00  0.00    -0.959 NA 
HETATM    2  C   UNL     1     -12.300   8.807  72.527  1.00  0.00    -0.287 A  
HETATM    3  H1  UNL     1     -14.315   9.396  72.594  1.00  0.00     0.000 HD 
HETATM    4  H2  UNL     1     -13.639   8.780  73.974  1.00  0.00     0.000 HD 
HETATM    5  C   UNL     1     -11.352   7.897  73.025  1.00  0.00    -0.298 A  
HETATM    6  C   UNL     1     -10.036   7.843  72.522  1.00  0.00    -0.325 A  
HETATM    7  C   UNL     1      -9.649   8.667  71.471  1.00  0.00    -0.327 A  
HETATM    8  C   UNL     1     -10.610   9.515  70.955  1.00  0.00    -0.395 A  
HETATM    9  C   UNL     1     -11.915   9.590  71.452  1.00  0.00    -0.464 A  
HETATM   10  C   UNL     1     -12.699  10.575  70.646  1.00  0.00    -0.355 C  
HETATM   11  N   UNL     1     -11.706  11.097  69.715  1.00  0.00    -0.312 N  
HETATM   12  O   UNL     1      -9.489  10.607  69.157  1.00  0.00    -0.200 OA 
HETATM   13  C   UNL     1     -10.488  10.449  69.831  1.00  0.00    -0.218 C  
ENDROOT
BRANCH  11  14
HETATM   14  C   UNL     1     -12.008  12.007  68.618  1.00  0.00    -0.235 C  
HETATM   15  C   UNL     1     -11.215  11.693  67.354  1.00  0.00    -0.358 C  
HETATM   16  C   UNL     1     -11.759  12.542  66.212  1.00  0.00    -0.462 C  
HETATM   17  C   UNL     1     -11.743  14.014  66.557  1.00  0.00    -0.394 C  
HETATM   18  O   UNL     1     -11.600  14.884  65.702  1.00  0.00    -0.329 OA 
HETATM   19  N   UNL     1     -11.919  14.345  67.878  1.00  0.00    -0.523 N  
HETATM   20  C   UNL     1     -11.799  13.491  68.955  1.00  0.00    -0.343 C  
HETATM   21  H   UNL     1     -12.161  15.313  68.083  1.00  0.00     0.000 HD 
HETATM   22  O   UNL     1     -11.525  13.926  70.069  1.00  0.00    -0.229 OA 
ENDBRANCH  11  14
TORSDOF 1
ENDMDL
MODEL       25
REMARK 921   NORMALIZED FREE ENERGY PREDICTED BY IDOCK:   -6.06 KCAL/MOL
REMARK 922        TOTAL FREE ENERGY PREDICTED BY IDOCK:   -6.76 KCAL/MOL
REMARK 923 INTER-LIGAND FREE ENERGY PREDICTED BY IDOCK:   -6.46 KCAL/MOL
REMARK 924 INTRA-LIGAND FREE ENERGY PREDICTED BY IDOCK:   -0.31 KCAL/MOL
REMARK 927      BINDING AFFINITY PREDICTED BY RF-SCORE:    0.00 PKD
ROOT
HETATM    1  N   UNL     1     -13.203  11.503  72.281  1.00  0.00    -0.506 NA 
HETATM    2  C   UNL     1     -13.160  12.777  71.714  1.00  0.00    -0.356 A  
HETATM    3  H1  UNL     1     -12.915  10.691  71.735  1.00  0.00     0.000 HD 
HETATM    4  H2  UNL     1     -14.147  11.338  72.632  1.00  0.00     0.000 HD 
HETATM    5  C   UNL     1     -13.557  13.895  72.467  1.00  0.00    -0.680 A  
HETATM    6  C   UNL     1     -13.402  15.210  71.986  1.00  0.00    -0.494 A  
HETATM    7  C   UNL     1     -12.798  15.443  70.755  1.00  0.00    -0.524 A  
HETATM    8  C   UNL     1     -12.362  14.337  70.052  1.00  0.00    -0.403 A  
HETATM    9  C   UNL     1     -12.520  13.025  70.511  1.00  0.00    -0.306 A  
HETATM   10  C   UNL     1     -11.906  12.078  69.531  1.00  0.00    -0.326 C  
HETATM   11  N   UNL     1     -11.465  12.961  68.458  1.00  0.00    -0.286 N  
HETATM   12  O   UNL     1     -11.341  15.269  68.111  1.00  0.00    -0.313 OA 
HETATM   13  C   UNL     1     -11.662  14.296  68.765  1.00  0.00    -0.343 C  
ENDROOT
BRANCH  11  14
HETATM   14  C   UNL     1     -10.679  12.528  67.311  1.00  0.00    -0.233 C  
HETATM   15  C   UNL     1     -10.995  11.100  66.881  1.00  0.00    -0.333 C  
HETATM   16  C   UNL     1     -10.299  10.822  65.555  1.00  0.00    -0.308 C  
HETATM   17  C   UNL     1      -8.813  11.087  65.641  1.00  0.00    -0.178 C  
HETATM   18  O   UNL     1      -7.999  10.465  64.964  1.00  0.00    -0.154 OA 
HETATM   19  N   UNL     1      -8.407  12.078  66.500  1.00  0.00    -0.374 N  
HETATM   20  C   UNL     1      -9.160  12.640  67.510  1.00  0.00    -0.192 C  
HETATM   21  H   UNL     1      -7.459  12.432  66.380  1.00  0.00     0.000 HD 
HETATM   22  O   UNL     1      -8.616  13.157  68.481  1.00  0.00    -0.148 OA 
ENDBRANCH  11  14
TORSDOF 1
ENDMDL
MODEL       26
REMARK 921   NORMALIZED FREE ENERGY PREDICTED BY IDOCK:   -6.06 KCAL/MOL
REMARK 922        TOTAL FREE ENERGY PREDICTED BY IDOCK:   -6.76 KCAL/MOL
REMARK 923 INTER-LIGAND FREE ENERGY PREDICTED BY IDOCK:   -6.90 KCAL/MOL
REMARK 924 INTRA-LIGAND FREE ENERGY PREDICTED BY IDOCK:    0.14 KCAL/MOL
REMARK 927      BINDING AFFINITY PREDICTED BY RF-SCORE:    0.00 PKD
ROOT
HETATM    1  N   UNL     1      -5.943  18.053  69.404  1.00  0.00    -0.230 NA 
HETATM    2  C   UNL     1      -6.860  18.761  68.627  1.00  0.00    -0.272 A  
HETATM    3  H1  UNL     1      -6.111  17.071  69.624  1.00  0.00     0.000 HD 
HETATM    4  H2  UNL     1      -5.802  18.559  70.279  1.00  0.00     0.000 HD 
HETATM    5  C   UNL     1      -6.627  20.114  68.325  1.00  0.00    -0.329 A  
HETATM    6  C   UNL     1      -7.451  20.830  67.434  1.00  0.00    -0.374 A  
HETATM    7  C   UNL     1      -8.503  20.195  66.782  1.00  0.00    -0.365 A  
HETATM    8  C   UNL     1      -8.683  18.851  67.046  1.00  0.00    -0.305 A  
HETATM    9  C   UNL     1      -7.882  18.130  67.937  1.00  0.00    -0.247 A  
HETATM   10  C   UNL     1      -8.322  16.702  67.959  1.00  0.00    -0.187 C  
HETATM   11  N   UNL     1      -9.478  16.705  67.071  1.00  0.00    -0.225 N  
HETATM   12  O   UNL     1     -10.505  18.240  65.637  1.00  0.00    -0.627 OA 
HETATM   13  C   UNL     1      -9.674  17.937  66.471  1.00  0.00    -0.329 C  
ENDROOT
BRANCH  11  14
HETATM   14  C   UNL     1     -10.194  15.508  66.652  1.00  0.00    -0.276 C  
HETATM   15  C   UNL     1     -10.498  15.491  65.158  1.00  0.00    -0.431 C  
HETATM   16  C   UNL     1     -11.037  14.117  64.783  1.00  0.00    -0.393 C  
HETATM   17  C   UNL     1     -12.237  13.743  65.624  1.00  0.00    -0.454 C  
HETATM   18  O   UNL     1     -13.134  13.020  65.197  1.00  0.00    -0.740 OA 
HETATM   19  N   UNL     1     -12.275  14.232  66.906  1.00  0.00    -0.559 N  
HETATM   20  C   UNL     1     -11.510  15.264  67.408  1.00  0.00    -0.241 C  
HETATM   21  H   UNL     1     -12.931  13.790  67.549  1.00  0.00     0.000 HD 
HETATM   22  O   UNL     1     -11.899  15.921  68.368  1.00  0.00    -0.322 OA 
ENDBRANCH  11  14
TORSDOF 1
ENDMDL
MODEL       27
REMARK 921   NORMALIZED FREE ENERGY PREDICTED BY IDOCK:   -5.95 KCAL/MOL
REMARK 922        TOTAL FREE ENERGY PREDICTED BY IDOCK:   -6.64 KCAL/MOL
REMARK 923 INTER-LIGAND FREE ENERGY PREDICTED BY IDOCK:   -6.38 KCAL/MOL
REMARK 924 INTRA-LIGAND FREE ENERGY PREDICTED BY IDOCK:   -0.26 KCAL/MOL
REMARK 927      BINDING AFFINITY PREDICTED BY RF-SCORE:    0.00 PKD
ROOT
HETATM    1  N   UNL     1     -12.925   9.480  71.187  1.00  0.00    -0.475 NA 
HETATM    2  C   UNL     1     -11.558   9.616  70.949  1.00  0.00    -0.344 A  
HETATM    3  H1  UNL     1     -13.592  10.062  70.678  1.00  0.00     0.000 HD 
HETATM    4  H2  UNL     1     -13.093   9.597  72.186  1.00  0.00     0.000 HD 
HETATM    5  C   UNL     1     -10.640   8.814  71.650  1.00  0.00    -0.401 A  
HETATM    6  C   UNL     1      -9.264   8.819  71.347  1.00  0.00    -0.325 A  
HETATM    7  C   UNL     1      -8.776   9.591  70.298  1.00  0.00    -0.270 A  
HETATM    8  C   UNL     1      -9.699  10.329  69.582  1.00  0.00    -0.216 A  
HETATM    9  C   UNL     1     -11.066  10.345  69.879  1.00  0.00    -0.367 A  
HETATM   10  C   UNL     1     -11.779  11.211  68.892  1.00  0.00    -0.337 C  
HETATM   11  N   UNL     1     -10.693  11.735  68.074  1.00  0.00    -0.200 N  
HETATM   12  O   UNL     1      -8.392  11.366  67.880  1.00  0.00    -0.127 OA 
HETATM   13  C   UNL     1      -9.469  11.185  68.415  1.00  0.00    -0.189 C  
ENDROOT
BRANCH  11  14
HETATM   14  C   UNL     1     -10.883  12.540  66.874  1.00  0.00    -0.248 C  
HETATM   15  C   UNL     1     -12.159  13.373  66.917  1.00  0.00    -0.406 C  
HETATM   16  C   UNL     1     -12.153  14.338  65.739  1.00  0.00    -0.414 C  
HETATM   17  C   UNL     1     -11.980  13.609  64.425  1.00  0.00    -0.437 C  
HETATM   18  O   UNL     1     -12.464  14.028  63.377  1.00  0.00    -0.826 OA 
HETATM   19  N   UNL     1     -11.232  12.458  64.447  1.00  0.00    -0.313 N  
HETATM   20  C   UNL     1     -10.886  11.732  65.568  1.00  0.00    -0.297 C  
HETATM   21  H   UNL     1     -10.902  12.105  63.550  1.00  0.00     0.000 HD 
HETATM   22  O   UNL     1     -10.631  10.535  65.482  1.00  0.00    -0.187 OA 
ENDBRANCH  11  14
TORSDOF 1
ENDMDL
MODEL       28
REMARK 921   NORMALIZED FREE ENERGY PREDICTED BY IDOCK:   -5.94 KCAL/MOL
REMARK 922        TOTAL FREE ENERGY PREDICTED BY IDOCK:   -6.63 KCAL/MOL
REMARK 923 INTER-LIGAND FREE ENERGY PREDICTED BY IDOCK:   -6.67 KCAL/MOL
REMARK 924 INTRA-LIGAND FREE ENERGY PREDICTED BY IDOCK:    0.04 KCAL/MOL
REMARK 927      BINDING AFFINITY PREDICTED BY RF-SCORE:    0.00 PKD
ROOT
HETATM    1  N   UNL     1     -10.911  11.674  67.023  1.00  0.00    -0.252 NA 
HETATM    2  C   UNL     1     -11.194  12.485  65.924  1.00  0.00    -0.320 A  
HETATM    3  H1  UNL     1     -10.354  12.039  67.796  1.00  0.00     0.000 HD 
HETATM    4  H2  UNL     1     -10.473  10.816  66.687  1.00  0.00     0.000 HD 
HETATM    5  C   UNL     1     -11.961  11.982  64.859  1.00  0.00    -0.286 A  
HETATM    6  C   UNL     1     -12.386  12.802  63.795  1.00  0.00    -0.533 A  
HETATM    7  C   UNL     1     -12.096  14.162  63.794  1.00  0.00    -0.192 A  
HETATM    8  C   UNL     1     -11.391  14.652  64.877  1.00  0.00    -0.403 A  
HETATM    9  C   UNL     1     -10.951  13.849  65.934  1.00  0.00    -0.284 A  
HETATM   10  C   UNL     1     -10.258  14.698  66.949  1.00  0.00    -0.262 C  
HETATM   11  N   UNL     1     -10.280  16.020  66.337  1.00  0.00    -0.291 N  
HETATM   12  O   UNL     1     -11.248  16.992  64.443  1.00  0.00    -1.167 OA 
HETATM   13  C   UNL     1     -10.994  16.036  65.151  1.00  0.00    -0.348 C  
ENDROOT
BRANCH  11  14
HETATM   14  C   UNL     1      -9.835  17.239  67.000  1.00  0.00    -0.281 C  
HETATM   15  C   UNL     1     -10.886  18.344  66.975  1.00  0.00    -0.222 C  
HETATM   16  C   UNL     1     -10.423  19.480  67.877  1.00  0.00    -0.552 C  
HETATM   17  C   UNL     1      -9.049  19.976  67.485  1.00  0.00    -0.356 C  
HETATM   18  O   UNL     1      -8.704  21.143  67.652  1.00  0.00    -0.000 OA 
HETATM   19  N   UNL     1      -8.185  19.055  66.948  1.00  0.00    -0.266 N  
HETATM   20  C   UNL     1      -8.524  17.816  66.443  1.00  0.00    -0.239 C  
HETATM   21  H   UNL     1      -7.199  19.310  66.918  1.00  0.00     0.000 HD 
HETATM   22  O   UNL     1      -7.817  17.269  65.603  1.00  0.00    -0.417 OA 
ENDBRANCH  11  14
TORSDOF 1
ENDMDL
MODEL       29
REMARK 921   NORMALIZED FREE ENERGY PREDICTED BY IDOCK:   -5.90 KCAL/MOL
REMARK 922        TOTAL FREE ENERGY PREDICTED BY IDOCK:   -6.59 KCAL/MOL
REMARK 923 INTER-LIGAND FREE ENERGY PREDICTED BY IDOCK:   -6.60 KCAL/MOL
REMARK 924 INTRA-LIGAND FREE ENERGY PREDICTED BY IDOCK:    0.01 KCAL/MOL
REMARK 927      BINDING AFFINITY PREDICTED BY RF-SCORE:    0.00 PKD
ROOT
HETATM    1  N   UNL     1     -12.524  14.125  63.676  1.00  0.00    -1.071 NA 
HETATM    2  C   UNL     1     -11.715  14.688  64.662  1.00  0.00    -0.426 A  
HETATM    3  H1  UNL     1     -12.860  13.166  63.777  1.00  0.00     0.000 HD 
HETATM    4  H2  UNL     1     -12.045  14.206  62.779  1.00  0.00     0.000 HD 
HETATM    5  C   UNL     1     -11.254  16.008  64.523  1.00  0.00    -0.309 A  
HETATM    6  C   UNL     1     -10.550  16.664  65.553  1.00  0.00    -0.273 A  
HETATM    7  C   UNL     1     -10.332  16.030  66.771  1.00  0.00    -0.300 A  
HETATM    8  C   UNL     1     -10.842  14.754  66.913  1.00  0.00    -0.316 A  
HETATM    9  C   UNL     1     -11.531  14.085  65.896  1.00  0.00    -0.330 A  
HETATM   10  C   UNL     1     -11.975  12.747  66.392  1.00  0.00    -0.375 C  
HETATM   11  N   UNL     1     -11.412  12.695  67.735  1.00  0.00    -0.300 N  
HETATM   12  O   UNL     1     -10.295  14.175  69.159  1.00  0.00    -0.195 OA 
HETATM   13  C   UNL     1     -10.797  13.883  68.091  1.00  0.00    -0.249 C  
ENDROOT
BRANCH  11  14
HETATM   14  C   UNL     1     -11.675  11.631  68.694  1.00  0.00    -0.325 C  
HETATM   15  C   UNL     1     -12.280  12.144  69.996  1.00  0.00    -0.270 C  
HETATM   16  C   UNL     1     -12.725  10.952  70.833  1.00  0.00    -0.464 C  
HETATM   17  C   UNL     1     -11.590   9.980  71.064  1.00  0.00    -0.393 C  
HETATM   18  O   UNL     1     -11.515   9.292  72.078  1.00  0.00    -0.355 OA 
HETATM   19  N   UNL     1     -10.645   9.882  70.073  1.00  0.00    -0.268 N  
HETATM   20  C   UNL     1     -10.445  10.779  69.044  1.00  0.00    -0.215 C  
HETATM   21  H   UNL     1     -10.032   9.068  70.099  1.00  0.00     0.000 HD 
HETATM   22  O   UNL     1      -9.351  10.870  68.498  1.00  0.00    -0.166 OA 
ENDBRANCH  11  14
TORSDOF 1
ENDMDL
MODEL       30
REMARK 921   NORMALIZED FREE ENERGY PREDICTED BY IDOCK:   -5.89 KCAL/MOL
REMARK 922        TOTAL FREE ENERGY PREDICTED BY IDOCK:   -6.58 KCAL/MOL
REMARK 923 INTER-LIGAND FREE ENERGY PREDICTED BY IDOCK:   -6.29 KCAL/MOL
REMARK 924 INTRA-LIGAND FREE ENERGY PREDICTED BY IDOCK:   -0.28 KCAL/MOL
REMARK 927      BINDING AFFINITY PREDICTED BY RF-SCORE:    0.00 PKD
ROOT
HETATM    1  N   UNL     1     -13.795   9.631  72.343  1.00  0.00    -0.596 NA 
HETATM    2  C   UNL     1     -12.459   9.343  72.063  1.00  0.00    -0.365 A  
HETATM    3  H1  UNL     1     -14.234  10.457  71.936  1.00  0.00     0.000 HD 
HETATM    4  H2  UNL     1     -13.911   9.669  73.355  1.00  0.00     0.000 HD 
HETATM    5  C   UNL     1     -11.853   8.205  72.622  1.00  0.00    -0.389 A  
HETATM    6  C   UNL     1     -10.553   7.800  72.262  1.00  0.00    -0.315 A  
HETATM    7  C   UNL     1      -9.841   8.497  71.291  1.00  0.00    -0.279 A  
HETATM    8  C   UNL     1     -10.473   9.579  70.709  1.00  0.00    -0.384 A  
HETATM    9  C   UNL     1     -11.758  10.002  71.066  1.00  0.00    -0.479 A  
HETATM   10  C   UNL     1     -12.150  11.170  70.221  1.00  0.00    -0.377 C  
HETATM   11  N   UNL     1     -10.954  11.411  69.424  1.00  0.00    -0.230 N  
HETATM   12  O   UNL     1      -8.902  10.341  69.086  1.00  0.00    -0.156 OA 
HETATM   13  C   UNL     1      -9.977  10.455  69.643  1.00  0.00    -0.174 C  
ENDROOT
BRANCH  11  14
HETATM   14  C   UNL     1     -10.873  12.379  68.338  1.00  0.00    -0.238 C  
HETATM   15  C   UNL     1     -11.780  13.585  68.551  1.00  0.00    -0.392 C  
HETATM   16  C   UNL     1     -11.459  14.632  67.493  1.00  0.00    -0.378 C  
HETATM   17  C   UNL     1     -11.570  14.063  66.096  1.00  0.00    -0.367 C  
HETATM   18  O   UNL     1     -11.896  14.752  65.134  1.00  0.00    -0.359 OA 
HETATM   19  N   UNL     1     -11.268  12.732  65.942  1.00  0.00    -0.290 N  
HETATM   20  C   UNL     1     -11.177  11.795  66.949  1.00  0.00    -0.327 C  
HETATM   21  H   UNL     1     -11.094  12.406  64.992  1.00  0.00     0.000 HD 
HETATM   22  O   UNL     1     -11.354  10.604  66.713  1.00  0.00    -0.201 OA 
ENDBRANCH  11  14
TORSDOF 1
ENDMDL
MODEL       31
REMARK 921   NORMALIZED FREE ENERGY PREDICTED BY IDOCK:   -5.89 KCAL/MOL
REMARK 922        TOTAL FREE ENERGY PREDICTED BY IDOCK:   -6.58 KCAL/MOL
REMARK 923 INTER-LIGAND FREE ENERGY PREDICTED BY IDOCK:   -6.26 KCAL/MOL
REMARK 924 INTRA-LIGAND FREE ENERGY PREDICTED BY IDOCK:   -0.32 KCAL/MOL
REMARK 927      BINDING AFFINITY PREDICTED BY RF-SCORE:    0.00 PKD
ROOT
HETATM    1  N   UNL     1      -5.866  18.116  69.650  1.00  0.00    -0.234 NA 
HETATM    2  C   UNL     1      -6.729  18.850  68.837  1.00  0.00    -0.284 A  
HETATM    3  H1  UNL     1      -6.157  17.208  70.014  1.00  0.00     0.000 HD 
HETATM    4  H2  UNL     1      -5.584  18.703  70.434  1.00  0.00     0.000 HD 
HETATM    5  C   UNL     1      -6.328  20.100  68.334  1.00  0.00    -0.326 A  
HETATM    6  C   UNL     1      -7.108  20.813  67.402  1.00  0.00    -0.412 A  
HETATM    7  C   UNL     1      -8.290  20.269  66.910  1.00  0.00    -0.348 A  
HETATM    8  C   UNL     1      -8.641  19.014  67.370  1.00  0.00    -0.301 A  
HETATM    9  C   UNL     1      -7.884  18.300  68.304  1.00  0.00    -0.310 A  
HETATM   10  C   UNL     1      -8.523  16.972  68.552  1.00  0.00    -0.257 C  
HETATM   11  N   UNL     1      -9.734  17.038  67.742  1.00  0.00    -0.253 N  
HETATM   12  O   UNL     1     -10.639  18.514  66.171  1.00  0.00    -0.424 OA 
HETATM   13  C   UNL     1      -9.797  18.198  66.989  1.00  0.00    -0.322 C  
ENDROOT
BRANCH  11  14
HETATM   14  C   UNL     1     -10.647  15.922  67.539  1.00  0.00    -0.315 C  
HETATM   15  C   UNL     1     -10.759  15.019  68.763  1.00  0.00    -0.241 C  
HETATM   16  C   UNL     1     -11.892  14.027  68.537  1.00  0.00    -0.399 C  
HETATM   17  C   UNL     1     -11.701  13.247  67.256  1.00  0.00    -0.377 C  
HETATM   18  O   UNL     1     -12.112  12.097  67.123  1.00  0.00    -0.575 OA 
HETATM   19  N   UNL     1     -11.060  13.890  66.226  1.00  0.00    -0.302 N  
HETATM   20  C   UNL     1     -10.306  15.041  66.328  1.00  0.00    -0.296 C  
HETATM   21  H   UNL     1     -11.150  13.479  65.298  1.00  0.00     0.000 HD 
HETATM   22  O   UNL     1      -9.429  15.288  65.505  1.00  0.00    -0.281 OA 
ENDBRANCH  11  14
TORSDOF 1
ENDMDL
MODEL       32
REMARK 921   NORMALIZED FREE ENERGY PREDICTED BY IDOCK:   -5.88 KCAL/MOL
REMARK 922        TOTAL FREE ENERGY PREDICTED BY IDOCK:   -6.57 KCAL/MOL
REMARK 923 INTER-LIGAND FREE ENERGY PREDICTED BY IDOCK:   -6.23 KCAL/MOL
REMARK 924 INTRA-LIGAND FREE ENERGY PREDICTED BY IDOCK:   -0.33 KCAL/MOL
REMARK 927      BINDING AFFINITY PREDICTED BY RF-SCORE:    0.00 PKD
ROOT
HETATM    1  N   UNL     1      -9.849  20.633  66.966  1.00  0.00    -0.592 NA 
HETATM    2  C   UNL     1      -8.773  19.771  67.181  1.00  0.00    -0.323 A  
HETATM    3  H1  UNL     1     -10.674  20.304  66.463  1.00  0.00     0.000 HD 
HETATM    4  H2  UNL     1      -9.503  21.473  66.504  1.00  0.00     0.000 HD 
HETATM    5  C   UNL     1      -7.638  20.225  67.874  1.00  0.00    -0.279 A  
HETATM    6  C   UNL     1      -6.588  19.357  68.233  1.00  0.00    -0.283 A  
HETATM    7  C   UNL     1      -6.670  17.998  67.949  1.00  0.00    -0.191 A  
HETATM    8  C   UNL     1      -7.818  17.558  67.319  1.00  0.00    -0.221 A  
HETATM    9  C   UNL     1      -8.862  18.410  66.945  1.00  0.00    -0.281 A  
HETATM   10  C   UNL     1      -9.959  17.608  66.323  1.00  0.00    -0.318 C  
HETATM   11  N   UNL     1      -9.409  16.258  66.310  1.00  0.00    -0.301 N  
HETATM   12  O   UNL     1      -7.504  15.201  67.158  1.00  0.00    -0.203 OA 
HETATM   13  C   UNL     1      -8.181  16.188  66.945  1.00  0.00    -0.238 C  
ENDROOT
BRANCH  11  14
HETATM   14  C   UNL     1     -10.155  15.071  65.914  1.00  0.00    -0.320 C  
HETATM   15  C   UNL     1     -10.848  15.230  64.566  1.00  0.00    -0.143 C  
HETATM   16  C   UNL     1     -11.404  13.878  64.138  1.00  0.00    -0.226 C  
HETATM   17  C   UNL     1     -12.316  13.294  65.194  1.00  0.00    -0.466 C  
HETATM   18  O   UNL     1     -13.260  12.562  64.909  1.00  0.00    -0.787 OA 
HETATM   19  N   UNL     1     -12.030  13.601  66.501  1.00  0.00    -0.405 N  
HETATM   20  C   UNL     1     -11.207  14.618  66.939  1.00  0.00    -0.343 C  
HETATM   21  H   UNL     1     -12.469  13.023  67.217  1.00  0.00     0.000 HD 
HETATM   22  O   UNL     1     -11.354  15.104  68.055  1.00  0.00    -0.313 OA 
ENDBRANCH  11  14
TORSDOF 1
ENDMDL
MODEL       33
REMARK 921   NORMALIZED FREE ENERGY PREDICTED BY IDOCK:   -5.86 KCAL/MOL
REMARK 922        TOTAL FREE ENERGY PREDICTED BY IDOCK:   -6.55 KCAL/MOL
REMARK 923 INTER-LIGAND FREE ENERGY PREDICTED BY IDOCK:   -6.64 KCAL/MOL
REMARK 924 INTRA-LIGAND FREE ENERGY PREDICTED BY IDOCK:    0.09 KCAL/MOL
REMARK 927      BINDING AFFINITY PREDICTED BY RF-SCORE:    0.00 PKD
ROOT
HETATM    1  N   UNL     1     -13.470  15.483  73.509  1.00  0.00    -0.634 NA 
HETATM    2  C   UNL     1     -12.971  14.561  72.588  1.00  0.00    -0.449 A  
HETATM    3  H1  UNL     1     -13.130  16.445  73.502  1.00  0.00     0.000 HD 
HETATM    4  H2  UNL     1     -13.344  15.103  74.447  1.00  0.00     0.000 HD 
HETATM    5  C   UNL     1     -13.440  13.236  72.598  1.00  0.00    -0.490 A  
HETATM    6  C   UNL     1     -13.069  12.307  71.605  1.00  0.00    -0.408 A  
HETATM    7  C   UNL     1     -12.256  12.696  70.546  1.00  0.00    -0.383 A  
HETATM    8  C   UNL     1     -11.851  14.017  70.520  1.00  0.00    -0.339 A  
HETATM    9  C   UNL     1     -12.200  14.946  71.505  1.00  0.00    -0.402 A  
HETATM   10  C   UNL     1     -11.630  16.282  71.153  1.00  0.00    -0.328 C  
HETATM   11  N   UNL     1     -10.873  16.003  69.938  1.00  0.00    -0.325 N  
HETATM   12  O   UNL     1     -10.594  14.180  68.501  1.00  0.00    -0.239 OA 
HETATM   13  C   UNL     1     -11.036  14.697  69.509  1.00  0.00    -0.266 C  
ENDROOT
BRANCH  11  14
HETATM   14  C   UNL     1     -10.228  17.022  69.121  1.00  0.00    -0.288 C  
HETATM   15  C   UNL     1     -10.903  17.209  67.767  1.00  0.00    -0.270 C  
HETATM   16  C   UNL     1     -10.307  18.435  67.088  1.00  0.00    -0.419 C  
HETATM   17  C   UNL     1      -8.802  18.332  66.977  1.00  0.00    -0.266 C  
HETATM   18  O   UNL     1      -8.178  18.854  66.058  1.00  0.00    -0.443 OA 
HETATM   19  N   UNL     1      -8.152  17.643  67.970  1.00  0.00    -0.236 N  
HETATM   20  C   UNL     1      -8.731  16.780  68.878  1.00  0.00    -0.224 C  
HETATM   21  H   UNL     1      -7.145  17.781  68.045  1.00  0.00     0.000 HD 
HETATM   22  O   UNL     1      -8.069  15.891  69.405  1.00  0.00    -0.234 OA 
ENDBRANCH  11  14
TORSDOF 1
ENDMDL
MODEL       34
REMARK 921   NORMALIZED FREE ENERGY PREDICTED BY IDOCK:   -5.84 KCAL/MOL
REMARK 922        TOTAL FREE ENERGY PREDICTED BY IDOCK:   -6.53 KCAL/MOL
REMARK 923 INTER-LIGAND FREE ENERGY PREDICTED BY IDOCK:   -6.37 KCAL/MOL
REMARK 924 INTRA-LIGAND FREE ENERGY PREDICTED BY IDOCK:   -0.16 KCAL/MOL
REMARK 927      BINDING AFFINITY PREDICTED BY RF-SCORE:    0.00 PKD
ROOT
HETATM    1  N   UNL     1     -10.861  10.975  63.324  1.00  0.00    -0.757 NA 
HETATM    2  C   UNL     1     -11.257  12.084  64.072  1.00  0.00    -0.397 A  
HETATM    3  H1  UNL     1     -10.326  10.227  63.766  1.00  0.00     0.000 HD 
HETATM    4  H2  UNL     1     -10.345  11.303  62.508  1.00  0.00     0.000 HD 
HETATM    5  C   UNL     1     -11.995  13.114  63.463  1.00  0.00    -0.580 A  
HETATM    6  C   UNL     1     -12.533  14.184  64.206  1.00  0.00    -0.301 A  
HETATM    7  C   UNL     1     -12.387  14.226  65.588  1.00  0.00    -0.416 A  
HETATM    8  C   UNL     1     -11.709  13.176  66.178  1.00  0.00    -0.428 A  
HETATM    9  C   UNL     1     -11.159  12.114  65.453  1.00  0.00    -0.362 A  
HETATM   10  C   UNL     1     -10.532  11.140  66.397  1.00  0.00    -0.260 C  
HETATM   11  N   UNL     1     -10.709  11.783  67.693  1.00  0.00    -0.206 N  
HETATM   12  O   UNL     1     -11.824  13.670  68.507  1.00  0.00    -0.336 OA 
HETATM   13  C   UNL     1     -11.451  12.947  67.602  1.00  0.00    -0.334 C  
ENDROOT
BRANCH  11  14
HETATM   14  C   UNL     1     -10.376  11.163  68.968  1.00  0.00    -0.194 C  
HETATM   15  C   UNL     1      -9.308  10.083  68.841  1.00  0.00    -0.172 C  
HETATM   16  C   UNL     1      -8.870   9.660  70.237  1.00  0.00    -0.253 C  
HETATM   17  C   UNL     1     -10.046   9.216  71.078  1.00  0.00    -0.303 C  
HETATM   18  O   UNL     1      -9.937   8.367  71.958  1.00  0.00    -0.227 OA 
HETATM   19  N   UNL     1     -11.252   9.823  70.828  1.00  0.00    -0.320 N  
HETATM   20  C   UNL     1     -11.580  10.556  69.707  1.00  0.00    -0.294 C  
HETATM   21  H   UNL     1     -11.976   9.721  71.539  1.00  0.00     0.000 HD 
HETATM   22  O   UNL     1     -12.749  10.669  69.353  1.00  0.00    -0.224 OA 
ENDBRANCH  11  14
TORSDOF 1
ENDMDL
MODEL       35
REMARK 921   NORMALIZED FREE ENERGY PREDICTED BY IDOCK:   -5.83 KCAL/MOL
REMARK 922        TOTAL FREE ENERGY PREDICTED BY IDOCK:   -6.52 KCAL/MOL
REMARK 923 INTER-LIGAND FREE ENERGY PREDICTED BY IDOCK:   -6.57 KCAL/MOL
REMARK 924 INTRA-LIGAND FREE ENERGY PREDICTED BY IDOCK:    0.06 KCAL/MOL
REMARK 927      BINDING AFFINITY PREDICTED BY RF-SCORE:    0.00 PKD
ROOT
HETATM    1  N   UNL     1     -14.040  13.571  72.494  1.00  0.00    -0.758 NA 
HETATM    2  C   UNL     1     -13.225  12.736  71.731  1.00  0.00    -0.374 A  
HETATM    3  H1  UNL     1     -13.916  14.583  72.451  1.00  0.00     0.000 HD 
HETATM    4  H2  UNL     1     -13.977  13.281  73.470  1.00  0.00     0.000 HD 
HETATM    5  C   UNL     1     -13.396  11.342  71.791  1.00  0.00    -0.371 A  
HETATM    6  C   UNL     1     -12.691  10.468  70.939  1.00  0.00    -0.495 A  
HETATM    7  C   UNL     1     -11.832  10.971  69.968  1.00  0.00    -0.435 A  
HETATM    8  C   UNL     1     -11.719  12.345  69.884  1.00  0.00    -0.339 A  
HETATM    9  C   UNL     1     -12.401  13.225  70.731  1.00  0.00    -0.425 A  
HETATM   10  C   UNL     1     -12.083  14.633  70.345  1.00  0.00    -0.319 C  
HETATM   11  N   UNL     1     -11.113  14.465  69.271  1.00  0.00    -0.265 N  
HETATM   12  O   UNL     1     -10.240  12.676  68.044  1.00  0.00    -0.217 OA 
HETATM   13  C   UNL     1     -10.927  13.135  68.936  1.00  0.00    -0.230 C  
ENDROOT
BRANCH  11  14
HETATM   14  C   UNL     1     -10.586  15.557  68.462  1.00  0.00    -0.246 C  
HETATM   15  C   UNL     1     -10.703  15.295  66.965  1.00  0.00    -0.313 C  
HETATM   16  C   UNL     1     -10.342  16.570  66.215  1.00  0.00    -0.327 C  
HETATM   17  C   UNL     1      -8.973  17.078  66.610  1.00  0.00    -0.254 C  
HETATM   18  O   UNL     1      -8.257  17.700  65.830  1.00  0.00    -0.543 OA 
HETATM   19  N   UNL     1      -8.567  16.833  67.899  1.00  0.00    -0.199 N  
HETATM   20  C   UNL     1      -9.125  15.920  68.769  1.00  0.00    -0.219 C  
HETATM   21  H   UNL     1      -7.778  17.378  68.245  1.00  0.00     0.000 HD 
HETATM   22  O   UNL     1      -8.462  15.446  69.687  1.00  0.00    -0.247 OA 
ENDBRANCH  11  14
TORSDOF 1
ENDMDL
MODEL       36
REMARK 921   NORMALIZED FREE ENERGY PREDICTED BY IDOCK:   -5.82 KCAL/MOL
REMARK 922        TOTAL FREE ENERGY PREDICTED BY IDOCK:   -6.51 KCAL/MOL
REMARK 923 INTER-LIGAND FREE ENERGY PREDICTED BY IDOCK:   -6.14 KCAL/MOL
REMARK 924 INTRA-LIGAND FREE ENERGY PREDICTED BY IDOCK:   -0.36 KCAL/MOL
REMARK 927      BINDING AFFINITY PREDICTED BY RF-SCORE:    0.00 PKD
ROOT
HETATM    1  N   UNL     1      -9.915   9.209  65.876  1.00  0.00    -0.416 NA 
HETATM    2  C   UNL     1     -10.459  10.294  66.562  1.00  0.00    -0.173 A  
HETATM    3  H1  UNL     1      -9.492   8.438  66.393  1.00  0.00     0.000 HD 
HETATM    4  H2  UNL     1      -9.232   9.560  65.205  1.00  0.00     0.000 HD 
HETATM    5  C   UNL     1     -11.042  11.355  65.848  1.00  0.00    -0.225 A  
HETATM    6  C   UNL     1     -11.724  12.404  66.498  1.00  0.00    -0.443 A  
HETATM    7  C   UNL     1     -11.882  12.392  67.880  1.00  0.00    -0.370 A  
HETATM    8  C   UNL     1     -11.354  11.312  68.561  1.00  0.00    -0.341 A  
HETATM    9  C   UNL     1     -10.663  10.271  67.932  1.00  0.00    -0.310 A  
HETATM   10  C   UNL     1     -10.262   9.254  68.950  1.00  0.00    -0.202 C  
HETATM   11  N   UNL     1     -10.713   9.850  70.201  1.00  0.00    -0.286 N  
HETATM   12  O   UNL     1     -11.971  11.719  70.827  1.00  0.00    -0.319 OA 
HETATM   13  C   UNL     1     -11.414  11.027  69.997  1.00  0.00    -0.314 C  
ENDROOT
BRANCH  11  14
HETATM   14  C   UNL     1     -10.670   9.178  71.493  1.00  0.00    -0.367 C  
HETATM   15  C   UNL     1      -9.355   8.446  71.735  1.00  0.00    -0.293 C  
HETATM   16  C   UNL     1      -9.316   7.975  73.183  1.00  0.00    -0.346 C  
HETATM   17  C   UNL     1     -10.523   7.130  73.525  1.00  0.00    -0.380 C  
HETATM   18  O   UNL     1     -10.476   6.232  74.361  1.00  0.00    -0.293 OA 
HETATM   19  N   UNL     1     -11.693   7.423  72.869  1.00  0.00    -0.582 N  
HETATM   20  C   UNL     1     -11.818   8.185  71.726  1.00  0.00    -0.300 C  
HETATM   21  H   UNL     1     -12.552   7.043  73.265  1.00  0.00     0.000 HD 
HETATM   22  O   UNL     1     -12.775   8.030  70.974  1.00  0.00    -0.185 OA 
ENDBRANCH  11  14
TORSDOF 1
ENDMDL
MODEL       37
REMARK 921   NORMALIZED FREE ENERGY PREDICTED BY IDOCK:   -5.71 KCAL/MOL
REMARK 922        TOTAL FREE ENERGY PREDICTED BY IDOCK:   -6.39 KCAL/MOL
REMARK 923 INTER-LIGAND FREE ENERGY PREDICTED BY IDOCK:   -6.03 KCAL/MOL
REMARK 924 INTRA-LIGAND FREE ENERGY PREDICTED BY IDOCK:   -0.37 KCAL/MOL
REMARK 927      BINDING AFFINITY PREDICTED BY RF-SCORE:    0.00 PKD
ROOT
HETATM    1  N   UNL     1     -10.640  12.237  68.957  1.00  0.00    -0.409 NA 
HETATM    2  C   UNL     1     -10.898  12.845  67.728  1.00  0.00    -0.229 A  
HETATM    3  H1  UNL     1      -9.922  12.618  69.573  1.00  0.00     0.000 HD 
HETATM    4  H2  UNL     1     -10.435  11.252  68.793  1.00  0.00     0.000 HD 
HETATM    5  C   UNL     1     -11.887  12.319  66.878  1.00  0.00    -0.334 A  
HETATM    6  C   UNL     1     -12.276  12.975  65.693  1.00  0.00    -0.521 A  
HETATM    7  C   UNL     1     -11.718  14.203  65.352  1.00  0.00    -0.347 A  
HETATM    8  C   UNL     1     -10.790  14.733  66.227  1.00  0.00    -0.322 A  
HETATM    9  C   UNL     1     -10.384  14.088  67.399  1.00  0.00    -0.259 A  
HETATM   10  C   UNL     1      -9.403  14.949  68.127  1.00  0.00    -0.193 C  
HETATM   11  N   UNL     1      -9.237  16.085  67.228  1.00  0.00    -0.203 N  
HETATM   12  O   UNL     1     -10.234  16.835  65.251  1.00  0.00    -0.607 OA 
HETATM   13  C   UNL     1     -10.086  16.016  66.136  1.00  0.00    -0.327 C  
ENDROOT
BRANCH  11  14
HETATM   14  C   UNL     1      -8.469  17.280  67.549  1.00  0.00    -0.204 C  
HETATM   15  C   UNL     1      -7.146  16.966  68.237  1.00  0.00    -0.179 C  
HETATM   16  C   UNL     1      -6.323  18.245  68.324  1.00  0.00    -0.198 C  
HETATM   17  C   UNL     1      -7.089  19.351  69.015  1.00  0.00    -0.362 C  
HETATM   18  O   UNL     1      -6.526  20.224  69.670  1.00  0.00    -0.313 OA 
HETATM   19  N   UNL     1      -8.453  19.353  68.861  1.00  0.00    -0.349 N  
HETATM   20  C   UNL     1      -9.224  18.301  68.413  1.00  0.00    -0.317 C  
HETATM   21  H   UNL     1      -8.943  20.215  69.100  1.00  0.00     0.000 HD 
HETATM   22  O   UNL     1     -10.408  18.218  68.724  1.00  0.00    -0.354 OA 
ENDBRANCH  11  14
TORSDOF 1
ENDMDL
MODEL       38
REMARK 921   NORMALIZED FREE ENERGY PREDICTED BY IDOCK:   -5.71 KCAL/MOL
REMARK 922        TOTAL FREE ENERGY PREDICTED BY IDOCK:   -6.39 KCAL/MOL
REMARK 923 INTER-LIGAND FREE ENERGY PREDICTED BY IDOCK:   -6.46 KCAL/MOL
REMARK 924 INTRA-LIGAND FREE ENERGY PREDICTED BY IDOCK:    0.08 KCAL/MOL
REMARK 927      BINDING AFFINITY PREDICTED BY RF-SCORE:    0.00 PKD
ROOT
HETATM    1  N   UNL     1     -12.249   9.170  71.915  1.00  0.00    -0.366 NA 
HETATM    2  C   UNL     1     -11.045   9.487  71.286  1.00  0.00    -0.379 A  
HETATM    3  H1  UNL     1     -13.109   9.647  71.641  1.00  0.00     0.000 HD 
HETATM    4  H2  UNL     1     -12.127   9.279  72.922  1.00  0.00     0.000 HD 
HETATM    5  C   UNL     1      -9.862   8.829  71.664  1.00  0.00    -0.378 A  
HETATM    6  C   UNL     1      -8.651   9.016  70.968  1.00  0.00    -0.264 A  
HETATM    7  C   UNL     1      -8.605   9.831  69.841  1.00  0.00    -0.236 A  
HETATM    8  C   UNL     1      -9.789  10.424  69.449  1.00  0.00    -0.235 A  
HETATM    9  C   UNL     1     -10.995  10.259  70.138  1.00  0.00    -0.377 A  
HETATM   10  C   UNL     1     -12.079  11.004  69.428  1.00  0.00    -0.318 C  
HETATM   11  N   UNL     1     -11.365  11.658  68.339  1.00  0.00    -0.252 N  
HETATM   12  O   UNL     1      -9.198  11.603  67.464  1.00  0.00    -0.167 OA 
HETATM   13  C   UNL     1     -10.033  11.285  68.288  1.00  0.00    -0.195 C  
ENDROOT
BRANCH  11  14
HETATM   14  C   UNL     1     -12.009  12.410  67.270  1.00  0.00    -0.176 C  
HETATM   15  C   UNL     1     -11.532  11.994  65.883  1.00  0.00    -0.392 C  
HETATM   16  C   UNL     1     -12.415  12.665  64.840  1.00  0.00    -0.564 C  
HETATM   17  C   UNL     1     -12.443  14.167  65.018  1.00  0.00    -0.419 C  
HETATM   18  O   UNL     1     -12.595  14.934  64.072  1.00  0.00    -0.832 OA 
HETATM   19  N   UNL     1     -12.313  14.643  66.299  1.00  0.00    -0.251 N  
HETATM   20  C   UNL     1     -11.854  13.933  67.390  1.00  0.00    -0.402 C  
HETATM   21  H   UNL     1     -12.580  15.613  66.460  1.00  0.00     0.000 HD 
HETATM   22  O   UNL     1     -11.351  14.514  68.346  1.00  0.00    -0.263 OA 
ENDBRANCH  11  14
TORSDOF 1
ENDMDL
MODEL       39
REMARK 921   NORMALIZED FREE ENERGY PREDICTED BY IDOCK:   -5.70 KCAL/MOL
REMARK 922        TOTAL FREE ENERGY PREDICTED BY IDOCK:   -6.38 KCAL/MOL
REMARK 923 INTER-LIGAND FREE ENERGY PREDICTED BY IDOCK:   -6.39 KCAL/MOL
REMARK 924 INTRA-LIGAND FREE ENERGY PREDICTED BY IDOCK:    0.01 KCAL/MOL
REMARK 927      BINDING AFFINITY PREDICTED BY RF-SCORE:    0.00 PKD
ROOT
HETATM    1  N   UNL     1     -12.427  14.392  69.298  1.00  0.00    -0.549 NA 
HETATM    2  C   UNL     1     -12.066  13.270  68.551  1.00  0.00    -0.221 A  
HETATM    3  H1  UNL     1     -12.636  14.296  70.293  1.00  0.00     0.000 HD 
HETATM    4  H2  UNL     1     -13.221  14.841  68.844  1.00  0.00     0.000 HD 
HETATM    5  C   UNL     1     -11.778  13.402  67.182  1.00  0.00    -0.424 A  
HETATM    6  C   UNL     1     -11.280  12.327  66.419  1.00  0.00    -0.370 A  
HETATM    7  C   UNL     1     -11.009  11.103  67.020  1.00  0.00    -0.348 A  
HETATM    8  C   UNL     1     -11.242  11.007  68.378  1.00  0.00    -0.337 A  
HETATM    9  C   UNL     1     -11.750  12.060  69.146  1.00  0.00    -0.389 A  
HETATM   10  C   UNL     1     -11.845  11.633  70.575  1.00  0.00    -0.231 C  
HETATM   11  N   UNL     1     -11.426  10.238  70.526  1.00  0.00    -0.321 N  
HETATM   12  O   UNL     1     -10.539   8.794  68.915  1.00  0.00    -0.215 OA 
HETATM   13  C   UNL     1     -11.006   9.862  69.262  1.00  0.00    -0.211 C  
ENDROOT
BRANCH  11  14
HETATM   14  C   UNL     1     -11.222   9.401  71.701  1.00  0.00    -0.361 C  
HETATM   15  C   UNL     1      -9.812   8.827  71.780  1.00  0.00    -0.391 C  
HETATM   16  C   UNL     1      -9.630   8.163  73.139  1.00  0.00    -0.307 C  
HETATM   17  C   UNL     1     -10.696   7.122  73.397  1.00  0.00    -0.368 C  
HETATM   18  O   UNL     1     -10.486   6.129  74.088  1.00  0.00    -0.288 OA 
HETATM   19  N   UNL     1     -11.930   7.345  72.838  1.00  0.00    -0.549 N  
HETATM   20  C   UNL     1     -12.218   8.238  71.826  1.00  0.00    -0.326 C  
HETATM   21  H   UNL     1     -12.709   6.799  73.205  1.00  0.00     0.000 HD 
HETATM   22  O   UNL     1     -13.189   8.064  71.096  1.00  0.00    -0.183 OA 
ENDBRANCH  11  14
TORSDOF 1
ENDMDL
MODEL       40
REMARK 921   NORMALIZED FREE ENERGY PREDICTED BY IDOCK:   -5.70 KCAL/MOL
REMARK 922        TOTAL FREE ENERGY PREDICTED BY IDOCK:   -6.37 KCAL/MOL
REMARK 923 INTER-LIGAND FREE ENERGY PREDICTED BY IDOCK:   -6.43 KCAL/MOL
REMARK 924 INTRA-LIGAND FREE ENERGY PREDICTED BY IDOCK:    0.05 KCAL/MOL
REMARK 927      BINDING AFFINITY PREDICTED BY RF-SCORE:    0.00 PKD
ROOT
HETATM    1  N   UNL     1     -12.553   9.522  70.742  1.00  0.00    -0.496 NA 
HETATM    2  C   UNL     1     -12.695  10.909  70.677  1.00  0.00    -0.309 A  
HETATM    3  H1  UNL     1     -12.285   8.998  69.908  1.00  0.00     0.000 HD 
HETATM    4  H2  UNL     1     -13.417   9.126  71.109  1.00  0.00     0.000 HD 
HETATM    5  C   UNL     1     -13.063  11.631  71.825  1.00  0.00    -0.487 A  
HETATM    6  C   UNL     1     -13.086  13.040  71.843  1.00  0.00    -0.483 A  
HETATM    7  C   UNL     1     -12.693  13.765  70.723  1.00  0.00    -0.361 A  
HETATM    8  C   UNL     1     -12.279  13.041  69.622  1.00  0.00    -0.219 A  
HETATM    9  C   UNL     1     -12.263  11.643  69.585  1.00  0.00    -0.271 A  
HETATM   10  C   UNL     1     -11.728  11.186  68.266  1.00  0.00    -0.252 C  
HETATM   11  N   UNL     1     -11.523  12.438  67.548  1.00  0.00    -0.324 N  
HETATM   12  O   UNL     1     -11.635  14.717  68.055  1.00  0.00    -0.319 OA 
HETATM   13  C   UNL     1     -11.777  13.544  68.340  1.00  0.00    -0.358 C  
ENDROOT
BRANCH  11  14
HETATM   14  C   UNL     1     -10.884  12.539  66.243  1.00  0.00    -0.268 C  
HETATM   15  C   UNL     1     -11.837  12.237  65.092  1.00  0.00    -0.404 C  
HETATM   16  C   UNL     1     -11.147  12.587  63.780  1.00  0.00    -0.503 C  
HETATM   17  C   UNL     1      -9.822  11.871  63.640  1.00  0.00    -0.316 C  
HETATM   18  O   UNL     1      -9.366  11.549  62.547  1.00  0.00    -0.274 OA 
HETATM   19  N   UNL     1      -9.131  11.611  64.797  1.00  0.00    -0.408 N  
HETATM   20  C   UNL     1      -9.642  11.650  66.078  1.00  0.00    -0.228 C  
HETATM   21  H   UNL     1      -8.146  11.367  64.702  1.00  0.00     0.000 HD 
HETATM   22  O   UNL     1      -9.126  10.993  66.977  1.00  0.00    -0.146 OA 
ENDBRANCH  11  14
TORSDOF 1
ENDMDL
MODEL       41
REMARK 921   NORMALIZED FREE ENERGY PREDICTED BY IDOCK:   -5.69 KCAL/MOL
REMARK 922        TOTAL FREE ENERGY PREDICTED BY IDOCK:   -6.36 KCAL/MOL
REMARK 923 INTER-LIGAND FREE ENERGY PREDICTED BY IDOCK:   -6.09 KCAL/MOL
REMARK 924 INTRA-LIGAND FREE ENERGY PREDICTED BY IDOCK:   -0.28 KCAL/MOL
REMARK 927      BINDING AFFINITY PREDICTED BY RF-SCORE:    0.00 PKD
ROOT
HETATM    1  N   UNL     1      -8.054  10.670  66.060  1.00  0.00    -0.156 NA 
HETATM    2  C   UNL     1      -9.100  11.237  65.333  1.00  0.00    -0.147 A  
HETATM    3  H1  UNL     1      -7.777  11.074  66.956  1.00  0.00     0.000 HD 
HETATM    4  H2  UNL     1      -7.230  10.624  65.460  1.00  0.00     0.000 HD 
HETATM    5  C   UNL     1      -9.480  10.680  64.099  1.00  0.00    -0.327 A  
HETATM    6  C   UNL     1     -10.615  11.131  63.396  1.00  0.00    -0.340 A  
HETATM    7  C   UNL     1     -11.429  12.121  63.935  1.00  0.00    -0.519 A  
HETATM    8  C   UNL     1     -11.075  12.618  65.175  1.00  0.00    -0.329 A  
HETATM    9  C   UNL     1      -9.944  12.190  65.878  1.00  0.00    -0.267 A  
HETATM   10  C   UNL     1      -9.877  12.900  67.191  1.00  0.00    -0.225 C  
HETATM   11  N   UNL     1     -11.013  13.811  67.127  1.00  0.00    -0.286 N  
HETATM   12  O   UNL     1     -12.808  14.176  65.674  1.00  0.00    -0.529 OA 
HETATM   13  C   UNL     1     -11.770  13.623  65.984  1.00  0.00    -0.358 C  
ENDROOT
BRANCH  11  14
HETATM   14  C   UNL     1     -11.461  14.643  68.235  1.00  0.00    -0.314 C  
HETATM   15  C   UNL     1     -10.372  15.576  68.753  1.00  0.00    -0.217 C  
HETATM   16  C   UNL     1     -10.993  16.552  69.744  1.00  0.00    -0.292 C  
HETATM   17  C   UNL     1     -11.716  15.828  70.858  1.00  0.00    -0.406 C  
HETATM   18  O   UNL     1     -11.809  16.297  71.989  1.00  0.00    -0.505 OA 
HETATM   19  N   UNL     1     -12.289  14.620  70.545  1.00  0.00    -0.316 N  
HETATM   20  C   UNL     1     -12.020  13.855  69.430  1.00  0.00    -0.354 C  
HETATM   21  H   UNL     1     -12.979  14.254  71.200  1.00  0.00     0.000 HD 
HETATM   22  O   UNL     1     -12.207  12.642  69.444  1.00  0.00    -0.200 OA 
ENDBRANCH  11  14
TORSDOF 1
ENDMDL
MODEL       42
REMARK 921   NORMALIZED FREE ENERGY PREDICTED BY IDOCK:   -5.68 KCAL/MOL
REMARK 922        TOTAL FREE ENERGY PREDICTED BY IDOCK:   -6.36 KCAL/MOL
REMARK 923 INTER-LIGAND FREE ENERGY PREDICTED BY IDOCK:   -6.59 KCAL/MOL
REMARK 924 INTRA-LIGAND FREE ENERGY PREDICTED BY IDOCK:    0.23 KCAL/MOL
REMARK 927      BINDING AFFINITY PREDICTED BY RF-SCORE:    0.00 PKD
ROOT
HETATM    1  N   UNL     1     -10.664  11.096  62.932  1.00  0.00    -0.804 NA 
HETATM    2  C   UNL     1     -11.135  11.999  63.884  1.00  0.00    -0.405 A  
HETATM    3  H1  UNL     1     -10.091  10.302  63.222  1.00  0.00     0.000 HD 
HETATM    4  H2  UNL     1     -10.156  11.616  62.216  1.00  0.00     0.000 HD 
HETATM    5  C   UNL     1     -11.925  13.092  63.484  1.00  0.00    -0.615 A  
HETATM    6  C   UNL     1     -12.535  13.951  64.420  1.00  0.00    -0.321 A  
HETATM    7  C   UNL     1     -12.412  13.709  65.784  1.00  0.00    -0.524 A  
HETATM    8  C   UNL     1     -11.681  12.598  66.159  1.00  0.00    -0.461 A  
HETATM    9  C   UNL     1     -11.058  11.744  65.243  1.00  0.00    -0.333 A  
HETATM   10  C   UNL     1     -10.388  10.629  65.979  1.00  0.00    -0.225 C  
HETATM   11  N   UNL     1     -10.621  10.975  67.375  1.00  0.00    -0.222 N  
HETATM   12  O   UNL     1     -11.858  12.584  68.536  1.00  0.00    -0.305 OA 
HETATM   13  C   UNL     1     -11.431  12.089  67.510  1.00  0.00    -0.333 C  
ENDROOT
BRANCH  11  14
HETATM   14  C   UNL     1     -10.271  10.120  68.502  1.00  0.00    -0.174 C  
HETATM   15  C   UNL     1     -11.328  10.125  69.600  1.00  0.00    -0.289 C  
HETATM   16  C   UNL     1     -10.985   9.043  70.615  1.00  0.00    -0.308 C  
HETATM   17  C   UNL     1      -9.583   9.213  71.157  1.00  0.00    -0.277 C  
HETATM   18  O   UNL     1      -9.276   8.864  72.294  1.00  0.00    -0.376 OA 
HETATM   19  N   UNL     1      -8.652   9.760  70.310  1.00  0.00    -0.291 N  
HETATM   20  C   UNL     1      -8.914  10.449  69.145  1.00  0.00    -0.179 C  
HETATM   21  H   UNL     1      -7.672   9.647  70.567  1.00  0.00     0.000 HD 
HETATM   22  O   UNL     1      -8.110  11.266  68.706  1.00  0.00    -0.145 OA 
ENDBRANCH  11  14
TORSDOF 1
ENDMDL
MODEL       43
REMARK 921   NORMALIZED FREE ENERGY PREDICTED BY IDOCK:   -5.67 KCAL/MOL
REMARK 922        TOTAL FREE ENERGY PREDICTED BY IDOCK:   -6.35 KCAL/MOL
REMARK 923 INTER-LIGAND FREE ENERGY PREDICTED BY IDOCK:   -6.04 KCAL/MOL
REMARK 924 INTRA-LIGAND FREE ENERGY PREDICTED BY IDOCK:   -0.31 KCAL/MOL
REMARK 927      BINDING AFFINITY PREDICTED BY RF-SCORE:    0.00 PKD
ROOT
HETATM    1  N   UNL     1     -12.638  14.171  66.429  1.00  0.00    -0.516 NA 
HETATM    2  C   UNL     1     -12.062  13.141  65.686  1.00  0.00    -0.449 A  
HETATM    3  H1  UNL     1     -12.795  14.051  67.430  1.00  0.00     0.000 HD 
HETATM    4  H2  UNL     1     -13.523  14.428  65.992  1.00  0.00     0.000 HD 
HETATM    5  C   UNL     1     -11.845  13.306  64.307  1.00  0.00    -0.469 A  
HETATM    6  C   UNL     1     -11.144  12.351  63.543  1.00  0.00    -0.521 A  
HETATM    7  C   UNL     1     -10.597  11.226  64.152  1.00  0.00    -0.437 A  
HETATM    8  C   UNL     1     -10.769  11.108  65.518  1.00  0.00    -0.251 A  
HETATM    9  C   UNL     1     -11.473  12.040  66.286  1.00  0.00    -0.408 A  
HETATM   10  C   UNL     1     -11.436  11.630  67.723  1.00  0.00    -0.302 C  
HETATM   11  N   UNL     1     -10.725  10.358  67.680  1.00  0.00    -0.264 N  
HETATM   12  O   UNL     1      -9.587   9.111  66.062  1.00  0.00    -0.236 OA 
HETATM   13  C   UNL     1     -10.266  10.058  66.409  1.00  0.00    -0.221 C  
ENDROOT
BRANCH  11  14
HETATM   14  C   UNL     1     -10.313   9.608  68.859  1.00  0.00    -0.203 C  
HETATM   15  C   UNL     1     -11.280   9.764  70.027  1.00  0.00    -0.297 C  
HETATM   16  C   UNL     1     -10.891   8.776  71.119  1.00  0.00    -0.335 C  
HETATM   17  C   UNL     1      -9.447   8.947  71.534  1.00  0.00    -0.277 C  
HETATM   18  O   UNL     1      -9.061   8.703  72.674  1.00  0.00    -0.324 OA 
HETATM   19  N   UNL     1      -8.568   9.370  70.568  1.00  0.00    -0.221 N  
HETATM   20  C   UNL     1      -8.901   9.948  69.361  1.00  0.00    -0.187 C  
HETATM   21  H   UNL     1      -7.575   9.246  70.761  1.00  0.00     0.000 HD 
HETATM   22  O   UNL     1      -8.109  10.686  68.781  1.00  0.00    -0.121 OA 
ENDBRANCH  11  14
TORSDOF 1
ENDMDL
MODEL       44
REMARK 921   NORMALIZED FREE ENERGY PREDICTED BY IDOCK:   -5.66 KCAL/MOL
REMARK 922        TOTAL FREE ENERGY PREDICTED BY IDOCK:   -6.33 KCAL/MOL
REMARK 923 INTER-LIGAND FREE ENERGY PREDICTED BY IDOCK:   -6.36 KCAL/MOL
REMARK 924 INTRA-LIGAND FREE ENERGY PREDICTED BY IDOCK:    0.03 KCAL/MOL
REMARK 927      BINDING AFFINITY PREDICTED BY RF-SCORE:    0.00 PKD
ROOT
HETATM    1  N   UNL     1      -9.853  20.452  66.367  1.00  0.00    -0.626 NA 
HETATM    2  C   UNL     1      -8.862  19.483  66.211  1.00  0.00    -0.361 A  
HETATM    3  H1  UNL     1     -10.824  20.171  66.505  1.00  0.00     0.000 HD 
HETATM    4  H2  UNL     1      -9.811  21.088  65.570  1.00  0.00     0.000 HD 
HETATM    5  C   UNL     1      -7.524  19.871  66.021  1.00  0.00    -0.338 A  
HETATM    6  C   UNL     1      -6.473  18.933  65.995  1.00  0.00    -0.252 A  
HETATM    7  C   UNL     1      -6.729  17.583  66.209  1.00  0.00    -0.309 A  
HETATM    8  C   UNL     1      -8.041  17.225  66.451  1.00  0.00    -0.328 A  
HETATM    9  C   UNL     1      -9.096  18.143  66.467  1.00  0.00    -0.287 A  
HETATM   10  C   UNL     1     -10.369  17.431  66.794  1.00  0.00    -0.305 C  
HETATM   11  N   UNL     1      -9.950  16.038  66.882  1.00  0.00    -0.245 N  
HETATM   12  O   UNL     1      -7.921  14.876  66.840  1.00  0.00    -0.180 OA 
HETATM   13  C   UNL     1      -8.580  15.895  66.748  1.00  0.00    -0.266 C  
ENDROOT
BRANCH  11  14
HETATM   14  C   UNL     1     -10.813  14.947  67.313  1.00  0.00    -0.306 C  
HETATM   15  C   UNL     1     -10.356  14.311  68.620  1.00  0.00    -0.246 C  
HETATM   16  C   UNL     1     -11.433  13.347  69.100  1.00  0.00    -0.351 C  
HETATM   17  C   UNL     1     -11.771  12.320  68.042  1.00  0.00    -0.356 C  
HETATM   18  O   UNL     1     -12.149  11.188  68.328  1.00  0.00    -0.620 OA 
HETATM   19  N   UNL     1     -11.656  12.716  66.732  1.00  0.00    -0.354 N  
HETATM   20  C   UNL     1     -10.981  13.828  66.273  1.00  0.00    -0.297 C  
HETATM   21  H   UNL     1     -12.114  12.134  66.033  1.00  0.00     0.000 HD 
HETATM   22  O   UNL     1     -10.548  13.866  65.125  1.00  0.00    -0.332 OA 
ENDBRANCH  11  14
TORSDOF 1
ENDMDL
MODEL       45
REMARK 921   NORMALIZED FREE ENERGY PREDICTED BY IDOCK:   -5.63 KCAL/MOL
REMARK 922        TOTAL FREE ENERGY PREDICTED BY IDOCK:   -6.30 KCAL/MOL
REMARK 923 INTER-LIGAND FREE ENERGY PREDICTED BY IDOCK:   -5.94 KCAL/MOL
REMARK 924 INTRA-LIGAND FREE ENERGY PREDICTED BY IDOCK:   -0.36 KCAL/MOL
REMARK 927      BINDING AFFINITY PREDICTED BY RF-SCORE:    0.00 PKD
ROOT
HETATM    1  N   UNL     1     -10.818  19.334  65.429  1.00  0.00    -0.469 NA 
HETATM    2  C   UNL     1      -9.774  19.124  66.329  1.00  0.00    -0.365 A  
HETATM    3  H1  UNL     1     -11.383  18.546  65.110  1.00  0.00     0.000 HD 
HETATM    4  H2  UNL     1     -10.447  19.816  64.610  1.00  0.00     0.000 HD 
HETATM    5  C   UNL     1      -8.996  20.210  66.768  1.00  0.00    -0.431 A  
HETATM    6  C   UNL     1      -8.023  20.069  67.777  1.00  0.00    -0.324 A  
HETATM    7  C   UNL     1      -7.836  18.845  68.410  1.00  0.00    -0.359 A  
HETATM    8  C   UNL     1      -8.648  17.802  68.007  1.00  0.00    -0.250 A  
HETATM    9  C   UNL     1      -9.609  17.923  66.998  1.00  0.00    -0.286 A  
HETATM   10  C   UNL     1     -10.331  16.624  66.841  1.00  0.00    -0.299 C  
HETATM   11  N   UNL     1      -9.643  15.753  67.786  1.00  0.00    -0.213 N  
HETATM   12  O   UNL     1      -8.006  16.006  69.436  1.00  0.00    -0.236 OA 
HETATM   13  C   UNL     1      -8.694  16.433  68.529  1.00  0.00    -0.223 C  
ENDROOT
BRANCH  11  14
HETATM   14  C   UNL     1     -10.062  14.395  68.106  1.00  0.00    -0.226 C  
HETATM   15  C   UNL     1     -10.517  13.612  66.879  1.00  0.00    -0.272 C  
HETATM   16  C   UNL     1     -10.716  12.154  67.275  1.00  0.00    -0.264 C  
HETATM   17  C   UNL     1     -11.674  12.020  68.437  1.00  0.00    -0.332 C  
HETATM   18  O   UNL     1     -12.391  11.034  68.582  1.00  0.00    -0.539 OA 
HETATM   19  N   UNL     1     -11.694  13.047  69.348  1.00  0.00    -0.312 N  
HETATM   20  C   UNL     1     -11.174  14.311  69.163  1.00  0.00    -0.270 C  
HETATM   21  H   UNL     1     -12.134  12.858  70.248  1.00  0.00     0.000 HD 
HETATM   22  O   UNL     1     -11.612  15.266  69.797  1.00  0.00    -0.270 OA 
ENDBRANCH  11  14
TORSDOF 1
ENDMDL
MODEL       46
REMARK 921   NORMALIZED FREE ENERGY PREDICTED BY IDOCK:   -5.62 KCAL/MOL
REMARK 922        TOTAL FREE ENERGY PREDICTED BY IDOCK:   -6.29 KCAL/MOL
REMARK 923 INTER-LIGAND FREE ENERGY PREDICTED BY IDOCK:   -5.94 KCAL/MOL
REMARK 924 INTRA-LIGAND FREE ENERGY PREDICTED BY IDOCK:   -0.35 KCAL/MOL
REMARK 927      BINDING AFFINITY PREDICTED BY RF-SCORE:    0.00 PKD
ROOT
HETATM    1  N   UNL     1      -7.120   9.552  68.905  1.00  0.00    -0.066 NA 
HETATM    2  C   UNL     1      -8.344   9.433  69.564  1.00  0.00    -0.127 A  
HETATM    3  H1  UNL     1      -7.082   9.956  67.969  1.00  0.00     0.000 HD 
HETATM    4  H2  UNL     1      -6.676   8.635  68.879  1.00  0.00     0.000 HD 
HETATM    5  C   UNL     1      -8.396   8.877  70.854  1.00  0.00    -0.219 A  
HETATM    6  C   UNL     1      -9.584   8.861  71.610  1.00  0.00    -0.363 A  
HETATM    7  C   UNL     1     -10.744   9.447  71.113  1.00  0.00    -0.417 A  
HETATM    8  C   UNL     1     -10.661  10.040  69.868  1.00  0.00    -0.328 A  
HETATM    9  C   UNL     1      -9.493  10.052  69.100  1.00  0.00    -0.214 A  
HETATM   10  C   UNL     1      -9.739  10.803  67.832  1.00  0.00    -0.167 C  
HETATM   11  N   UNL     1     -11.155  11.138  67.922  1.00  0.00    -0.251 N  
HETATM   12  O   UNL     1     -12.836  10.956  69.536  1.00  0.00    -0.211 OA 
HETATM   13  C   UNL     1     -11.706  10.759  69.133  1.00  0.00    -0.296 C  
ENDROOT
BRANCH  11  14
HETATM   14  C   UNL     1     -11.857  11.994  66.975  1.00  0.00    -0.176 C  
HETATM   15  C   UNL     1     -11.398  11.787  65.536  1.00  0.00    -0.283 C  
HETATM   16  C   UNL     1     -12.335  12.548  64.609  1.00  0.00    -0.547 C  
HETATM   17  C   UNL     1     -12.423  14.010  64.985  1.00  0.00    -0.425 C  
HETATM   18  O   UNL     1     -12.631  14.888  64.152  1.00  0.00    -0.785 OA 
HETATM   19  N   UNL     1     -12.281  14.319  66.315  1.00  0.00    -0.433 N  
HETATM   20  C   UNL     1     -11.765  13.494  67.293  1.00  0.00    -0.383 C  
HETATM   21  H   UNL     1     -12.586  15.247  66.609  1.00  0.00     0.000 HD 
HETATM   22  O   UNL     1     -11.262  13.967  68.308  1.00  0.00    -0.249 OA 
ENDBRANCH  11  14
TORSDOF 1
ENDMDL
MODEL       47
REMARK 921   NORMALIZED FREE ENERGY PREDICTED BY IDOCK:   -5.60 KCAL/MOL
REMARK 922        TOTAL FREE ENERGY PREDICTED BY IDOCK:   -6.27 KCAL/MOL
REMARK 923 INTER-LIGAND FREE ENERGY PREDICTED BY IDOCK:   -6.29 KCAL/MOL
REMARK 924 INTRA-LIGAND FREE ENERGY PREDICTED BY IDOCK:    0.01 KCAL/MOL
REMARK 927      BINDING AFFINITY PREDICTED BY RF-SCORE:    0.00 PKD
ROOT
HETATM    1  N   UNL     1      -9.752  20.563  65.977  1.00  0.00    -0.629 NA 
HETATM    2  C   UNL     1      -8.865  19.622  66.499  1.00  0.00    -0.364 A  
HETATM    3  H1  UNL     1     -10.758  20.396  66.021  1.00  0.00     0.000 HD 
HETATM    4  H2  UNL     1      -9.497  20.743  65.006  1.00  0.00     0.000 HD 
HETATM    5  C   UNL     1      -7.480  19.853  66.438  1.00  0.00    -0.303 A  
HETATM    6  C   UNL     1      -6.554  19.000  67.072  1.00  0.00    -0.200 A  
HETATM    7  C   UNL     1      -6.995  17.918  67.826  1.00  0.00    -0.202 A  
HETATM    8  C   UNL     1      -8.362  17.738  67.923  1.00  0.00    -0.241 A  
HETATM    9  C   UNL     1      -9.292  18.568  67.290  1.00  0.00    -0.286 A  
HETATM   10  C   UNL     1     -10.675  18.117  67.632  1.00  0.00    -0.343 C  
HETATM   11  N   UNL     1     -10.439  16.927  68.439  1.00  0.00    -0.334 N  
HETATM   12  O   UNL     1      -8.580  15.855  69.368  1.00  0.00    -0.256 OA 
HETATM   13  C   UNL     1      -9.092  16.717  68.680  1.00  0.00    -0.245 C  
ENDROOT
BRANCH  11  14
HETATM   14  C   UNL     1     -11.483  16.185  69.132  1.00  0.00    -0.311 C  
HETATM   15  C   UNL     1     -11.318  16.206  70.648  1.00  0.00    -0.394 C  
HETATM   16  C   UNL     1     -12.565  15.607  71.285  1.00  0.00    -0.523 C  
HETATM   17  C   UNL     1     -12.850  14.221  70.751  1.00  0.00    -0.337 C  
HETATM   18  O   UNL     1     -13.401  13.359  71.431  1.00  0.00    -0.291 OA 
HETATM   19  N   UNL     1     -12.483  13.967  69.453  1.00  0.00    -0.451 N  
HETATM   20  C   UNL     1     -11.616  14.720  68.688  1.00  0.00    -0.319 C  
HETATM   21  H   UNL     1     -12.890  13.144  69.011  1.00  0.00     0.000 HD 
HETATM   22  O   UNL     1     -11.005  14.213  67.753  1.00  0.00    -0.255 OA 
ENDBRANCH  11  14
TORSDOF 1
ENDMDL
MODEL       48
REMARK 921   NORMALIZED FREE ENERGY PREDICTED BY IDOCK:   -5.59 KCAL/MOL
REMARK 922        TOTAL FREE ENERGY PREDICTED BY IDOCK:   -6.26 KCAL/MOL
REMARK 923 INTER-LIGAND FREE ENERGY PREDICTED BY IDOCK:   -5.91 KCAL/MOL
REMARK 924 INTRA-LIGAND FREE ENERGY PREDICTED BY IDOCK:   -0.35 KCAL/MOL
REMARK 927      BINDING AFFINITY PREDICTED BY RF-SCORE:    0.00 PKD
ROOT
HETATM    1  N   UNL     1      -8.890  11.657  65.410  1.00  0.00    -0.398 NA 
HETATM    2  C   UNL     1      -9.887  11.746  66.380  1.00  0.00    -0.214 A  
HETATM    3  H1  UNL     1      -8.577  12.497  64.921  1.00  0.00     0.000 HD 
HETATM    4  H2  UNL     1      -9.175  10.967  64.715  1.00  0.00     0.000 HD 
HETATM    5  C   UNL     1     -10.317  10.589  67.053  1.00  0.00    -0.289 A  
HETATM    6  C   UNL     1     -11.221  10.648  68.133  1.00  0.00    -0.366 A  
HETATM    7  C   UNL     1     -11.681  11.874  68.600  1.00  0.00    -0.380 A  
HETATM    8  C   UNL     1     -11.205  13.005  67.965  1.00  0.00    -0.310 A  
HETATM    9  C   UNL     1     -10.318  12.962  66.884  1.00  0.00    -0.247 A  
HETATM   10  C   UNL     1      -9.979  14.355  66.463  1.00  0.00    -0.283 C  
HETATM   11  N   UNL     1     -10.806  15.171  67.343  1.00  0.00    -0.295 N  
HETATM   12  O   UNL     1     -12.199  14.796  69.183  1.00  0.00    -0.262 OA 
HETATM   13  C   UNL     1     -11.487  14.409  68.276  1.00  0.00    -0.305 C  
ENDROOT
BRANCH  11  14
HETATM   14  C   UNL     1     -10.740  16.625  67.416  1.00  0.00    -0.253 C  
HETATM   15  C   UNL     1     -10.484  17.275  66.061  1.00  0.00    -0.285 C  
HETATM   16  C   UNL     1     -10.658  18.781  66.200  1.00  0.00    -0.435 C  
HETATM   17  C   UNL     1      -9.773  19.344  67.290  1.00  0.00    -0.334 C  
HETATM   18  O   UNL     1      -9.324  20.486  67.242  1.00  0.00    -0.395 OA 
HETATM   19  N   UNL     1      -9.506  18.525  68.358  1.00  0.00    -0.327 N  
HETATM   20  C   UNL     1      -9.693  17.159  68.405  1.00  0.00    -0.284 C  
HETATM   21  H   UNL     1      -9.133  18.968  69.198  1.00  0.00     0.000 HD 
HETATM   22  O   UNL     1      -9.036  16.464  69.175  1.00  0.00    -0.250 OA 
ENDBRANCH  11  14
TORSDOF 1
ENDMDL
MODEL       49
REMARK 921   NORMALIZED FREE ENERGY PREDICTED BY IDOCK:   -5.56 KCAL/MOL
REMARK 922        TOTAL FREE ENERGY PREDICTED BY IDOCK:   -6.23 KCAL/MOL
REMARK 923 INTER-LIGAND FREE ENERGY PREDICTED BY IDOCK:   -6.24 KCAL/MOL
REMARK 924 INTRA-LIGAND FREE ENERGY PREDICTED BY IDOCK:    0.01 KCAL/MOL
REMARK 927      BINDING AFFINITY PREDICTED BY RF-SCORE:    0.00 PKD
ROOT
HETATM    1  N   UNL     1      -9.809   8.347  70.075  1.00  0.00    -0.180 NA 
HETATM    2  C   UNL     1     -10.837   9.242  70.372  1.00  0.00    -0.254 A  
HETATM    3  H1  UNL     1      -9.185   8.531  69.288  1.00  0.00     0.000 HD 
HETATM    4  H2  UNL     1     -10.212   7.418  69.957  1.00  0.00     0.000 HD 
HETATM    5  C   UNL     1     -11.696   8.989  71.457  1.00  0.00    -0.415 A  
HETATM    6  C   UNL     1     -12.659   9.927  71.878  1.00  0.00    -0.471 A  
HETATM    7  C   UNL     1     -12.755  11.167  71.254  1.00  0.00    -0.531 A  
HETATM    8  C   UNL     1     -11.866  11.422  70.228  1.00  0.00    -0.438 A  
HETATM    9  C   UNL     1     -10.913  10.496  69.790  1.00  0.00    -0.350 A  
HETATM   10  C   UNL     1     -10.095  11.103  68.697  1.00  0.00    -0.200 C  
HETATM   11  N   UNL     1     -10.719  12.407  68.510  1.00  0.00    -0.233 N  
HETATM   12  O   UNL     1     -12.375  13.660  69.585  1.00  0.00    -0.296 OA 
HETATM   13  C   UNL     1     -11.718  12.647  69.437  1.00  0.00    -0.325 C  
ENDROOT
BRANCH  11  14
HETATM   14  C   UNL     1     -10.199  13.447  67.632  1.00  0.00    -0.228 C  
HETATM   15  C   UNL     1      -9.828  14.723  68.381  1.00  0.00    -0.220 C  
HETATM   16  C   UNL     1      -9.092  15.654  67.426  1.00  0.00    -0.203 C  
HETATM   17  C   UNL     1      -9.904  15.927  66.180  1.00  0.00    -0.317 C  
HETATM   18  O   UNL     1      -9.819  16.986  65.565  1.00  0.00    -0.551 OA 
HETATM   19  N   UNL     1     -10.734  14.924  65.747  1.00  0.00    -0.314 N  
HETATM   20  C   UNL     1     -11.141  13.828  66.480  1.00  0.00    -0.306 C  
HETATM   21  H   UNL     1     -11.084  14.994  64.792  1.00  0.00     0.000 HD 
HETATM   22  O   UNL     1     -12.189  13.250  66.211  1.00  0.00    -0.409 OA 
ENDBRANCH  11  14
TORSDOF 1
ENDMDL
MODEL       50
REMARK 921   NORMALIZED FREE ENERGY PREDICTED BY IDOCK:   -5.50 KCAL/MOL
REMARK 922        TOTAL FREE ENERGY PREDICTED BY IDOCK:   -6.16 KCAL/MOL
REMARK 923 INTER-LIGAND FREE ENERGY PREDICTED BY IDOCK:   -5.80 KCAL/MOL
REMARK 924 INTRA-LIGAND FREE ENERGY PREDICTED BY IDOCK:   -0.36 KCAL/MOL
REMARK 927      BINDING AFFINITY PREDICTED BY RF-SCORE:    0.00 PKD
ROOT
HETATM    1  N   UNL     1     -11.363   6.701  67.332  1.00  0.00    -0.763 NA 
HETATM    2  C   UNL     1     -10.071   7.220  67.246  1.00  0.00    -0.225 A  
HETATM    3  H1  UNL     1     -12.168   7.324  67.263  1.00  0.00     0.000 HD 
HETATM    4  H2  UNL     1     -11.440   6.169  68.199  1.00  0.00     0.000 HD 
HETATM    5  C   UNL     1      -8.962   6.362  67.341  1.00  0.00    -0.109 A  
HETATM    6  C   UNL     1      -7.646   6.818  67.124  1.00  0.00    -0.099 A  
HETATM    7  C   UNL     1      -7.411   8.138  66.756  1.00  0.00    -0.083 A  
HETATM    8  C   UNL     1      -8.515   8.955  66.611  1.00  0.00    -0.122 A  
HETATM    9  C   UNL     1      -9.826   8.520  66.836  1.00  0.00    -0.310 A  
HETATM   10  C   UNL     1     -10.776   9.638  66.554  1.00  0.00     0.026 C  
HETATM   11  N   UNL     1      -9.887  10.748  66.232  1.00  0.00    -0.207 N  
HETATM   12  O   UNL     1      -7.591  11.031  65.894  1.00  0.00    -0.103 OA 
HETATM   13  C   UNL     1      -8.559  10.360  66.196  1.00  0.00    -0.144 C  
ENDROOT
BRANCH  11  14
HETATM   14  C   UNL     1     -10.337  12.048  65.753  1.00  0.00    -0.254 C  
HETATM   15  C   UNL     1     -11.600  12.532  66.455  1.00  0.00    -0.447 C  
HETATM   16  C   UNL     1     -11.859  13.979  66.054  1.00  0.00    -0.401 C  
HETATM   17  C   UNL     1     -11.934  14.135  64.552  1.00  0.00    -0.458 C  
HETATM   18  O   UNL     1     -12.630  14.993  64.018  1.00  0.00    -0.817 OA 
HETATM   19  N   UNL     1     -11.166  13.280  63.800  1.00  0.00    -0.577 N  
HETATM   20  C   UNL     1     -10.581  12.110  64.237  1.00  0.00    -0.345 C  
HETATM   21  H   UNL     1     -11.013  13.535  62.825  1.00  0.00     0.000 HD 
HETATM   22  O   UNL     1     -10.316  11.210  63.446  1.00  0.00    -0.359 OA 
ENDBRANCH  11  14
TORSDOF 1
ENDMDL
MODEL       51
REMARK 921   NORMALIZED FREE ENERGY PREDICTED BY IDOCK:   -5.49 KCAL/MOL
REMARK 922        TOTAL FREE ENERGY PREDICTED BY IDOCK:   -6.15 KCAL/MOL
REMARK 923 INTER-LIGAND FREE ENERGY PREDICTED BY IDOCK:   -6.18 KCAL/MOL
REMARK 924 INTRA-LIGAND FREE ENERGY PREDICTED BY IDOCK:    0.02 KCAL/MOL
REMARK 927      BINDING AFFINITY PREDICTED BY RF-SCORE:    0.00 PKD
ROOT
HETATM    1  N   UNL     1     -11.733  12.019  67.521  1.00  0.00    -0.517 NA 
HETATM    2  C   UNL     1     -11.657  12.881  66.428  1.00  0.00    -0.371 A  
HETATM    3  H1  UNL     1     -11.183  12.209  68.360  1.00  0.00     0.000 HD 
HETATM    4  H2  UNL     1     -11.518  11.074  67.203  1.00  0.00     0.000 HD 
HETATM    5  C   UNL     1     -12.414  12.619  65.273  1.00  0.00    -0.483 A  
HETATM    6  C   UNL     1     -12.476  13.530  64.200  1.00  0.00    -0.301 A  
HETATM    7  C   UNL     1     -11.819  14.753  64.276  1.00  0.00    -0.335 A  
HETATM    8  C   UNL     1     -11.127  15.021  65.441  1.00  0.00    -0.377 A  
HETATM    9  C   UNL     1     -11.045  14.121  66.509  1.00  0.00    -0.318 A  
HETATM   10  C   UNL     1     -10.257  14.737  67.619  1.00  0.00    -0.232 C  
HETATM   11  N   UNL     1      -9.841  16.014  67.053  1.00  0.00    -0.232 N  
HETATM   12  O   UNL     1     -10.289  17.227  65.105  1.00  0.00    -0.546 OA 
HETATM   13  C   UNL     1     -10.390  16.235  65.801  1.00  0.00    -0.374 C  
ENDROOT
BRANCH  11  14
HETATM   14  C   UNL     1      -9.148  17.056  67.799  1.00  0.00    -0.228 C  
HETATM   15  C   UNL     1      -9.865  18.400  67.746  1.00  0.00    -0.336 C  
HETATM   16  C   UNL     1      -9.195  19.351  68.729  1.00  0.00    -0.422 C  
HETATM   17  C   UNL     1      -7.712  19.474  68.460  1.00  0.00    -0.354 C  
HETATM   18  O   UNL     1      -7.088  20.503  68.703  1.00  0.00    -0.138 OA 
HETATM   19  N   UNL     1      -7.080  18.369  67.947  1.00  0.00    -0.221 N  
HETATM   20  C   UNL     1      -7.690  17.277  67.366  1.00  0.00    -0.176 C  
HETATM   21  H   UNL     1      -6.062  18.353  68.001  1.00  0.00     0.000 HD 
HETATM   22  O   UNL     1      -7.086  16.580  66.557  1.00  0.00    -0.218 OA 
ENDBRANCH  11  14
TORSDOF 1
ENDMDL
MODEL       52
REMARK 921   NORMALIZED FREE ENERGY PREDICTED BY IDOCK:   -5.43 KCAL/MOL
REMARK 922        TOTAL FREE ENERGY PREDICTED BY IDOCK:   -6.10 KCAL/MOL
REMARK 923 INTER-LIGAND FREE ENERGY PREDICTED BY IDOCK:   -5.73 KCAL/MOL
REMARK 924 INTRA-LIGAND FREE ENERGY PREDICTED BY IDOCK:   -0.36 KCAL/MOL
REMARK 927      BINDING AFFINITY PREDICTED BY RF-SCORE:    0.00 PKD
ROOT
HETATM    1  N   UNL     1     -14.157   8.849  73.228  1.00  0.00    -1.248 NA 
HETATM    2  C   UNL     1     -13.285   9.315  72.244  1.00  0.00    -0.460 A  
HETATM    3  H1  UNL     1     -14.068   7.894  73.577  1.00  0.00     0.000 HD 
HETATM    4  H2  UNL     1     -15.114   8.987  72.904  1.00  0.00     0.000 HD 
HETATM    5  C   UNL     1     -13.407  10.631  71.765  1.00  0.00    -0.437 A  
HETATM    6  C   UNL     1     -12.469  11.189  70.874  1.00  0.00    -0.509 A  
HETATM    7  C   UNL     1     -11.354  10.458  70.477  1.00  0.00    -0.424 A  
HETATM    8  C   UNL     1     -11.218   9.188  71.002  1.00  0.00    -0.380 A  
HETATM    9  C   UNL     1     -12.148   8.616  71.877  1.00  0.00    -0.422 A  
HETATM   10  C   UNL     1     -11.680   7.255  72.280  1.00  0.00    -0.265 C  
HETATM   11  N   UNL     1     -10.460   7.087  71.500  1.00  0.00    -0.204 N  
HETATM   12  O   UNL     1      -9.145   8.426  70.105  1.00  0.00    -0.146 OA 
HETATM   13  C   UNL     1     -10.130   8.229  70.791  1.00  0.00    -0.190 C  
ENDROOT
BRANCH  11  14
HETATM   14  C   UNL     1      -9.548   5.959  71.637  1.00  0.00    -0.152 C  
HETATM   15  C   UNL     1     -10.272   4.623  71.755  1.00  0.00    -0.242 C  
HETATM   16  C   UNL     1      -9.247   3.500  71.664  1.00  0.00    -0.188 C  
HETATM   17  C   UNL     1      -8.154   3.661  72.697  1.00  0.00    -0.077 C  
HETATM   18  O   UNL     1      -7.570   2.698  73.186  1.00  0.00    -0.044 OA 
HETATM   19  N   UNL     1      -7.822   4.944  73.056  1.00  0.00    -0.093 N  
HETATM   20  C   UNL     1      -8.572   6.077  72.818  1.00  0.00    -0.124 C  
HETATM   21  H   UNL     1      -6.938   5.072  73.546  1.00  0.00     0.000 HD 
HETATM   22  O   UNL     1      -8.452   7.068  73.532  1.00  0.00    -0.123 OA 
ENDBRANCH  11  14
TORSDOF 1
ENDMDL
MODEL       53
REMARK 921   NORMALIZED FREE ENERGY PREDICTED BY IDOCK:   -5.42 KCAL/MOL
REMARK 922        TOTAL FREE ENERGY PREDICTED BY IDOCK:   -6.08 KCAL/MOL
REMARK 923 INTER-LIGAND FREE ENERGY PREDICTED BY IDOCK:   -5.74 KCAL/MOL
REMARK 924 INTRA-LIGAND FREE ENERGY PREDICTED BY IDOCK:   -0.34 KCAL/MOL
REMARK 927      BINDING AFFINITY PREDICTED BY RF-SCORE:    0.00 PKD
ROOT
HETATM    1  N   UNL     1     -13.243  12.427  64.412  1.00  0.00    -0.778 NA 
HETATM    2  C   UNL     1     -12.203  13.178  64.960  1.00  0.00    -0.440 A  
HETATM    3  H1  UNL     1     -13.432  11.487  64.761  1.00  0.00     0.000 HD 
HETATM    4  H2  UNL     1     -13.106  12.375  63.403  1.00  0.00     0.000 HD 
HETATM    5  C   UNL     1     -11.942  14.473  64.480  1.00  0.00    -0.482 A  
HETATM    6  C   UNL     1     -10.995  15.318  65.091  1.00  0.00    -0.428 A  
HETATM    7  C   UNL     1     -10.317  14.905  66.234  1.00  0.00    -0.302 A  
HETATM    8  C   UNL     1     -10.627  13.653  66.728  1.00  0.00    -0.273 A  
HETATM    9  C   UNL     1     -11.555  12.798  66.124  1.00  0.00    -0.431 A  
HETATM   10  C   UNL     1     -11.676  11.546  66.931  1.00  0.00     0.050 C  
HETATM   11  N   UNL     1     -10.687  11.741  67.984  1.00  0.00    -0.200 N  
HETATM   12  O   UNL     1      -9.296  13.479  68.698  1.00  0.00    -0.151 OA 
HETATM   13  C   UNL     1     -10.102  12.994  67.927  1.00  0.00    -0.235 C  
ENDROOT
BRANCH  11  14
HETATM   14  C   UNL     1     -10.507  10.843  69.117  1.00  0.00    -0.221 C  
HETATM   15  C   UNL     1     -10.380   9.382  68.701  1.00  0.00    -0.227 C  
HETATM   16  C   UNL     1      -9.972   8.560  69.917  1.00  0.00    -0.189 C  
HETATM   17  C   UNL     1     -10.935   8.754  71.066  1.00  0.00    -0.268 C  
HETATM   18  O   UNL     1     -11.157   7.869  71.888  1.00  0.00    -0.246 OA 
HETATM   19  N   UNL     1     -11.543   9.981  71.168  1.00  0.00    -0.377 N  
HETATM   20  C   UNL     1     -11.613  10.940  70.179  1.00  0.00    -0.338 C  
HETATM   21  H   UNL     1     -11.985  10.204  72.059  1.00  0.00     0.000 HD 
HETATM   22  O   UNL     1     -12.517  11.770  70.177  1.00  0.00    -0.205 OA 
ENDBRANCH  11  14
TORSDOF 1
ENDMDL
MODEL       54
REMARK 921   NORMALIZED FREE ENERGY PREDICTED BY IDOCK:   -5.37 KCAL/MOL
REMARK 922        TOTAL FREE ENERGY PREDICTED BY IDOCK:   -6.03 KCAL/MOL
REMARK 923 INTER-LIGAND FREE ENERGY PREDICTED BY IDOCK:   -6.09 KCAL/MOL
REMARK 924 INTRA-LIGAND FREE ENERGY PREDICTED BY IDOCK:    0.06 KCAL/MOL
REMARK 927      BINDING AFFINITY PREDICTED BY RF-SCORE:    0.00 PKD
ROOT
HETATM    1  N   UNL     1      -9.806  20.412  66.083  1.00  0.00    -0.638 NA 
HETATM    2  C   UNL     1      -8.884  19.688  66.839  1.00  0.00    -0.331 A  
HETATM    3  H1  UNL     1     -10.627  19.946  65.697  1.00  0.00     0.000 HD 
HETATM    4  H2  UNL     1      -9.308  20.872  65.321  1.00  0.00     0.000 HD 
HETATM    5  C   UNL     1      -7.753  20.330  67.371  1.00  0.00    -0.352 A  
HETATM    6  C   UNL     1      -6.869  19.675  68.251  1.00  0.00    -0.324 A  
HETATM    7  C   UNL     1      -7.122  18.370  68.661  1.00  0.00    -0.293 A  
HETATM    8  C   UNL     1      -8.269  17.772  68.175  1.00  0.00    -0.260 A  
HETATM    9  C   UNL     1      -9.148  18.406  67.291  1.00  0.00    -0.268 A  
HETATM   10  C   UNL     1     -10.298  17.497  66.997  1.00  0.00    -0.324 C  
HETATM   11  N   UNL     1      -9.947  16.283  67.723  1.00  0.00    -0.242 N  
HETATM   12  O   UNL     1      -8.284  15.638  69.235  1.00  0.00    -0.227 OA 
HETATM   13  C   UNL     1      -8.795  16.438  68.475  1.00  0.00    -0.224 C  
ENDROOT
BRANCH  11  14
HETATM   14  C   UNL     1     -10.822  15.127  67.861  1.00  0.00    -0.291 C  
HETATM   15  C   UNL     1     -10.989  14.680  69.309  1.00  0.00    -0.278 C  
HETATM   16  C   UNL     1     -12.086  13.625  69.372  1.00  0.00    -0.364 C  
HETATM   17  C   UNL     1     -11.801  12.470  68.438  1.00  0.00    -0.304 C  
HETATM   18  O   UNL     1     -12.179  11.327  68.678  1.00  0.00    -0.562 OA 
HETATM   19  N   UNL     1     -11.112  12.759  67.286  1.00  0.00    -0.265 N  
HETATM   20  C   UNL     1     -10.390  13.907  67.033  1.00  0.00    -0.267 C  
HETATM   21  H   UNL     1     -11.137  12.059  66.546  1.00  0.00     0.000 HD 
HETATM   22  O   UNL     1      -9.471  13.901  66.221  1.00  0.00    -0.273 OA 
ENDBRANCH  11  14
TORSDOF 1
ENDMDL
MODEL       55
REMARK 921   NORMALIZED FREE ENERGY PREDICTED BY IDOCK:   -5.30 KCAL/MOL
REMARK 922        TOTAL FREE ENERGY PREDICTED BY IDOCK:   -5.95 KCAL/MOL
REMARK 923 INTER-LIGAND FREE ENERGY PREDICTED BY IDOCK:   -5.96 KCAL/MOL
REMARK 924 INTRA-LIGAND FREE ENERGY PREDICTED BY IDOCK:    0.01 KCAL/MOL
REMARK 927      BINDING AFFINITY PREDICTED BY RF-SCORE:    0.00 PKD
ROOT
HETATM    1  N   UNL     1     -13.023  14.630  70.404  1.00  0.00    -0.552 NA 
HETATM    2  C   UNL     1     -12.114  14.254  69.416  1.00  0.00    -0.318 A  
HETATM    3  H1  UNL     1     -12.920  15.527  70.879  1.00  0.00     0.000 HD 
HETATM    4  H2  UNL     1     -13.056  13.894  71.110  1.00  0.00     0.000 HD 
HETATM    5  C   UNL     1     -12.257  13.018  68.762  1.00  0.00    -0.047 A  
HETATM    6  C   UNL     1     -11.447  12.657  67.667  1.00  0.00    -0.390 A  
HETATM    7  C   UNL     1     -10.503  13.546  67.165  1.00  0.00    -0.256 A  
HETATM    8  C   UNL     1     -10.414  14.779  67.782  1.00  0.00    -0.254 A  
HETATM    9  C   UNL     1     -11.202  15.147  68.878  1.00  0.00    -0.292 A  
HETATM   10  C   UNL     1     -10.879  16.552  69.272  1.00  0.00    -0.326 C  
HETATM   11  N   UNL     1      -9.798  16.905  68.361  1.00  0.00    -0.254 N  
HETATM   12  O   UNL     1      -8.760  15.928  66.508  1.00  0.00    -0.257 OA 
HETATM   13  C   UNL     1      -9.547  15.908  67.434  1.00  0.00    -0.221 C  
ENDROOT
BRANCH  11  14
HETATM   14  C   UNL     1      -9.215  18.237  68.256  1.00  0.00    -0.309 C  
HETATM   15  C   UNL     1      -9.392  18.852  66.873  1.00  0.00    -0.333 C  
HETATM   16  C   UNL     1      -8.959  20.312  66.928  1.00  0.00    -0.424 C  
HETATM   17  C   UNL     1      -7.547  20.454  67.450  1.00  0.00    -0.326 C  
HETATM   18  O   UNL     1      -6.809  21.369  67.098  1.00  0.00    -0.552 OA 
HETATM   19  N   UNL     1      -7.125  19.518  68.362  1.00  0.00    -0.301 N  
HETATM   20  C   UNL     1      -7.724  18.302  68.620  1.00  0.00    -0.302 C  
HETATM   21  H   UNL     1      -6.290  19.744  68.901  1.00  0.00     0.000 HD 
HETATM   22  O   UNL     1      -7.072  17.370  69.081  1.00  0.00    -0.245 OA 
ENDBRANCH  11  14
TORSDOF 1
ENDMDL
MODEL       56
REMARK 921   NORMALIZED FREE ENERGY PREDICTED BY IDOCK:   -5.22 KCAL/MOL
REMARK 922        TOTAL FREE ENERGY PREDICTED BY IDOCK:   -5.87 KCAL/MOL
REMARK 923 INTER-LIGAND FREE ENERGY PREDICTED BY IDOCK:   -6.53 KCAL/MOL
REMARK 924 INTRA-LIGAND FREE ENERGY PREDICTED BY IDOCK:    0.67 KCAL/MOL
REMARK 927      BINDING AFFINITY PREDICTED BY RF-SCORE:    0.00 PKD
ROOT
HETATM    1  N   UNL     1      -8.133  18.004  69.145  1.00  0.00    -0.020 NA 
HETATM    2  C   UNL     1      -9.040  18.434  68.177  1.00  0.00    -0.309 A  
HETATM    3  H1  UNL     1      -7.948  17.007  69.263  1.00  0.00     0.000 HD 
HETATM    4  H2  UNL     1      -8.415  18.388  70.047  1.00  0.00     0.000 HD 
HETATM    5  C   UNL     1      -9.294  19.807  68.015  1.00  0.00    -0.444 A  
HETATM    6  C   UNL     1     -10.095  20.297  66.964  1.00  0.00    -0.567 A  
HETATM    7  C   UNL     1     -10.624  19.427  66.017  1.00  0.00    -0.573 A  
HETATM    8  C   UNL     1     -10.317  18.087  66.158  1.00  0.00    -0.368 A  
HETATM    9  C   UNL     1      -9.535  17.585  67.202  1.00  0.00    -0.259 A  
HETATM   10  C   UNL     1      -9.369  16.109  67.034  1.00  0.00    -0.218 C  
HETATM   11  N   UNL     1     -10.184  15.822  65.861  1.00  0.00    -0.330 N  
HETATM   12  O   UNL     1     -11.359  17.070  64.271  1.00  0.00    -1.191 OA 
HETATM   13  C   UNL     1     -10.701  16.971  65.288  1.00  0.00    -0.096 C  
ENDROOT
BRANCH  11  14
HETATM   14  C   UNL     1     -10.249  14.523  65.205  1.00  0.00    -0.389 C  
HETATM   15  C   UNL     1     -11.676  14.008  65.052  1.00  0.00    -0.366 C  
HETATM   16  C   UNL     1     -11.658  12.770  64.164  1.00  0.00    -0.456 C  
HETATM   17  C   UNL     1     -10.714  11.717  64.699  1.00  0.00    -0.315 C  
HETATM   18  O   UNL     1     -10.908  10.517  64.524  1.00  0.00    -0.008 OA 
HETATM   19  N   UNL     1      -9.607  12.161  65.379  1.00  0.00    -0.411 N  
HETATM   20  C   UNL     1      -9.419  13.428  65.891  1.00  0.00    -0.023 C  
HETATM   21  H   UNL     1      -8.852  11.491  65.518  1.00  0.00     0.000 HD 
HETATM   22  O   UNL     1      -8.657  13.613  66.835  1.00  0.00    -0.194 OA 
ENDBRANCH  11  14
TORSDOF 1
ENDMDL
MODEL       57
REMARK 921   NORMALIZED FREE ENERGY PREDICTED BY IDOCK:   -5.21 KCAL/MOL
REMARK 922        TOTAL FREE ENERGY PREDICTED BY IDOCK:   -5.86 KCAL/MOL
REMARK 923 INTER-LIGAND FREE ENERGY PREDICTED BY IDOCK:   -6.03 KCAL/MOL
REMARK 924 INTRA-LIGAND FREE ENERGY PREDICTED BY IDOCK:    0.17 KCAL/MOL
REMARK 927      BINDING AFFINITY PREDICTED BY RF-SCORE:    0.00 PKD
ROOT
HETATM    1  N   UNL     1     -12.712  12.428  63.503  1.00  0.00    -0.768 NA 
HETATM    2  C   UNL     1     -11.665  12.154  64.382  1.00  0.00    -0.355 A  
HETATM    3  H1  UNL     1     -13.255  13.285  63.608  1.00  0.00     0.000 HD 
HETATM    4  H2  UNL     1     -13.355  11.636  63.510  1.00  0.00     0.000 HD 
HETATM    5  C   UNL     1     -10.916  10.973  64.237  1.00  0.00    -0.148 A  
HETATM    6  C   UNL     1      -9.767  10.719  65.012  1.00  0.00    -0.323 A  
HETATM    7  C   UNL     1      -9.308  11.666  65.921  1.00  0.00    -0.232 A  
HETATM    8  C   UNL     1     -10.021  12.846  66.011  1.00  0.00    -0.275 A  
HETATM    9  C   UNL     1     -11.171  13.107  65.258  1.00  0.00    -0.315 A  
HETATM   10  C   UNL     1     -11.669  14.481  65.570  1.00  0.00    -0.343 C  
HETATM   11  N   UNL     1     -10.752  14.930  66.611  1.00  0.00    -0.306 N  
HETATM   12  O   UNL     1      -8.789  14.130  67.597  1.00  0.00    -0.175 OA 
HETATM   13  C   UNL     1      -9.738  14.018  66.845  1.00  0.00    -0.271 C  
ENDROOT
BRANCH  11  14
HETATM   14  C   UNL     1     -10.738  16.277  67.165  1.00  0.00    -0.247 C  
HETATM   15  C   UNL     1      -9.531  17.091  66.711  1.00  0.00    -0.270 C  
HETATM   16  C   UNL     1      -9.721  18.536  67.152  1.00  0.00    -0.315 C  
HETATM   17  C   UNL     1      -9.960  18.636  68.642  1.00  0.00    -0.388 C  
HETATM   18  O   UNL     1      -9.610  19.614  69.296  1.00  0.00    -0.355 OA 
HETATM   19  N   UNL     1     -10.611  17.584  69.238  1.00  0.00    -0.379 N  
HETATM   20  C   UNL     1     -10.795  16.328  68.700  1.00  0.00    -0.322 C  
HETATM   21  H   UNL     1     -10.997  17.748  70.168  1.00  0.00     0.000 HD 
HETATM   22  O   UNL     1     -10.964  15.354  69.428  1.00  0.00    -0.243 OA 
ENDBRANCH  11  14
TORSDOF 1
ENDMDL
MODEL       58
REMARK 921   NORMALIZED FREE ENERGY PREDICTED BY IDOCK:   -5.19 KCAL/MOL
REMARK 922        TOTAL FREE ENERGY PREDICTED BY IDOCK:   -5.84 KCAL/MOL
REMARK 923 INTER-LIGAND FREE ENERGY PREDICTED BY IDOCK:   -5.48 KCAL/MOL
REMARK 924 INTRA-LIGAND FREE ENERGY PREDICTED BY IDOCK:   -0.36 KCAL/MOL
REMARK 927      BINDING AFFINITY PREDICTED BY RF-SCORE:    0.00 PKD
ROOT
HETATM    1  N   UNL     1     -12.522  11.069  68.916  1.00  0.00    -0.652 NA 
HETATM    2  C   UNL     1     -11.161  11.083  68.610  1.00  0.00    -0.263 A  
HETATM    3  H1  UNL     1     -13.012  11.944  69.104  1.00  0.00     0.000 HD 
HETATM    4  H2  UNL     1     -12.670  10.440  69.705  1.00  0.00     0.000 HD 
HETATM    5  C   UNL     1     -10.487   9.878  68.351  1.00  0.00    -0.239 A  
HETATM    6  C   UNL     1      -9.150   9.853  67.906  1.00  0.00    -0.135 A  
HETATM    7  C   UNL     1      -8.467  11.040  67.661  1.00  0.00    -0.121 A  
HETATM    8  C   UNL     1      -9.162  12.216  67.866  1.00  0.00    -0.188 A  
HETATM    9  C   UNL     1     -10.485  12.256  68.320  1.00  0.00    -0.236 A  
HETATM   10  C   UNL     1     -10.941  13.677  68.396  1.00  0.00    -0.262 C  
HETATM   11  N   UNL     1      -9.745  14.423  68.024  1.00  0.00    -0.215 N  
HETATM   12  O   UNL     1      -7.610  13.907  67.224  1.00  0.00    -0.160 OA 
HETATM   13  C   UNL     1      -8.706  13.591  67.647  1.00  0.00    -0.194 C  
ENDROOT
BRANCH  11  14
HETATM   14  C   UNL     1      -9.708  15.865  67.820  1.00  0.00    -0.220 C  
HETATM   15  C   UNL     1     -10.520  16.631  68.859  1.00  0.00    -0.322 C  
HETATM   16  C   UNL     1     -10.238  18.119  68.701  1.00  0.00    -0.382 C  
HETATM   17  C   UNL     1     -10.509  18.590  67.290  1.00  0.00    -0.419 C  
HETATM   18  O   UNL     1     -10.881  19.734  67.043  1.00  0.00    -0.468 OA 
HETATM   19  N   UNL     1     -10.300  17.683  66.281  1.00  0.00    -0.360 N  
HETATM   20  C   UNL     1     -10.171  16.317  66.427  1.00  0.00    -0.313 C  
HETATM   21  H   UNL     1     -10.233  18.053  65.334  1.00  0.00     0.000 HD 
HETATM   22  O   UNL     1     -10.438  15.561  65.497  1.00  0.00    -0.329 OA 
ENDBRANCH  11  14
TORSDOF 1
ENDMDL
MODEL       59
REMARK 921   NORMALIZED FREE ENERGY PREDICTED BY IDOCK:   -5.19 KCAL/MOL
REMARK 922        TOTAL FREE ENERGY PREDICTED BY IDOCK:   -5.84 KCAL/MOL
REMARK 923 INTER-LIGAND FREE ENERGY PREDICTED BY IDOCK:   -5.84 KCAL/MOL
REMARK 924 INTRA-LIGAND FREE ENERGY PREDICTED BY IDOCK:    0.01 KCAL/MOL
REMARK 927      BINDING AFFINITY PREDICTED BY RF-SCORE:    0.00 PKD
ROOT
HETATM    1  N   UNL     1     -12.641  14.522  63.525  1.00  0.00    -0.977 NA 
HETATM    2  C   UNL     1     -11.527  14.578  64.363  1.00  0.00    -0.272 A  
HETATM    3  H1  UNL     1     -12.945  13.628  63.140  1.00  0.00     0.000 HD 
HETATM    4  H2  UNL     1     -12.496  15.173  62.753  1.00  0.00     0.000 HD 
HETATM    5  C   UNL     1     -11.108  15.811  64.893  1.00  0.00    -0.411 A  
HETATM    6  C   UNL     1     -10.077  15.899  65.849  1.00  0.00    -0.376 A  
HETATM    7  C   UNL     1      -9.469  14.747  66.338  1.00  0.00    -0.328 A  
HETATM    8  C   UNL     1      -9.932  13.540  65.850  1.00  0.00    -0.295 A  
HETATM    9  C   UNL     1     -10.946  13.438  64.891  1.00  0.00    -0.353 A  
HETATM   10  C   UNL     1     -11.226  11.996  64.616  1.00  0.00    -0.326 C  
HETATM   11  N   UNL     1     -10.237  11.309  65.438  1.00  0.00    -0.258 N  
HETATM   12  O   UNL     1      -8.661  11.922  67.052  1.00  0.00    -0.164 OA 
HETATM   13  C   UNL     1      -9.507  12.187  66.220  1.00  0.00    -0.232 C  
ENDROOT
BRANCH  11  14
HETATM   14  C   UNL     1     -10.182   9.865  65.620  1.00  0.00    -0.159 C  
HETATM   15  C   UNL     1     -10.356   9.446  67.076  1.00  0.00    -0.322 C  
HETATM   16  C   UNL     1     -10.510   7.932  67.134  1.00  0.00    -0.414 C  
HETATM   17  C   UNL     1      -9.352   7.229  66.462  1.00  0.00    -0.170 C  
HETATM   18  O   UNL     1      -8.961   6.122  66.823  1.00  0.00    -0.118 OA 
HETATM   19  N   UNL     1      -8.761   7.876  65.405  1.00  0.00    -0.339 N  
HETATM   20  C   UNL     1      -8.898   9.211  65.087  1.00  0.00    -0.200 C  
HETATM   21  H   UNL     1      -8.164   7.316  64.797  1.00  0.00     0.000 HD 
HETATM   22  O   UNL     1      -8.027   9.793  64.447  1.00  0.00    -0.130 OA 
ENDBRANCH  11  14
TORSDOF 1
ENDMDL
MODEL       60
REMARK 921   NORMALIZED FREE ENERGY PREDICTED BY IDOCK:   -5.18 KCAL/MOL
REMARK 922        TOTAL FREE ENERGY PREDICTED BY IDOCK:   -5.83 KCAL/MOL
REMARK 923 INTER-LIGAND FREE ENERGY PREDICTED BY IDOCK:   -5.84 KCAL/MOL
REMARK 924 INTRA-LIGAND FREE ENERGY PREDICTED BY IDOCK:    0.01 KCAL/MOL
REMARK 927      BINDING AFFINITY PREDICTED BY RF-SCORE:    0.00 PKD
ROOT
HETATM    1  N   UNL     1     -10.118  13.066  64.261  1.00  0.00    -0.617 NA 
HETATM    2  C   UNL     1     -10.629  13.251  65.545  1.00  0.00    -0.287 A  
HETATM    3  H1  UNL     1      -9.521  13.779  63.842  1.00  0.00     0.000 HD 
HETATM    4  H2  UNL     1     -10.896  12.884  63.627  1.00  0.00     0.000 HD 
HETATM    5  C   UNL     1     -11.452  12.268  66.122  1.00  0.00    -0.429 A  
HETATM    6  C   UNL     1     -11.878  12.346  67.463  1.00  0.00    -0.354 A  
HETATM    7  C   UNL     1     -11.450  13.389  68.278  1.00  0.00    -0.350 A  
HETATM    8  C   UNL     1     -10.596  14.315  67.713  1.00  0.00    -0.253 A  
HETATM    9  C   UNL     1     -10.174  14.258  66.380  1.00  0.00    -0.295 A  
HETATM   10  C   UNL     1      -9.232  15.385  66.108  1.00  0.00    -0.327 C  
HETATM   11  N   UNL     1      -9.224  16.115  67.369  1.00  0.00    -0.206 N  
HETATM   12  O   UNL     1     -10.098  15.795  69.514  1.00  0.00    -0.245 OA 
HETATM   13  C   UNL     1      -9.965  15.476  68.348  1.00  0.00    -0.214 C  
ENDROOT
BRANCH  11  14
HETATM   14  C   UNL     1      -8.346  17.241  67.660  1.00  0.00    -0.205 C  
HETATM   15  C   UNL     1      -7.398  16.966  68.822  1.00  0.00    -0.227 C  
HETATM   16  C   UNL     1      -6.381  18.097  68.901  1.00  0.00    -0.224 C  
HETATM   17  C   UNL     1      -7.056  19.445  69.010  1.00  0.00    -0.362 C  
HETATM   18  O   UNL     1      -6.541  20.387  69.606  1.00  0.00    -0.236 OA 
HETATM   19  N   UNL     1      -8.273  19.582  68.390  1.00  0.00    -0.342 N  
HETATM   20  C   UNL     1      -9.084  18.557  67.950  1.00  0.00    -0.290 C  
HETATM   21  H   UNL     1      -8.611  20.533  68.241  1.00  0.00     0.000 HD 
HETATM   22  O   UNL     1     -10.295  18.723  67.835  1.00  0.00    -0.376 OA 
ENDBRANCH  11  14
TORSDOF 1
ENDMDL
MODEL       61
REMARK 921   NORMALIZED FREE ENERGY PREDICTED BY IDOCK:   -5.15 KCAL/MOL
REMARK 922        TOTAL FREE ENERGY PREDICTED BY IDOCK:   -5.80 KCAL/MOL
REMARK 923 INTER-LIGAND FREE ENERGY PREDICTED BY IDOCK:   -5.43 KCAL/MOL
REMARK 924 INTRA-LIGAND FREE ENERGY PREDICTED BY IDOCK:   -0.36 KCAL/MOL
REMARK 927      BINDING AFFINITY PREDICTED BY RF-SCORE:    0.00 PKD
ROOT
HETATM    1  N   UNL     1      -7.377  15.084  67.040  1.00  0.00    -0.299 NA 
HETATM    2  C   UNL     1      -8.694  15.063  66.582  1.00  0.00    -0.254 A  
HETATM    3  H1  UNL     1      -6.987  14.266  67.510  1.00  0.00     0.000 HD 
HETATM    4  H2  UNL     1      -7.259  15.893  67.649  1.00  0.00     0.000 HD 
HETATM    5  C   UNL     1      -9.231  16.189  65.935  1.00  0.00    -0.296 A  
HETATM    6  C   UNL     1     -10.507  16.167  65.337  1.00  0.00    -0.396 A  
HETATM    7  C   UNL     1     -11.260  14.998  65.328  1.00  0.00    -0.368 A  
HETATM    8  C   UNL     1     -10.695  13.884  65.918  1.00  0.00    -0.286 A  
HETATM    9  C   UNL     1      -9.436  13.894  66.527  1.00  0.00    -0.288 A  
HETATM   10  C   UNL     1      -9.115  12.523  67.028  1.00  0.00    -0.213 C  
HETATM   11  N   UNL     1     -10.325  11.773  66.719  1.00  0.00    -0.214 N  
HETATM   12  O   UNL     1     -12.312  12.172  65.553  1.00  0.00    -0.548 OA 
HETATM   13  C   UNL     1     -11.244  12.528  66.012  1.00  0.00    -0.315 C  
ENDROOT
BRANCH  11  14
HETATM   14  C   UNL     1     -10.466  10.333  66.897  1.00  0.00    -0.229 C  
HETATM   15  C   UNL     1      -9.854   9.835  68.201  1.00  0.00    -0.170 C  
HETATM   16  C   UNL     1     -10.247   8.377  68.401  1.00  0.00    -0.239 C  
HETATM   17  C   UNL     1      -9.852   7.528  67.214  1.00  0.00    -0.179 C  
HETATM   18  O   UNL     1      -9.557   6.342  67.329  1.00  0.00    -0.119 OA 
HETATM   19  N   UNL     1      -9.859   8.138  65.984  1.00  0.00    -0.453 N  
HETATM   20  C   UNL     1      -9.882   9.497  65.748  1.00  0.00    -0.293 C  
HETATM   21  H   UNL     1      -9.845   7.529  65.167  1.00  0.00     0.000 HD 
HETATM   22  O   UNL     1      -9.441   9.957  64.699  1.00  0.00    -0.276 OA 
ENDBRANCH  11  14
TORSDOF 1
ENDMDL
MODEL       62
REMARK 921   NORMALIZED FREE ENERGY PREDICTED BY IDOCK:   -5.09 KCAL/MOL
REMARK 922        TOTAL FREE ENERGY PREDICTED BY IDOCK:   -5.73 KCAL/MOL
REMARK 923 INTER-LIGAND FREE ENERGY PREDICTED BY IDOCK:   -5.97 KCAL/MOL
REMARK 924 INTRA-LIGAND FREE ENERGY PREDICTED BY IDOCK:    0.24 KCAL/MOL
REMARK 927      BINDING AFFINITY PREDICTED BY RF-SCORE:    0.00 PKD
ROOT
HETATM    1  N   UNL     1      -6.746   9.870  70.117  1.00  0.00    -0.096 NA 
HETATM    2  C   UNL     1      -8.118   9.663  70.253  1.00  0.00    -0.183 A  
HETATM    3  H1  UNL     1      -6.381  10.345  69.291  1.00  0.00     0.000 HD 
HETATM    4  H2  UNL     1      -6.273   8.970  70.205  1.00  0.00     0.000 HD 
HETATM    5  C   UNL     1      -8.620   9.008  71.391  1.00  0.00    -0.178 A  
HETATM    6  C   UNL     1     -10.003   8.897  71.638  1.00  0.00    -0.397 A  
HETATM    7  C   UNL     1     -10.922   9.485  70.774  1.00  0.00    -0.389 A  
HETATM    8  C   UNL     1     -10.411  10.175  69.692  1.00  0.00    -0.278 A  
HETATM    9  C   UNL     1      -9.042  10.281  69.427  1.00  0.00    -0.203 A  
HETATM   10  C   UNL     1      -8.835  11.121  68.208  1.00  0.00    -0.155 C  
HETATM   11  N   UNL     1     -10.197  11.405  67.774  1.00  0.00    -0.178 N  
HETATM   12  O   UNL     1     -12.349  11.048  68.615  1.00  0.00    -0.539 OA 
HETATM   13  C   UNL     1     -11.141  10.917  68.660  1.00  0.00    -0.252 C  
ENDROOT
BRANCH  11  14
HETATM   14  C   UNL     1     -10.540  12.310  66.685  1.00  0.00    -0.229 C  
HETATM   15  C   UNL     1     -11.774  13.154  66.983  1.00  0.00    -0.431 C  
HETATM   16  C   UNL     1     -11.915  14.214  65.899  1.00  0.00    -0.420 C  
HETATM   17  C   UNL     1     -11.954  13.596  64.519  1.00  0.00    -0.418 C  
HETATM   18  O   UNL     1     -12.575  14.108  63.591  1.00  0.00    -0.831 OA 
HETATM   19  N   UNL     1     -11.241  12.437  64.337  1.00  0.00    -0.313 N  
HETATM   20  C   UNL     1     -10.754  11.615  65.332  1.00  0.00    -0.287 C  
HETATM   21  H   UNL     1     -11.054  12.157  63.375  1.00  0.00     0.000 HD 
HETATM   22  O   UNL     1     -10.545  10.426  65.113  1.00  0.00    -0.191 OA 
ENDBRANCH  11  14
TORSDOF 1
ENDMDL
MODEL       63
REMARK 921   NORMALIZED FREE ENERGY PREDICTED BY IDOCK:   -5.08 KCAL/MOL
REMARK 922        TOTAL FREE ENERGY PREDICTED BY IDOCK:   -5.72 KCAL/MOL
REMARK 923 INTER-LIGAND FREE ENERGY PREDICTED BY IDOCK:   -5.87 KCAL/MOL
REMARK 924 INTRA-LIGAND FREE ENERGY PREDICTED BY IDOCK:    0.15 KCAL/MOL
REMARK 927      BINDING AFFINITY PREDICTED BY RF-SCORE:    0.00 PKD
ROOT
HETATM    1  N   UNL     1     -10.390   8.508  69.062  1.00  0.00    -0.215 NA 
HETATM    2  C   UNL     1      -9.801   8.608  67.802  1.00  0.00    -0.175 A  
HETATM    3  H1  UNL     1     -10.805   9.332  69.498  1.00  0.00     0.000 HD 
HETATM    4  H2  UNL     1      -9.706   8.112  69.708  1.00  0.00     0.000 HD 
HETATM    5  C   UNL     1      -9.230   7.472  67.202  1.00  0.00    -0.161 A  
HETATM    6  C   UNL     1      -8.747   7.493  65.878  1.00  0.00    -0.170 A  
HETATM    7  C   UNL     1      -8.869   8.640  65.101  1.00  0.00    -0.147 A  
HETATM    8  C   UNL     1      -9.485   9.729  65.686  1.00  0.00    -0.307 A  
HETATM    9  C   UNL     1      -9.957   9.728  67.003  1.00  0.00    -0.259 A  
HETATM   10  C   UNL     1     -10.598  11.045  67.303  1.00  0.00    -0.245 C  
HETATM   11  N   UNL     1     -10.374  11.802  66.077  1.00  0.00    -0.231 N  
HETATM   12  O   UNL     1      -9.529  11.355  63.944  1.00  0.00    -0.211 OA 
HETATM   13  C   UNL     1      -9.781  11.035  65.090  1.00  0.00    -0.254 C  
ENDROOT
BRANCH  11  14
HETATM   14  C   UNL     1     -10.931  13.122  65.815  1.00  0.00    -0.277 C  
HETATM   15  C   UNL     1     -11.515  13.251  64.413  1.00  0.00    -0.416 C  
HETATM   16  C   UNL     1     -12.266  14.572  64.315  1.00  0.00    -0.441 C  
HETATM   17  C   UNL     1     -11.383  15.742  64.685  1.00  0.00    -0.337 C  
HETATM   18  O   UNL     1     -11.535  16.857  64.194  1.00  0.00    -1.174 OA 
HETATM   19  N   UNL     1     -10.404  15.511  65.620  1.00  0.00    -0.354 N  
HETATM   20  C   UNL     1      -9.940  14.277  66.026  1.00  0.00    -0.319 C  
HETATM   21  H   UNL     1      -9.981  16.329  66.056  1.00  0.00     0.000 HD 
HETATM   22  O   UNL     1      -8.811  14.157  66.491  1.00  0.00    -0.173 OA 
ENDBRANCH  11  14
TORSDOF 1
ENDMDL
MODEL       64
REMARK 921   NORMALIZED FREE ENERGY PREDICTED BY IDOCK:   -5.07 KCAL/MOL
REMARK 922        TOTAL FREE ENERGY PREDICTED BY IDOCK:   -5.71 KCAL/MOL
REMARK 923 INTER-LIGAND FREE ENERGY PREDICTED BY IDOCK:   -5.99 KCAL/MOL
REMARK 924 INTRA-LIGAND FREE ENERGY PREDICTED BY IDOCK:    0.28 KCAL/MOL
REMARK 927      BINDING AFFINITY PREDICTED BY RF-SCORE:    0.00 PKD
ROOT
HETATM    1  N   UNL     1     -10.514  10.752  64.180  1.00  0.00    -0.437 NA 
HETATM    2  C   UNL     1     -10.830  11.704  65.149  1.00  0.00    -0.288 A  
HETATM    3  H1  UNL     1     -10.191   9.826  64.461  1.00  0.00     0.000 HD 
HETATM    4  H2  UNL     1      -9.826  11.154  63.544  1.00  0.00     0.000 HD 
HETATM    5  C   UNL     1     -11.275  12.980  64.761  1.00  0.00    -0.344 A  
HETATM    6  C   UNL     1     -11.734  13.926  65.700  1.00  0.00    -0.362 A  
HETATM    7  C   UNL     1     -11.806  13.600  67.050  1.00  0.00    -0.448 A  
HETATM    8  C   UNL     1     -11.420  12.323  67.408  1.00  0.00    -0.422 A  
HETATM    9  C   UNL     1     -10.949  11.378  66.490  1.00  0.00    -0.328 A  
HETATM   10  C   UNL     1     -10.656  10.097  67.201  1.00  0.00    -0.246 C  
HETATM   11  N   UNL     1     -10.926  10.429  68.594  1.00  0.00    -0.229 N  
HETATM   12  O   UNL     1     -11.819  12.251  69.756  1.00  0.00    -0.313 OA 
HETATM   13  C   UNL     1     -11.436  11.708  68.738  1.00  0.00    -0.285 C  
ENDROOT
BRANCH  11  14
HETATM   14  C   UNL     1     -10.912   9.464  69.685  1.00  0.00    -0.197 C  
HETATM   15  C   UNL     1     -11.984   9.741  70.734  1.00  0.00    -0.382 C  
HETATM   16  C   UNL     1     -12.038   8.565  71.700  1.00  0.00    -0.373 C  
HETATM   17  C   UNL     1     -10.684   8.287  72.314  1.00  0.00    -0.329 C  
HETATM   18  O   UNL     1     -10.562   7.817  73.442  1.00  0.00    -0.348 OA 
HETATM   19  N   UNL     1      -9.583   8.565  71.542  1.00  0.00    -0.204 N  
HETATM   20  C   UNL     1      -9.560   9.347  70.406  1.00  0.00    -0.266 C  
HETATM   21  H   UNL     1      -8.698   8.153  71.836  1.00  0.00     0.000 HD 
HETATM   22  O   UNL     1      -8.526   9.903  70.051  1.00  0.00    -0.193 OA 
ENDBRANCH  11  14
TORSDOF 1
ENDMDL
MODEL       65
REMARK 921   NORMALIZED FREE ENERGY PREDICTED BY IDOCK:   -5.06 KCAL/MOL
REMARK 922        TOTAL FREE ENERGY PREDICTED BY IDOCK:   -5.71 KCAL/MOL
REMARK 923 INTER-LIGAND FREE ENERGY PREDICTED BY IDOCK:   -5.72 KCAL/MOL
REMARK 924 INTRA-LIGAND FREE ENERGY PREDICTED BY IDOCK:    0.02 KCAL/MOL
REMARK 927      BINDING AFFINITY PREDICTED BY RF-SCORE:    0.00 PKD
ROOT
HETATM    1  N   UNL     1     -10.973  19.134  64.976  1.00  0.00    -0.223 NA 
HETATM    2  C   UNL     1     -10.486  18.916  66.264  1.00  0.00    -0.445 A  
HETATM    3  H1  UNL     1     -11.119  18.345  64.345  1.00  0.00     0.000 HD 
HETATM    4  H2  UNL     1     -10.367  19.810  64.511  1.00  0.00     0.000 HD 
HETATM    5  C   UNL     1     -10.286  20.003  67.133  1.00  0.00    -0.554 A  
HETATM    6  C   UNL     1      -9.927  19.821  68.483  1.00  0.00    -0.538 A  
HETATM    7  C   UNL     1      -9.808  18.541  69.014  1.00  0.00    -0.313 A  
HETATM    8  C   UNL     1     -10.064  17.484  68.162  1.00  0.00    -0.341 A  
HETATM    9  C   UNL     1     -10.408  17.648  66.817  1.00  0.00    -0.331 A  
HETATM   10  C   UNL     1     -10.652  16.310  66.199  1.00  0.00    -0.267 C  
HETATM   11  N   UNL     1     -10.340  15.388  67.284  1.00  0.00    -0.266 N  
HETATM   12  O   UNL     1      -9.823  15.566  69.557  1.00  0.00    -0.255 OA 
HETATM   13  C   UNL     1     -10.054  16.050  68.466  1.00  0.00    -0.233 C  
ENDROOT
BRANCH  11  14
HETATM   14  C   UNL     1     -10.549  13.948  67.223  1.00  0.00    -0.276 C  
HETATM   15  C   UNL     1     -11.438  13.431  68.349  1.00  0.00    -0.351 C  
HETATM   16  C   UNL     1     -11.780  11.973  68.073  1.00  0.00    -0.398 C  
HETATM   17  C   UNL     1     -10.535  11.136  67.886  1.00  0.00    -0.190 C  
HETATM   18  O   UNL     1     -10.495   9.947  68.190  1.00  0.00    -0.190 OA 
HETATM   19  N   UNL     1      -9.443  11.761  67.336  1.00  0.00    -0.171 N  
HETATM   20  C   UNL     1      -9.254  13.122  67.223  1.00  0.00    -0.221 C  
HETATM   21  H   UNL     1      -8.700  11.161  66.977  1.00  0.00     0.000 HD 
HETATM   22  O   UNL     1      -8.122  13.593  67.154  1.00  0.00    -0.160 OA 
ENDBRANCH  11  14
TORSDOF 1
ENDMDL
MODEL       66
REMARK 921   NORMALIZED FREE ENERGY PREDICTED BY IDOCK:   -5.04 KCAL/MOL
REMARK 922        TOTAL FREE ENERGY PREDICTED BY IDOCK:   -5.68 KCAL/MOL
REMARK 923 INTER-LIGAND FREE ENERGY PREDICTED BY IDOCK:   -5.69 KCAL/MOL
REMARK 924 INTRA-LIGAND FREE ENERGY PREDICTED BY IDOCK:    0.01 KCAL/MOL
REMARK 927      BINDING AFFINITY PREDICTED BY RF-SCORE:    0.00 PKD
ROOT
HETATM    1  N   UNL     1      -7.427  15.605  67.183  1.00  0.00    -0.218 NA 
HETATM    2  C   UNL     1      -8.728  15.393  66.727  1.00  0.00    -0.269 A  
HETATM    3  H1  UNL     1      -6.942  14.871  67.700  1.00  0.00     0.000 HD 
HETATM    4  H2  UNL     1      -7.416  16.456  67.744  1.00  0.00     0.000 HD 
HETATM    5  C   UNL     1      -9.395  16.404  66.014  1.00  0.00    -0.335 A  
HETATM    6  C   UNL     1     -10.654  16.188  65.417  1.00  0.00    -0.399 A  
HETATM    7  C   UNL     1     -11.256  14.936  65.477  1.00  0.00    -0.348 A  
HETATM    8  C   UNL     1     -10.560  13.937  66.131  1.00  0.00    -0.291 A  
HETATM    9  C   UNL     1      -9.317  14.140  66.739  1.00  0.00    -0.295 A  
HETATM   10  C   UNL     1      -8.831  12.851  67.319  1.00  0.00    -0.206 C  
HETATM   11  N   UNL     1      -9.936  11.938  67.054  1.00  0.00    -0.201 N  
HETATM   12  O   UNL     1     -11.948  12.018  65.866  1.00  0.00    -0.540 OA 
HETATM   13  C   UNL     1     -10.936  12.531  66.303  1.00  0.00    -0.277 C  
ENDROOT
BRANCH  11  14
HETATM   14  C   UNL     1      -9.897  10.506  67.315  1.00  0.00    -0.177 C  
HETATM   15  C   UNL     1     -10.032   9.669  66.048  1.00  0.00    -0.344 C  
HETATM   16  C   UNL     1      -9.754   8.212  66.391  1.00  0.00    -0.275 C  
HETATM   17  C   UNL     1     -10.651   7.723  67.506  1.00  0.00    -0.248 C  
HETATM   18  O   UNL     1     -11.010   6.552  67.590  1.00  0.00    -0.304 OA 
HETATM   19  N   UNL     1     -11.035   8.648  68.445  1.00  0.00    -0.445 N  
HETATM   20  C   UNL     1     -10.953  10.019  68.320  1.00  0.00    -0.227 C  
HETATM   21  H   UNL     1     -11.417   8.287  69.319  1.00  0.00     0.000 HD 
HETATM   22  O   UNL     1     -11.699  10.751  68.964  1.00  0.00    -0.295 OA 
ENDBRANCH  11  14
TORSDOF 1
ENDMDL
MODEL       67
REMARK 921   NORMALIZED FREE ENERGY PREDICTED BY IDOCK:   -5.01 KCAL/MOL
REMARK 922        TOTAL FREE ENERGY PREDICTED BY IDOCK:   -5.64 KCAL/MOL
REMARK 923 INTER-LIGAND FREE ENERGY PREDICTED BY IDOCK:   -5.31 KCAL/MOL
REMARK 924 INTRA-LIGAND FREE ENERGY PREDICTED BY IDOCK:   -0.33 KCAL/MOL
REMARK 927      BINDING AFFINITY PREDICTED BY RF-SCORE:    0.00 PKD
ROOT
HETATM    1  N   UNL     1     -12.054   5.283  73.027  1.00  0.00    -0.468 NA 
HETATM    2  C   UNL     1     -10.796   5.857  73.206  1.00  0.00    -0.261 A  
HETATM    3  H1  UNL     1     -12.772   5.782  72.501  1.00  0.00     0.000 HD 
HETATM    4  H2  UNL     1     -12.434   5.044  73.943  1.00  0.00     0.000 HD 
HETATM    5  C   UNL     1      -9.807   5.169  73.930  1.00  0.00    -0.175 A  
HETATM    6  C   UNL     1      -8.484   5.645  74.021  1.00  0.00    -0.114 A  
HETATM    7  C   UNL     1      -8.103   6.800  73.346  1.00  0.00    -0.111 A  
HETATM    8  C   UNL     1      -9.072   7.433  72.592  1.00  0.00    -0.181 A  
HETATM    9  C   UNL     1     -10.392   6.980  72.503  1.00  0.00    -0.230 A  
HETATM   10  C   UNL     1     -11.162   7.869  71.581  1.00  0.00    -0.251 C  
HETATM   11  N   UNL     1     -10.187   8.894  71.228  1.00  0.00    -0.262 N  
HETATM   12  O   UNL     1      -7.905   9.253  71.588  1.00  0.00    -0.329 OA 
HETATM   13  C   UNL     1      -8.935   8.629  71.756  1.00  0.00    -0.237 C  
ENDROOT
BRANCH  11  14
HETATM   14  C   UNL     1     -10.414   9.936  70.235  1.00  0.00    -0.291 C  
HETATM   15  C   UNL     1     -11.713  10.700  70.466  1.00  0.00    -0.451 C  
HETATM   16  C   UNL     1     -11.748  11.900  69.528  1.00  0.00    -0.410 C  
HETATM   17  C   UNL     1     -11.569  11.482  68.086  1.00  0.00    -0.308 C  
HETATM   18  O   UNL     1     -12.077  12.105  67.158  1.00  0.00    -0.575 OA 
HETATM   19  N   UNL     1     -10.788  10.377  67.851  1.00  0.00    -0.259 N  
HETATM   20  C   UNL     1     -10.409   9.434  68.783  1.00  0.00    -0.209 C  
HETATM   21  H   UNL     1     -10.458  10.241  66.896  1.00  0.00     0.000 HD 
HETATM   22  O   UNL     1     -10.120   8.293  68.436  1.00  0.00    -0.189 OA 
ENDBRANCH  11  14
TORSDOF 1
ENDMDL
MODEL       68
REMARK 921   NORMALIZED FREE ENERGY PREDICTED BY IDOCK:   -4.98 KCAL/MOL
REMARK 922        TOTAL FREE ENERGY PREDICTED BY IDOCK:   -5.62 KCAL/MOL
REMARK 923 INTER-LIGAND FREE ENERGY PREDICTED BY IDOCK:   -5.35 KCAL/MOL
REMARK 924 INTRA-LIGAND FREE ENERGY PREDICTED BY IDOCK:   -0.27 KCAL/MOL
REMARK 927      BINDING AFFINITY PREDICTED BY RF-SCORE:    0.00 PKD
ROOT
HETATM    1  N   UNL     1     -12.336  14.043  67.675  1.00  0.00    -0.513 NA 
HETATM    2  C   UNL     1     -12.144  13.604  66.366  1.00  0.00    -0.433 A  
HETATM    3  H1  UNL     1     -12.111  13.428  68.458  1.00  0.00     0.000 HD 
HETATM    4  H2  UNL     1     -13.304  14.349  67.774  1.00  0.00     0.000 HD 
HETATM    5  C   UNL     1     -12.454  14.452  65.288  1.00  0.00    -0.359 A  
HETATM    6  C   UNL     1     -12.150  14.105  63.956  1.00  0.00    -0.382 A  
HETATM    7  C   UNL     1     -11.480  12.920  63.672  1.00  0.00    -0.506 A  
HETATM    8  C   UNL     1     -11.131  12.125  64.747  1.00  0.00    -0.364 A  
HETATM    9  C   UNL     1     -11.438  12.449  66.073  1.00  0.00    -0.431 A  
HETATM   10  C   UNL     1     -10.886  11.399  66.982  1.00  0.00    -0.282 C  
HETATM   11  N   UNL     1     -10.319  10.430  66.053  1.00  0.00    -0.223 N  
HETATM   12  O   UNL     1      -9.950  10.313  63.747  1.00  0.00    -0.262 OA 
HETATM   13  C   UNL     1     -10.391  10.860  64.739  1.00  0.00    -0.323 C  
ENDROOT
BRANCH  11  14
HETATM   14  C   UNL     1      -9.537   9.268  66.455  1.00  0.00    -0.238 C  
HETATM   15  C   UNL     1     -10.295   8.343  67.401  1.00  0.00    -0.355 C  
HETATM   16  C   UNL     1      -9.492   7.061  67.580  1.00  0.00    -0.144 C  
HETATM   17  C   UNL     1      -8.085   7.349  68.052  1.00  0.00    -0.124 C  
HETATM   18  O   UNL     1      -7.459   6.562  68.759  1.00  0.00    -0.084 OA 
HETATM   19  N   UNL     1      -7.518   8.529  67.638  1.00  0.00    -0.092 N  
HETATM   20  C   UNL     1      -8.187   9.610  67.103  1.00  0.00    -0.120 C  
HETATM   21  H   UNL     1      -6.507   8.614  67.734  1.00  0.00     0.000 HD 
HETATM   22  O   UNL     1      -7.714  10.740  67.184  1.00  0.00    -0.112 OA 
ENDBRANCH  11  14
TORSDOF 1
ENDMDL
MODEL       69
REMARK 921   NORMALIZED FREE ENERGY PREDICTED BY IDOCK:   -4.98 KCAL/MOL
REMARK 922        TOTAL FREE ENERGY PREDICTED BY IDOCK:   -5.62 KCAL/MOL
REMARK 923 INTER-LIGAND FREE ENERGY PREDICTED BY IDOCK:   -5.27 KCAL/MOL
REMARK 924 INTRA-LIGAND FREE ENERGY PREDICTED BY IDOCK:   -0.34 KCAL/MOL
REMARK 927      BINDING AFFINITY PREDICTED BY RF-SCORE:    0.00 PKD
ROOT
HETATM    1  N   UNL     1     -12.832   9.673  71.934  1.00  0.00    -0.403 NA 
HETATM    2  C   UNL     1     -12.833  10.986  71.463  1.00  0.00    -0.450 A  
HETATM    3  H1  UNL     1     -12.429   8.928  71.365  1.00  0.00     0.000 HD 
HETATM    4  H2  UNL     1     -13.790   9.415  72.173  1.00  0.00     0.000 HD 
HETATM    5  C   UNL     1     -13.388  12.013  72.247  1.00  0.00    -0.261 A  
HETATM    6  C   UNL     1     -13.289  13.369  71.876  1.00  0.00    -0.539 A  
HETATM    7  C   UNL     1     -12.588  13.737  70.733  1.00  0.00    -0.410 A  
HETATM    8  C   UNL     1     -12.000  12.721  70.005  1.00  0.00    -0.371 A  
HETATM    9  C   UNL     1     -12.100  11.370  70.353  1.00  0.00    -0.473 A  
HETATM   10  C   UNL     1     -11.321  10.547  69.379  1.00  0.00    -0.269 C  
HETATM   11  N   UNL     1     -10.847  11.538  68.421  1.00  0.00    -0.198 N  
HETATM   12  O   UNL     1     -10.869  13.869  68.249  1.00  0.00    -0.237 OA 
HETATM   13  C   UNL     1     -11.176  12.828  68.797  1.00  0.00    -0.283 C  
ENDROOT
BRANCH  11  14
HETATM   14  C   UNL     1      -9.920  11.251  67.334  1.00  0.00    -0.182 C  
HETATM   15  C   UNL     1     -10.138   9.873  66.719  1.00  0.00    -0.292 C  
HETATM   16  C   UNL     1      -9.287   9.759  65.461  1.00  0.00    -0.299 C  
HETATM   17  C   UNL     1      -7.829  10.042  65.749  1.00  0.00    -0.128 C  
HETATM   18  O   UNL     1      -6.923   9.515  65.110  1.00  0.00    -0.092 OA 
HETATM   19  N   UNL     1      -7.557  10.939  66.752  1.00  0.00    -0.128 N  
HETATM   20  C   UNL     1      -8.438  11.370  67.722  1.00  0.00    -0.128 C  
HETATM   21  H   UNL     1      -6.613  11.323  66.784  1.00  0.00     0.000 HD 
HETATM   22  O   UNL     1      -8.026  11.786  68.800  1.00  0.00    -0.133 OA 
ENDBRANCH  11  14
TORSDOF 1
ENDMDL
MODEL       70
REMARK 921   NORMALIZED FREE ENERGY PREDICTED BY IDOCK:   -4.97 KCAL/MOL
REMARK 922        TOTAL FREE ENERGY PREDICTED BY IDOCK:   -5.60 KCAL/MOL
REMARK 923 INTER-LIGAND FREE ENERGY PREDICTED BY IDOCK:   -6.06 KCAL/MOL
REMARK 924 INTRA-LIGAND FREE ENERGY PREDICTED BY IDOCK:    0.46 KCAL/MOL
REMARK 927      BINDING AFFINITY PREDICTED BY RF-SCORE:    0.00 PKD
ROOT
HETATM    1  N   UNL     1     -10.597  13.766  67.497  1.00  0.00    -0.244 NA 
HETATM    2  C   UNL     1     -11.279  13.878  68.708  1.00  0.00    -0.272 A  
HETATM    3  H1  UNL     1     -10.165  12.879  67.235  1.00  0.00     0.000 HD 
HETATM    4  H2  UNL     1      -9.885  14.495  67.458  1.00  0.00     0.000 HD 
HETATM    5  C   UNL     1     -11.874  15.099  69.068  1.00  0.00    -0.331 A  
HETATM    6  C   UNL     1     -12.686  15.223  70.213  1.00  0.00    -0.353 A  
HETATM    7  C   UNL     1     -12.965  14.112  71.002  1.00  0.00    -0.399 A  
HETATM    8  C   UNL     1     -12.420  12.907  70.602  1.00  0.00    -0.333 A  
HETATM    9  C   UNL     1     -11.601  12.772  69.476  1.00  0.00    -0.342 A  
HETATM   10  C   UNL     1     -11.217  11.337  69.311  1.00  0.00    -0.272 C  
HETATM   11  N   UNL     1     -11.821  10.702  70.476  1.00  0.00    -0.329 N  
HETATM   12  O   UNL     1     -13.264  11.351  72.198  1.00  0.00    -0.490 OA 
HETATM   13  C   UNL     1     -12.585  11.587  71.216  1.00  0.00    -0.347 C  
ENDROOT
BRANCH  11  14
HETATM   14  C   UNL     1     -11.842   9.264  70.708  1.00  0.00    -0.243 C  
HETATM   15  C   UNL     1     -13.013   8.822  71.578  1.00  0.00    -0.359 C  
HETATM   16  C   UNL     1     -13.079   7.301  71.575  1.00  0.00    -0.434 C  
HETATM   17  C   UNL     1     -11.768   6.687  72.012  1.00  0.00    -0.313 C  
HETATM   18  O   UNL     1     -11.714   5.608  72.595  1.00  0.00    -0.303 OA 
HETATM   19  N   UNL     1     -10.624   7.382  71.707  1.00  0.00    -0.201 N  
HETATM   20  C   UNL     1     -10.552   8.707  71.329  1.00  0.00    -0.239 C  
HETATM   21  H   UNL     1      -9.744   6.871  71.765  1.00  0.00     0.000 HD 
HETATM   22  O   UNL     1      -9.526   9.354  71.514  1.00  0.00    -0.259 OA 
ENDBRANCH  11  14
TORSDOF 1
ENDMDL
MODEL       71
REMARK 921   NORMALIZED FREE ENERGY PREDICTED BY IDOCK:   -4.91 KCAL/MOL
REMARK 922        TOTAL FREE ENERGY PREDICTED BY IDOCK:   -5.54 KCAL/MOL
REMARK 923 INTER-LIGAND FREE ENERGY PREDICTED BY IDOCK:   -5.19 KCAL/MOL
REMARK 924 INTRA-LIGAND FREE ENERGY PREDICTED BY IDOCK:   -0.35 KCAL/MOL
REMARK 927      BINDING AFFINITY PREDICTED BY RF-SCORE:    0.00 PKD
ROOT
HETATM    1  N   UNL     1     -10.302   7.676  71.491  1.00  0.00    -0.196 NA 
HETATM    2  C   UNL     1     -11.173   8.695  71.106  1.00  0.00    -0.272 A  
HETATM    3  H1  UNL     1      -9.656   7.274  70.812  1.00  0.00     0.000 HD 
HETATM    4  H2  UNL     1     -10.850   6.920  71.901  1.00  0.00     0.000 HD 
HETATM    5  C   UNL     1     -12.064   9.249  72.043  1.00  0.00    -0.406 A  
HETATM    6  C   UNL     1     -12.864  10.368  71.738  1.00  0.00    -0.561 A  
HETATM    7  C   UNL     1     -12.757  10.995  70.501  1.00  0.00    -0.331 A  
HETATM    8  C   UNL     1     -11.836  10.474  69.613  1.00  0.00    -0.306 A  
HETATM    9  C   UNL     1     -11.045   9.356  69.896  1.00  0.00    -0.223 A  
HETATM   10  C   UNL     1     -10.137   9.084  68.741  1.00  0.00    -0.199 C  
HETATM   11  N   UNL     1     -10.541  10.090  67.766  1.00  0.00    -0.242 N  
HETATM   12  O   UNL     1     -11.976  11.935  67.736  1.00  0.00    -0.559 OA 
HETATM   13  C   UNL     1     -11.491  10.959  68.274  1.00  0.00    -0.305 C  
ENDROOT
BRANCH  11  14
HETATM   14  C   UNL     1      -9.858  10.328  66.501  1.00  0.00    -0.212 C  
HETATM   15  C   UNL     1      -9.582   9.044  65.727  1.00  0.00    -0.287 C  
HETATM   16  C   UNL     1      -9.079   9.410  64.336  1.00  0.00    -0.180 C  
HETATM   17  C   UNL     1      -7.872  10.318  64.403  1.00  0.00    -0.117 C  
HETATM   18  O   UNL     1      -6.999  10.309  63.539  1.00  0.00    -0.134 OA 
HETATM   19  N   UNL     1      -7.801  11.179  65.470  1.00  0.00    -0.365 N  
HETATM   20  C   UNL     1      -8.535  11.097  66.635  1.00  0.00    -0.164 C  
HETATM   21  H   UNL     1      -7.142  11.954  65.394  1.00  0.00     0.000 HD 
HETATM   22  O   UNL     1      -8.114  11.593  67.675  1.00  0.00    -0.128 OA 
ENDBRANCH  11  14
TORSDOF 1
ENDMDL
MODEL       72
REMARK 921   NORMALIZED FREE ENERGY PREDICTED BY IDOCK:   -4.89 KCAL/MOL
REMARK 922        TOTAL FREE ENERGY PREDICTED BY IDOCK:   -5.52 KCAL/MOL
REMARK 923 INTER-LIGAND FREE ENERGY PREDICTED BY IDOCK:   -5.21 KCAL/MOL
REMARK 924 INTRA-LIGAND FREE ENERGY PREDICTED BY IDOCK:   -0.31 KCAL/MOL
REMARK 927      BINDING AFFINITY PREDICTED BY RF-SCORE:    0.00 PKD
ROOT
HETATM    1  N   UNL     1      -9.013  10.640  69.505  1.00  0.00    -0.405 NA 
HETATM    2  C   UNL     1      -9.347  10.633  68.150  1.00  0.00    -0.151 A  
HETATM    3  H1  UNL     1      -8.677  11.499  69.942  1.00  0.00     0.000 HD 
HETATM    4  H2  UNL     1      -8.328   9.904  69.673  1.00  0.00     0.000 HD 
HETATM    5  C   UNL     1      -9.810   9.450  67.548  1.00  0.00    -0.220 A  
HETATM    6  C   UNL     1     -10.288   9.426  66.223  1.00  0.00    -0.211 A  
HETATM    7  C   UNL     1     -10.361  10.600  65.480  1.00  0.00    -0.297 A  
HETATM    8  C   UNL     1      -9.956  11.763  66.105  1.00  0.00    -0.254 A  
HETATM    9  C   UNL     1      -9.468  11.800  67.415  1.00  0.00    -0.174 A  
HETATM   10  C   UNL     1      -9.158  13.213  67.791  1.00  0.00    -0.200 C  
HETATM   11  N   UNL     1      -9.439  13.945  66.563  1.00  0.00    -0.283 N  
HETATM   12  O   UNL     1     -10.365  13.452  64.473  1.00  0.00    -0.413 OA 
HETATM   13  C   UNL     1      -9.968  13.130  65.577  1.00  0.00    -0.207 C  
ENDROOT
BRANCH  11  14
HETATM   14  C   UNL     1      -9.415  15.398  66.449  1.00  0.00    -0.296 C  
HETATM   15  C   UNL     1      -8.098  16.006  66.917  1.00  0.00    -0.282 C  
HETATM   16  C   UNL     1      -8.084  17.485  66.551  1.00  0.00    -0.305 C  
HETATM   17  C   UNL     1      -9.289  18.207  67.112  1.00  0.00    -0.263 C  
HETATM   18  O   UNL     1      -9.250  19.392  67.431  1.00  0.00    -0.295 OA 
HETATM   19  N   UNL     1     -10.448  17.481  67.233  1.00  0.00    -0.342 N  
HETATM   20  C   UNL     1     -10.557  16.106  67.193  1.00  0.00    -0.294 C  
HETATM   21  H   UNL     1     -11.310  18.008  67.364  1.00  0.00     0.000 HD 
HETATM   22  O   UNL     1     -11.496  15.538  67.741  1.00  0.00    -0.322 OA 
ENDBRANCH  11  14
TORSDOF 1
ENDMDL
MODEL       73
REMARK 921   NORMALIZED FREE ENERGY PREDICTED BY IDOCK:   -4.88 KCAL/MOL
REMARK 922        TOTAL FREE ENERGY PREDICTED BY IDOCK:   -5.51 KCAL/MOL
REMARK 923 INTER-LIGAND FREE ENERGY PREDICTED BY IDOCK:   -5.34 KCAL/MOL
REMARK 924 INTRA-LIGAND FREE ENERGY PREDICTED BY IDOCK:   -0.17 KCAL/MOL
REMARK 927      BINDING AFFINITY PREDICTED BY RF-SCORE:    0.00 PKD
ROOT
HETATM    1  N   UNL     1     -10.448   6.202  66.116  1.00  0.00    -0.433 NA 
HETATM    2  C   UNL     1     -10.697   6.629  67.420  1.00  0.00    -0.339 A  
HETATM    3  H1  UNL     1     -10.424   6.879  65.353  1.00  0.00     0.000 HD 
HETATM    4  H2  UNL     1     -11.122   5.474  65.879  1.00  0.00     0.000 HD 
HETATM    5  C   UNL     1     -10.730   5.696  68.470  1.00  0.00    -0.232 A  
HETATM    6  C   UNL     1     -10.843   6.094  69.817  1.00  0.00    -0.421 A  
HETATM    7  C   UNL     1     -10.875   7.444  70.152  1.00  0.00    -0.270 A  
HETATM    8  C   UNL     1     -10.784   8.349  69.112  1.00  0.00    -0.123 A  
HETATM    9  C   UNL     1     -10.685   7.969  67.770  1.00  0.00    -0.174 A  
HETATM   10  C   UNL     1     -10.567   9.189  66.915  1.00  0.00    -0.167 C  
HETATM   11  N   UNL     1     -10.686  10.275  67.880  1.00  0.00    -0.244 N  
HETATM   12  O   UNL     1     -10.786  10.466  70.208  1.00  0.00    -0.292 OA 
HETATM   13  C   UNL     1     -10.751   9.813  69.183  1.00  0.00    -0.221 C  
ENDROOT
BRANCH  11  14
HETATM   14  C   UNL     1     -10.502  11.683  67.556  1.00  0.00    -0.200 C  
HETATM   15  C   UNL     1     -11.576  12.220  66.617  1.00  0.00    -0.438 C  
HETATM   16  C   UNL     1     -11.432  13.733  66.521  1.00  0.00    -0.364 C  
HETATM   17  C   UNL     1     -10.037  14.132  66.096  1.00  0.00    -0.313 C  
HETATM   18  O   UNL     1      -9.818  15.152  65.448  1.00  0.00    -0.328 OA 
HETATM   19  N   UNL     1      -9.009  13.311  66.487  1.00  0.00    -0.444 N  
HETATM   20  C   UNL     1      -9.130  12.017  66.950  1.00  0.00    -0.196 C  
HETATM   21  H   UNL     1      -8.066  13.693  66.429  1.00  0.00     0.000 HD 
HETATM   22  O   UNL     1      -8.199  11.226  66.846  1.00  0.00    -0.141 OA 
ENDBRANCH  11  14
TORSDOF 1
ENDMDL
MODEL       74
REMARK 921   NORMALIZED FREE ENERGY PREDICTED BY IDOCK:   -4.88 KCAL/MOL
REMARK 922        TOTAL FREE ENERGY PREDICTED BY IDOCK:   -5.51 KCAL/MOL
REMARK 923 INTER-LIGAND FREE ENERGY PREDICTED BY IDOCK:   -5.77 KCAL/MOL
REMARK 924 INTRA-LIGAND FREE ENERGY PREDICTED BY IDOCK:    0.26 KCAL/MOL
REMARK 927      BINDING AFFINITY PREDICTED BY RF-SCORE:    0.00 PKD
ROOT
HETATM    1  N   UNL     1      -9.501   9.732  67.578  1.00  0.00    -0.146 NA 
HETATM    2  C   UNL     1     -10.099  10.838  66.974  1.00  0.00    -0.208 A  
HETATM    3  H1  UNL     1      -9.339   9.726  68.585  1.00  0.00     0.000 HD 
HETATM    4  H2  UNL     1      -8.616   9.546  67.107  1.00  0.00     0.000 HD 
HETATM    5  C   UNL     1     -10.323  10.845  65.587  1.00  0.00    -0.305 A  
HETATM    6  C   UNL     1     -11.044  11.877  64.954  1.00  0.00    -0.363 A  
HETATM    7  C   UNL     1     -11.603  12.907  65.703  1.00  0.00    -0.401 A  
HETATM    8  C   UNL     1     -11.423  12.855  67.072  1.00  0.00    -0.390 A  
HETATM    9  C   UNL     1     -10.699  11.844  67.712  1.00  0.00    -0.243 A  
HETATM   10  C   UNL     1     -10.732  12.069  69.190  1.00  0.00    -0.075 C  
HETATM   11  N   UNL     1     -11.463  13.324  69.311  1.00  0.00    -0.283 N  
HETATM   12  O   UNL     1     -12.632  14.747  67.871  1.00  0.00     0.193 OA 
HETATM   13  C   UNL     1     -11.936  13.775  68.091  1.00  0.00    -0.358 C  
ENDROOT
BRANCH  11  14
HETATM   14  C   UNL     1     -11.878  13.912  70.578  1.00  0.00    -0.247 C  
HETATM   15  C   UNL     1     -13.370  13.750  70.845  1.00  0.00    -0.080 C  
HETATM   16  C   UNL     1     -13.662  14.187  72.275  1.00  0.00    -0.623 C  
HETATM   17  C   UNL     1     -13.175  15.595  72.535  1.00  0.00    -0.497 C  
HETATM   18  O   UNL     1     -13.730  16.340  73.339  1.00  0.00    -0.597 OA 
HETATM   19  N   UNL     1     -12.062  16.006  71.844  1.00  0.00    -0.489 N  
HETATM   20  C   UNL     1     -11.527  15.401  70.726  1.00  0.00    -0.355 C  
HETATM   21  H   UNL     1     -11.585  16.838  72.191  1.00  0.00     0.000 HD 
HETATM   22  O   UNL     1     -10.850  16.044  69.931  1.00  0.00    -0.297 OA 
ENDBRANCH  11  14
TORSDOF 1
ENDMDL
MODEL       75
REMARK 921   NORMALIZED FREE ENERGY PREDICTED BY IDOCK:   -4.87 KCAL/MOL
REMARK 922        TOTAL FREE ENERGY PREDICTED BY IDOCK:   -5.50 KCAL/MOL
REMARK 923 INTER-LIGAND FREE ENERGY PREDICTED BY IDOCK:   -5.55 KCAL/MOL
REMARK 924 INTRA-LIGAND FREE ENERGY PREDICTED BY IDOCK:    0.05 KCAL/MOL
REMARK 927      BINDING AFFINITY PREDICTED BY RF-SCORE:    0.00 PKD
ROOT
HETATM    1  N   UNL     1      -7.943   8.676  71.950  1.00  0.00    -0.270 NA 
HETATM    2  C   UNL     1      -9.287   8.764  71.587  1.00  0.00    -0.275 A  
HETATM    3  H1  UNL     1      -7.227   9.106  71.364  1.00  0.00     0.000 HD 
HETATM    4  H2  UNL     1      -7.707   7.692  72.078  1.00  0.00     0.000 HD 
HETATM    5  C   UNL     1     -10.273   8.171  72.394  1.00  0.00    -0.368 A  
HETATM    6  C   UNL     1     -11.648   8.350  72.143  1.00  0.00    -0.442 A  
HETATM    7  C   UNL     1     -12.073   9.169  71.102  1.00  0.00    -0.365 A  
HETATM    8  C   UNL     1     -11.092   9.790  70.354  1.00  0.00    -0.367 A  
HETATM    9  C   UNL     1      -9.724   9.612  70.583  1.00  0.00    -0.239 A  
HETATM   10  C   UNL     1      -8.946  10.453  69.624  1.00  0.00    -0.037 C  
HETATM   11  N   UNL     1      -9.986  11.049  68.795  1.00  0.00    -0.202 N  
HETATM   12  O   UNL     1     -12.323  11.121  68.807  1.00  0.00    -0.539 OA 
HETATM   13  C   UNL     1     -11.257  10.729  69.240  1.00  0.00    -0.272 C  
ENDROOT
BRANCH  11  14
HETATM   14  C   UNL     1      -9.745  12.066  67.780  1.00  0.00    -0.192 C  
HETATM   15  C   UNL     1     -10.635  13.292  67.947  1.00  0.00    -0.246 C  
HETATM   16  C   UNL     1     -10.157  14.378  66.992  1.00  0.00    -0.256 C  
HETATM   17  C   UNL     1     -10.114  13.882  65.564  1.00  0.00    -0.298 C  
HETATM   18  O   UNL     1     -10.299  14.629  64.607  1.00  0.00    -0.340 OA 
HETATM   19  N   UNL     1      -9.834  12.551  65.376  1.00  0.00    -0.410 N  
HETATM   20  C   UNL     1      -9.894  11.562  66.336  1.00  0.00    -0.205 C  
HETATM   21  H   UNL     1      -9.555  12.265  64.438  1.00  0.00     0.000 HD 
HETATM   22  O   UNL     1     -10.076  10.391  66.017  1.00  0.00    -0.230 OA 
ENDBRANCH  11  14
TORSDOF 1
ENDMDL
MODEL       76
REMARK 921   NORMALIZED FREE ENERGY PREDICTED BY IDOCK:   -4.87 KCAL/MOL
REMARK 922        TOTAL FREE ENERGY PREDICTED BY IDOCK:   -5.50 KCAL/MOL
REMARK 923 INTER-LIGAND FREE ENERGY PREDICTED BY IDOCK:   -5.22 KCAL/MOL
REMARK 924 INTRA-LIGAND FREE ENERGY PREDICTED BY IDOCK:   -0.28 KCAL/MOL
REMARK 927      BINDING AFFINITY PREDICTED BY RF-SCORE:    0.00 PKD
ROOT
HETATM    1  N   UNL     1     -12.372  13.463  63.094  1.00  0.00    -0.940 NA 
HETATM    2  C   UNL     1     -11.617  13.648  64.252  1.00  0.00    -0.382 A  
HETATM    3  H1  UNL     1     -12.138  12.709  62.448  1.00  0.00     0.000 HD 
HETATM    4  H2  UNL     1     -12.386  14.340  62.574  1.00  0.00     0.000 HD 
HETATM    5  C   UNL     1     -11.940  14.688  65.142  1.00  0.00    -0.334 A  
HETATM    6  C   UNL     1     -11.295  14.829  66.387  1.00  0.00    -0.339 A  
HETATM    7  C   UNL     1     -10.343  13.902  66.797  1.00  0.00    -0.272 A  
HETATM    8  C   UNL     1     -10.079  12.854  65.936  1.00  0.00    -0.295 A  
HETATM    9  C   UNL     1     -10.701  12.707  64.692  1.00  0.00    -0.353 A  
HETATM   10  C   UNL     1     -10.216  11.454  64.038  1.00  0.00    -0.346 C  
HETATM   11  N   UNL     1      -9.221  10.959  64.981  1.00  0.00    -0.204 N  
HETATM   12  O   UNL     1      -8.491  11.534  67.126  1.00  0.00    -0.146 OA 
HETATM   13  C   UNL     1      -9.165  11.725  66.132  1.00  0.00    -0.210 C  
ENDROOT
BRANCH  11  14
HETATM   14  C   UNL     1      -8.544   9.675  64.860  1.00  0.00    -0.170 C  
HETATM   15  C   UNL     1      -8.364   9.234  63.412  1.00  0.00    -0.193 C  
HETATM   16  C   UNL     1      -7.457   8.011  63.381  1.00  0.00    -0.122 C  
HETATM   17  C   UNL     1      -7.987   6.904  64.263  1.00  0.00    -0.086 C  
HETATM   18  O   UNL     1      -7.791   5.718  64.012  1.00  0.00    -0.104 OA 
HETATM   19  N   UNL     1      -8.688   7.282  65.382  1.00  0.00    -0.347 N  
HETATM   20  C   UNL     1      -9.224   8.529  65.625  1.00  0.00    -0.095 C  
HETATM   21  H   UNL     1      -8.827   6.573  66.101  1.00  0.00     0.000 HD 
HETATM   22  O   UNL     1     -10.180   8.662  66.383  1.00  0.00    -0.282 OA 
ENDBRANCH  11  14
TORSDOF 1
ENDMDL
MODEL       77
REMARK 921   NORMALIZED FREE ENERGY PREDICTED BY IDOCK:   -4.87 KCAL/MOL
REMARK 922        TOTAL FREE ENERGY PREDICTED BY IDOCK:   -5.49 KCAL/MOL
REMARK 923 INTER-LIGAND FREE ENERGY PREDICTED BY IDOCK:   -5.18 KCAL/MOL
REMARK 924 INTRA-LIGAND FREE ENERGY PREDICTED BY IDOCK:   -0.31 KCAL/MOL
REMARK 927      BINDING AFFINITY PREDICTED BY RF-SCORE:    0.00 PKD
ROOT
HETATM    1  N   UNL     1      -7.143  11.544  70.031  1.00  0.00    -0.392 NA 
HETATM    2  C   UNL     1      -7.703  10.324  69.654  1.00  0.00    -0.160 A  
HETATM    3  H1  UNL     1      -7.249  12.362  69.430  1.00  0.00     0.000 HD 
HETATM    4  H2  UNL     1      -6.149  11.402  70.210  1.00  0.00     0.000 HD 
HETATM    5  C   UNL     1      -7.557   9.198  70.482  1.00  0.00    -0.130 A  
HETATM    6  C   UNL     1      -8.218   7.983  70.211  1.00  0.00    -0.123 A  
HETATM    7  C   UNL     1      -9.084   7.879  69.128  1.00  0.00    -0.145 A  
HETATM    8  C   UNL     1      -9.261   9.011  68.357  1.00  0.00    -0.137 A  
HETATM    9  C   UNL     1      -8.602  10.220  68.606  1.00  0.00    -0.128 A  
HETATM   10  C   UNL     1      -9.048  11.243  67.612  1.00  0.00    -0.149 C  
HETATM   11  N   UNL     1      -9.945  10.486  66.746  1.00  0.00    -0.196 N  
HETATM   12  O   UNL     1     -10.875   8.341  66.736  1.00  0.00    -0.188 OA 
HETATM   13  C   UNL     1     -10.138   9.192  67.197  1.00  0.00    -0.236 C  
ENDROOT
BRANCH  11  14
HETATM   14  C   UNL     1     -10.749  11.074  65.683  1.00  0.00    -0.148 C  
HETATM   15  C   UNL     1      -9.923  11.899  64.703  1.00  0.00    -0.257 C  
HETATM   16  C   UNL     1     -10.802  12.277  63.519  1.00  0.00    -0.508 C  
HETATM   17  C   UNL     1     -12.057  12.993  63.965  1.00  0.00    -0.450 C  
HETATM   18  O   UNL     1     -12.613  13.835  63.265  1.00  0.00    -0.830 OA 
HETATM   19  N   UNL     1     -12.570  12.644  65.189  1.00  0.00    -0.482 N  
HETATM   20  C   UNL     1     -11.909  11.950  66.182  1.00  0.00    -0.028 C  
HETATM   21  H   UNL     1     -13.530  12.924  65.384  1.00  0.00     0.000 HD 
HETATM   22  O   UNL     1     -12.242  12.071  67.357  1.00  0.00    -0.491 OA 
ENDBRANCH  11  14
TORSDOF 1
ENDMDL
MODEL       78
REMARK 921   NORMALIZED FREE ENERGY PREDICTED BY IDOCK:   -4.86 KCAL/MOL
REMARK 922        TOTAL FREE ENERGY PREDICTED BY IDOCK:   -5.49 KCAL/MOL
REMARK 923 INTER-LIGAND FREE ENERGY PREDICTED BY IDOCK:   -6.96 KCAL/MOL
REMARK 924 INTRA-LIGAND FREE ENERGY PREDICTED BY IDOCK:    1.47 KCAL/MOL
REMARK 927      BINDING AFFINITY PREDICTED BY RF-SCORE:    0.00 PKD
ROOT
HETATM    1  N   UNL     1     -11.441  14.222  65.035  1.00  0.00    -0.347 NA 
HETATM    2  C   UNL     1     -11.362  13.142  65.913  1.00  0.00    -0.311 A  
HETATM    3  H1  UNL     1     -11.863  15.099  65.342  1.00  0.00     0.000 HD 
HETATM    4  H2  UNL     1     -11.916  13.915  64.186  1.00  0.00     0.000 HD 
HETATM    5  C   UNL     1     -10.780  11.934  65.491  1.00  0.00    -0.329 A  
HETATM    6  C   UNL     1     -10.556  10.864  66.380  1.00  0.00    -0.289 A  
HETATM    7  C   UNL     1     -10.864  10.994  67.730  1.00  0.00    -0.297 A  
HETATM    8  C   UNL     1     -11.382  12.207  68.140  1.00  0.00    -0.349 A  
HETATM    9  C   UNL     1     -11.622  13.273  67.267  1.00  0.00    -0.404 A  
HETATM   10  C   UNL     1     -12.146  14.440  68.040  1.00  0.00    -0.231 C  
HETATM   11  N   UNL     1     -12.251  13.912  69.395  1.00  0.00    -0.335 N  
HETATM   12  O   UNL     1     -11.635  11.944  70.495  1.00  0.00    -0.150 OA 
HETATM   13  C   UNL     1     -11.750  12.626  69.495  1.00  0.00    -0.308 C  
ENDROOT
BRANCH  11  14
HETATM   14  C   UNL     1     -12.596  14.712  70.562  1.00  0.00    -0.350 C  
HETATM   15  C   UNL     1     -11.398  15.449  71.151  1.00  0.00    -0.427 C  
HETATM   16  C   UNL     1     -11.895  16.423  72.211  1.00  0.00    -0.531 C  
HETATM   17  C   UNL     1     -12.720  15.721  73.267  1.00  0.00    -0.525 C  
HETATM   18  O   UNL     1     -12.763  16.113  74.430  1.00  0.00    -0.702 OA 
HETATM   19  N   UNL     1     -13.446  14.627  72.863  1.00  0.00    -0.471 N  
HETATM   20  C   UNL     1     -13.269  13.918  71.693  1.00  0.00    -0.370 C  
HETATM   21  H   UNL     1     -14.186  14.309  73.488  1.00  0.00     0.000 HD 
HETATM   22  O   UNL     1     -13.616  12.744  71.616  1.00  0.00    -0.235 OA 
ENDBRANCH  11  14
TORSDOF 1
ENDMDL
MODEL       79
REMARK 921   NORMALIZED FREE ENERGY PREDICTED BY IDOCK:   -4.85 KCAL/MOL
REMARK 922        TOTAL FREE ENERGY PREDICTED BY IDOCK:   -5.47 KCAL/MOL
REMARK 923 INTER-LIGAND FREE ENERGY PREDICTED BY IDOCK:   -5.12 KCAL/MOL
REMARK 924 INTRA-LIGAND FREE ENERGY PREDICTED BY IDOCK:   -0.35 KCAL/MOL
REMARK 927      BINDING AFFINITY PREDICTED BY RF-SCORE:    0.00 PKD
ROOT
HETATM    1  N   UNL     1     -11.475   4.593  65.310  1.00  0.00    -1.096 NA 
HETATM    2  C   UNL     1     -10.217   4.710  65.902  1.00  0.00    -0.276 A  
HETATM    3  H1  UNL     1     -12.303   4.932  65.801  1.00  0.00     0.000 HD 
HETATM    4  H2  UNL     1     -11.625   3.616  65.061  1.00  0.00     0.000 HD 
HETATM    5  C   UNL     1      -9.077   4.243  65.226  1.00  0.00    -0.143 A  
HETATM    6  C   UNL     1      -7.776   4.462  65.722  1.00  0.00    -0.090 A  
HETATM    7  C   UNL     1      -7.580   5.198  66.885  1.00  0.00    -0.088 A  
HETATM    8  C   UNL     1      -8.707   5.699  67.507  1.00  0.00    -0.107 A  
HETATM    9  C   UNL     1     -10.005   5.479  67.034  1.00  0.00    -0.198 A  
HETATM   10  C   UNL     1     -10.982   6.188  67.916  1.00  0.00    -0.304 C  
HETATM   11  N   UNL     1     -10.131   6.752  68.957  1.00  0.00    -0.159 N  
HETATM   12  O   UNL     1      -7.833   6.934  69.348  1.00  0.00    -0.109 OA 
HETATM   13  C   UNL     1      -8.787   6.535  68.708  1.00  0.00    -0.125 C  
ENDROOT
BRANCH  11  14
HETATM   14  C   UNL     1     -10.599   7.655  69.999  1.00  0.00    -0.238 C  
HETATM   15  C   UNL     1     -11.867   7.160  70.686  1.00  0.00    -0.334 C  
HETATM   16  C   UNL     1     -12.145   8.042  71.896  1.00  0.00    -0.359 C  
HETATM   17  C   UNL     1     -12.226   9.503  71.512  1.00  0.00    -0.386 C  
HETATM   18  O   UNL     1     -12.934  10.300  72.120  1.00  0.00    -0.416 OA 
HETATM   19  N   UNL     1     -11.449   9.911  70.456  1.00  0.00    -0.295 N  
HETATM   20  C   UNL     1     -10.848   9.094  69.522  1.00  0.00    -0.180 C  
HETATM   21  H   UNL     1     -11.301  10.915  70.353  1.00  0.00     0.000 HD 
HETATM   22  O   UNL     1     -10.572   9.519  68.404  1.00  0.00    -0.220 OA 
ENDBRANCH  11  14
TORSDOF 1
ENDMDL
MODEL       80
REMARK 921   NORMALIZED FREE ENERGY PREDICTED BY IDOCK:   -4.80 KCAL/MOL
REMARK 922        TOTAL FREE ENERGY PREDICTED BY IDOCK:   -5.43 KCAL/MOL
REMARK 923 INTER-LIGAND FREE ENERGY PREDICTED BY IDOCK:   -5.07 KCAL/MOL
REMARK 924 INTRA-LIGAND FREE ENERGY PREDICTED BY IDOCK:   -0.36 KCAL/MOL
REMARK 927      BINDING AFFINITY PREDICTED BY RF-SCORE:    0.00 PKD
ROOT
HETATM    1  N   UNL     1     -10.379  11.517  62.848  1.00  0.00    -0.656 NA 
HETATM    2  C   UNL     1     -10.742  11.943  64.125  1.00  0.00    -0.351 A  
HETATM    3  H1  UNL     1      -9.711  10.754  62.735  1.00  0.00     0.000 HD 
HETATM    4  H2  UNL     1     -10.039  12.323  62.323  1.00  0.00     0.000 HD 
HETATM    5  C   UNL     1     -11.662  12.994  64.280  1.00  0.00    -0.444 A  
HETATM    6  C   UNL     1     -12.162  13.367  65.543  1.00  0.00    -0.499 A  
HETATM    7  C   UNL     1     -11.790  12.663  66.683  1.00  0.00    -0.449 A  
HETATM    8  C   UNL     1     -10.930  11.596  66.508  1.00  0.00    -0.349 A  
HETATM    9  C   UNL     1     -10.415  11.223  65.262  1.00  0.00    -0.341 A  
HETATM   10  C   UNL     1      -9.553  10.013  65.422  1.00  0.00    -0.279 C  
HETATM   11  N   UNL     1      -9.566   9.793  66.863  1.00  0.00    -0.172 N  
HETATM   12  O   UNL     1     -10.695  10.695  68.701  1.00  0.00    -0.180 OA 
HETATM   13  C   UNL     1     -10.416  10.667  67.518  1.00  0.00    -0.230 C  
ENDROOT
BRANCH  11  14
HETATM   14  C   UNL     1      -8.969   8.639  67.523  1.00  0.00    -0.134 C  
HETATM   15  C   UNL     1      -7.567   8.327  67.014  1.00  0.00    -0.092 C  
HETATM   16  C   UNL     1      -6.946   7.263  67.910  1.00  0.00    -0.076 C  
HETATM   17  C   UNL     1      -7.819   6.031  67.996  1.00  0.00    -0.106 C  
HETATM   18  O   UNL     1      -7.351   4.909  68.165  1.00  0.00    -0.068 OA 
HETATM   19  N   UNL     1      -9.175   6.223  67.899  1.00  0.00    -0.117 N  
HETATM   20  C   UNL     1      -9.807   7.355  67.427  1.00  0.00    -0.169 C  
HETATM   21  H   UNL     1      -9.773   5.456  68.205  1.00  0.00     0.000 HD 
HETATM   22  O   UNL     1     -10.938   7.289  66.957  1.00  0.00    -0.358 OA 
ENDBRANCH  11  14
TORSDOF 1
ENDMDL
MODEL       81
REMARK 921   NORMALIZED FREE ENERGY PREDICTED BY IDOCK:   -4.80 KCAL/MOL
REMARK 922        TOTAL FREE ENERGY PREDICTED BY IDOCK:   -5.42 KCAL/MOL
REMARK 923 INTER-LIGAND FREE ENERGY PREDICTED BY IDOCK:   -5.45 KCAL/MOL
REMARK 924 INTRA-LIGAND FREE ENERGY PREDICTED BY IDOCK:    0.02 KCAL/MOL
REMARK 927      BINDING AFFINITY PREDICTED BY RF-SCORE:    0.00 PKD
ROOT
HETATM    1  N   UNL     1     -10.814  10.868  62.850  1.00  0.00    -0.698 NA 
HETATM    2  C   UNL     1      -9.851  10.657  63.838  1.00  0.00    -0.338 A  
HETATM    3  H1  UNL     1     -11.739  11.214  63.105  1.00  0.00     0.000 HD 
HETATM    4  H2  UNL     1     -10.927  10.004  62.320  1.00  0.00     0.000 HD 
HETATM    5  C   UNL     1      -8.576  10.181  63.486  1.00  0.00    -0.201 A  
HETATM    6  C   UNL     1      -7.532  10.083  64.427  1.00  0.00    -0.141 A  
HETATM    7  C   UNL     1      -7.723  10.507  65.738  1.00  0.00    -0.145 A  
HETATM    8  C   UNL     1      -8.964  11.026  66.053  1.00  0.00    -0.209 A  
HETATM    9  C   UNL     1     -10.014  11.117  65.134  1.00  0.00    -0.323 A  
HETATM   10  C   UNL     1     -11.195  11.756  65.790  1.00  0.00    -0.281 C  
HETATM   11  N   UNL     1     -10.744  11.940  67.164  1.00  0.00    -0.230 N  
HETATM   12  O   UNL     1      -8.738  11.677  68.335  1.00  0.00    -0.158 OA 
HETATM   13  C   UNL     1      -9.419  11.579  67.332  1.00  0.00    -0.165 C  
ENDROOT
BRANCH  11  14
HETATM   14  C   UNL     1     -11.498  12.653  68.186  1.00  0.00    -0.313 C  
HETATM   15  C   UNL     1     -10.798  13.921  68.661  1.00  0.00    -0.278 C  
HETATM   16  C   UNL     1     -11.755  14.705  69.549  1.00  0.00    -0.366 C  
HETATM   17  C   UNL     1     -12.268  13.862  70.695  1.00  0.00    -0.373 C  
HETATM   18  O   UNL     1     -12.571  14.349  71.780  1.00  0.00    -0.332 OA 
HETATM   19  N   UNL     1     -12.403  12.515  70.463  1.00  0.00    -0.308 N  
HETATM   20  C   UNL     1     -11.839  11.807  69.422  1.00  0.00    -0.334 C  
HETATM   21  H   UNL     1     -12.973  11.989  71.123  1.00  0.00     0.000 HD 
HETATM   22  O   UNL     1     -11.626  10.603  69.529  1.00  0.00    -0.256 OA 
ENDBRANCH  11  14
TORSDOF 1
ENDMDL
MODEL       82
REMARK 921   NORMALIZED FREE ENERGY PREDICTED BY IDOCK:   -4.79 KCAL/MOL
REMARK 922        TOTAL FREE ENERGY PREDICTED BY IDOCK:   -5.42 KCAL/MOL
REMARK 923 INTER-LIGAND FREE ENERGY PREDICTED BY IDOCK:   -5.05 KCAL/MOL
REMARK 924 INTRA-LIGAND FREE ENERGY PREDICTED BY IDOCK:   -0.36 KCAL/MOL
REMARK 927      BINDING AFFINITY PREDICTED BY RF-SCORE:    0.00 PKD
ROOT
HETATM    1  N   UNL     1      -8.539  18.347  67.998  1.00  0.00    -0.266 NA 
HETATM    2  C   UNL     1      -7.794  17.184  68.195  1.00  0.00    -0.206 A  
HETATM    3  H1  UNL     1      -9.300  18.355  67.318  1.00  0.00     0.000 HD 
HETATM    4  H2  UNL     1      -7.897  19.107  67.773  1.00  0.00     0.000 HD 
HETATM    5  C   UNL     1      -6.745  17.173  69.131  1.00  0.00    -0.238 A  
HETATM    6  C   UNL     1      -6.055  15.990  69.463  1.00  0.00    -0.161 A  
HETATM    7  C   UNL     1      -6.432  14.774  68.901  1.00  0.00    -0.089 A  
HETATM    8  C   UNL     1      -7.501  14.793  68.027  1.00  0.00    -0.135 A  
HETATM    9  C   UNL     1      -8.187  15.961  67.678  1.00  0.00    -0.164 A  
HETATM   10  C   UNL     1      -9.305  15.622  66.747  1.00  0.00    -0.246 C  
HETATM   11  N   UNL     1      -9.138  14.188  66.546  1.00  0.00    -0.219 N  
HETATM   12  O   UNL     1      -7.791  12.501  67.442  1.00  0.00    -0.158 OA 
HETATM   13  C   UNL     1      -8.128  13.664  67.333  1.00  0.00    -0.175 C  
ENDROOT
BRANCH  11  14
HETATM   14  C   UNL     1     -10.073  13.348  65.809  1.00  0.00    -0.288 C  
HETATM   15  C   UNL     1     -10.564  13.999  64.521  1.00  0.00    -0.332 C  
HETATM   16  C   UNL     1     -11.346  12.967  63.718  1.00  0.00    -0.490 C  
HETATM   17  C   UNL     1     -12.471  12.367  64.532  1.00  0.00    -0.435 C  
HETATM   18  O   UNL     1     -13.513  11.973  64.014  1.00  0.00    -0.655 OA 
HETATM   19  N   UNL     1     -12.271  12.261  65.886  1.00  0.00    -0.207 N  
HETATM   20  C   UNL     1     -11.302  12.912  66.620  1.00  0.00    -0.317 C  
HETATM   21  H   UNL     1     -12.898  11.641  66.397  1.00  0.00     0.000 HD 
HETATM   22  O   UNL     1     -11.463  13.123  67.818  1.00  0.00    -0.276 OA 
ENDBRANCH  11  14
TORSDOF 1
ENDMDL
MODEL       83
REMARK 921   NORMALIZED FREE ENERGY PREDICTED BY IDOCK:   -4.79 KCAL/MOL
REMARK 922        TOTAL FREE ENERGY PREDICTED BY IDOCK:   -5.41 KCAL/MOL
REMARK 923 INTER-LIGAND FREE ENERGY PREDICTED BY IDOCK:   -5.07 KCAL/MOL
REMARK 924 INTRA-LIGAND FREE ENERGY PREDICTED BY IDOCK:   -0.34 KCAL/MOL
REMARK 927      BINDING AFFINITY PREDICTED BY RF-SCORE:    0.00 PKD
ROOT
HETATM    1  N   UNL     1     -11.372  12.065  69.941  1.00  0.00    -0.510 NA 
HETATM    2  C   UNL     1     -11.787  10.943  70.658  1.00  0.00    -0.352 A  
HETATM    3  H1  UNL     1     -10.584  11.995  69.296  1.00  0.00     0.000 HD 
HETATM    4  H2  UNL     1     -11.182  12.819  70.601  1.00  0.00     0.000 HD 
HETATM    5  C   UNL     1     -12.873  11.040  71.546  1.00  0.00    -0.555 A  
HETATM    6  C   UNL     1     -13.414   9.907  72.187  1.00  0.00    -0.454 A  
HETATM    7  C   UNL     1     -12.912   8.638  71.917  1.00  0.00    -0.409 A  
HETATM    8  C   UNL     1     -11.883   8.554  70.998  1.00  0.00    -0.290 A  
HETATM    9  C   UNL     1     -11.327   9.670  70.364  1.00  0.00    -0.337 A  
HETATM   10  C   UNL     1     -10.268   9.223  69.410  1.00  0.00    -0.210 C  
HETATM   11  N   UNL     1     -10.225   7.782  69.623  1.00  0.00    -0.201 N  
HETATM   12  O   UNL     1     -11.470   6.213  70.829  1.00  0.00    -0.324 OA 
HETATM   13  C   UNL     1     -11.205   7.354  70.501  1.00  0.00    -0.274 C  
ENDROOT
BRANCH  11  14
HETATM   14  C   UNL     1      -9.430   6.858  68.825  1.00  0.00    -0.135 C  
HETATM   15  C   UNL     1      -7.977   7.297  68.684  1.00  0.00    -0.124 C  
HETATM   16  C   UNL     1      -7.186   6.168  68.036  1.00  0.00    -0.083 C  
HETATM   17  C   UNL     1      -7.795   5.747  66.718  1.00  0.00    -0.101 C  
HETATM   18  O   UNL     1      -7.116   5.302  65.797  1.00  0.00    -0.065 OA 
HETATM   19  N   UNL     1      -9.158   5.863  66.598  1.00  0.00    -0.130 N  
HETATM   20  C   UNL     1      -9.988   6.600  67.417  1.00  0.00    -0.145 C  
HETATM   21  H   UNL     1      -9.598   5.357  65.831  1.00  0.00     0.000 HD 
HETATM   22  O   UNL     1     -11.067   7.014  67.003  1.00  0.00    -0.373 OA 
ENDBRANCH  11  14
TORSDOF 1
ENDMDL
MODEL       84
REMARK 921   NORMALIZED FREE ENERGY PREDICTED BY IDOCK:   -4.79 KCAL/MOL
REMARK 922        TOTAL FREE ENERGY PREDICTED BY IDOCK:   -5.41 KCAL/MOL
REMARK 923 INTER-LIGAND FREE ENERGY PREDICTED BY IDOCK:   -5.07 KCAL/MOL
REMARK 924 INTRA-LIGAND FREE ENERGY PREDICTED BY IDOCK:   -0.34 KCAL/MOL
REMARK 927      BINDING AFFINITY PREDICTED BY RF-SCORE:    0.00 PKD
ROOT
HETATM    1  N   UNL     1     -11.935   7.799  70.105  1.00  0.00    -0.371 NA 
HETATM    2  C   UNL     1     -10.658   8.355  70.045  1.00  0.00    -0.235 A  
HETATM    3  H1  UNL     1     -12.711   8.251  69.620  1.00  0.00     0.000 HD 
HETATM    4  H2  UNL     1     -12.191   7.682  71.085  1.00  0.00     0.000 HD 
HETATM    5  C   UNL     1      -9.589   7.732  70.712  1.00  0.00    -0.167 A  
HETATM    6  C   UNL     1      -8.260   8.178  70.569  1.00  0.00    -0.117 A  
HETATM    7  C   UNL     1      -7.959   9.233  69.713  1.00  0.00    -0.103 A  
HETATM    8  C   UNL     1      -9.013   9.797  69.021  1.00  0.00    -0.154 A  
HETATM    9  C   UNL     1     -10.339   9.373  69.162  1.00  0.00    -0.221 A  
HETATM   10  C   UNL     1     -11.214  10.166  68.247  1.00  0.00    -0.183 C  
HETATM   11  N   UNL     1     -10.284  11.114  67.646  1.00  0.00    -0.178 N  
HETATM   12  O   UNL     1      -7.970  11.450  67.657  1.00  0.00    -0.115 OA 
HETATM   13  C   UNL     1      -8.976  10.879  68.033  1.00  0.00    -0.145 C  
ENDROOT
BRANCH  11  14
HETATM   14  C   UNL     1     -10.630  12.035  66.572  1.00  0.00    -0.234 C  
HETATM   15  C   UNL     1     -11.900  12.828  66.858  1.00  0.00    -0.440 C  
HETATM   16  C   UNL     1     -12.051  13.910  65.797  1.00  0.00    -0.449 C  
HETATM   17  C   UNL     1     -12.033  13.328  64.402  1.00  0.00    -0.406 C  
HETATM   18  O   UNL     1     -12.647  13.842  63.472  1.00  0.00    -0.814 OA 
HETATM   19  N   UNL     1     -11.276  12.199  64.210  1.00  0.00    -0.325 N  
HETATM   20  C   UNL     1     -10.785  11.368  65.196  1.00  0.00    -0.269 C  
HETATM   21  H   UNL     1     -11.054  11.950  63.246  1.00  0.00     0.000 HD 
HETATM   22  O   UNL     1     -10.529  10.193  64.953  1.00  0.00    -0.144 OA 
ENDBRANCH  11  14
TORSDOF 1
ENDMDL
MODEL       85
REMARK 921   NORMALIZED FREE ENERGY PREDICTED BY IDOCK:   -4.77 KCAL/MOL
REMARK 922        TOTAL FREE ENERGY PREDICTED BY IDOCK:   -5.39 KCAL/MOL
REMARK 923 INTER-LIGAND FREE ENERGY PREDICTED BY IDOCK:   -5.42 KCAL/MOL
REMARK 924 INTRA-LIGAND FREE ENERGY PREDICTED BY IDOCK:    0.02 KCAL/MOL
REMARK 927      BINDING AFFINITY PREDICTED BY RF-SCORE:    0.00 PKD
ROOT
HETATM    1  N   UNL     1     -12.097   8.131  72.836  1.00  0.00    -0.617 NA 
HETATM    2  C   UNL     1     -11.503   7.722  71.642  1.00  0.00    -0.261 A  
HETATM    3  H1  UNL     1     -12.167   9.124  73.057  1.00  0.00     0.000 HD 
HETATM    4  H2  UNL     1     -11.626   7.661  73.609  1.00  0.00     0.000 HD 
HETATM    5  C   UNL     1     -11.407   6.353  71.338  1.00  0.00    -0.354 A  
HETATM    6  C   UNL     1     -10.940   5.899  70.088  1.00  0.00    -0.412 A  
HETATM    7  C   UNL     1     -10.603   6.807  69.090  1.00  0.00    -0.261 A  
HETATM    8  C   UNL     1     -10.758   8.148  69.384  1.00  0.00    -0.164 A  
HETATM    9  C   UNL     1     -11.207   8.614  70.624  1.00  0.00    -0.284 A  
HETATM   10  C   UNL     1     -11.294  10.106  70.593  1.00  0.00    -0.352 C  
HETATM   11  N   UNL     1     -10.784  10.433  69.267  1.00  0.00    -0.220 N  
HETATM   12  O   UNL     1     -10.154   9.243  67.356  1.00  0.00    -0.191 OA 
HETATM   13  C   UNL     1     -10.522   9.303  68.513  1.00  0.00    -0.206 C  
ENDROOT
BRANCH  11  14
HETATM   14  C   UNL     1     -10.787  11.773  68.695  1.00  0.00    -0.220 C  
HETATM   15  C   UNL     1     -11.688  11.892  67.472  1.00  0.00    -0.335 C  
HETATM   16  C   UNL     1     -11.801  13.362  67.088  1.00  0.00    -0.429 C  
HETATM   17  C   UNL     1     -10.440  13.985  66.870  1.00  0.00    -0.276 C  
HETATM   18  O   UNL     1     -10.263  14.905  66.076  1.00  0.00    -0.270 OA 
HETATM   19  N   UNL     1      -9.403  13.490  67.619  1.00  0.00    -0.208 N  
HETATM   20  C   UNL     1      -9.394  12.298  68.313  1.00  0.00    -0.199 C  
HETATM   21  H   UNL     1      -8.557  14.057  67.668  1.00  0.00     0.000 HD 
HETATM   22  O   UNL     1      -8.337  11.728  68.564  1.00  0.00    -0.156 OA 
ENDBRANCH  11  14
TORSDOF 1
ENDMDL
MODEL       86
REMARK 921   NORMALIZED FREE ENERGY PREDICTED BY IDOCK:   -4.76 KCAL/MOL
REMARK 922        TOTAL FREE ENERGY PREDICTED BY IDOCK:   -5.38 KCAL/MOL
REMARK 923 INTER-LIGAND FREE ENERGY PREDICTED BY IDOCK:   -5.07 KCAL/MOL
REMARK 924 INTRA-LIGAND FREE ENERGY PREDICTED BY IDOCK:   -0.31 KCAL/MOL
REMARK 927      BINDING AFFINITY PREDICTED BY RF-SCORE:    0.00 PKD
ROOT
HETATM    1  N   UNL     1      -6.587  15.773  67.061  1.00  0.00    -0.285 NA 
HETATM    2  C   UNL     1      -7.934  16.025  66.799  1.00  0.00    -0.267 A  
HETATM    3  H1  UNL     1      -6.291  14.845  67.364  1.00  0.00     0.000 HD 
HETATM    4  H2  UNL     1      -6.258  16.456  67.744  1.00  0.00     0.000 HD 
HETATM    5  C   UNL     1      -8.341  17.304  66.381  1.00  0.00    -0.315 A  
HETATM    6  C   UNL     1      -9.664  17.568  65.974  1.00  0.00    -0.160 A  
HETATM    7  C   UNL     1     -10.605  16.545  65.928  1.00  0.00    -0.279 A  
HETATM    8  C   UNL     1     -10.174  15.282  66.287  1.00  0.00    -0.300 A  
HETATM    9  C   UNL     1      -8.868  15.007  66.705  1.00  0.00    -0.299 A  
HETATM   10  C   UNL     1      -8.732  13.544  66.980  1.00  0.00    -0.187 C  
HETATM   11  N   UNL     1     -10.083  13.044  66.757  1.00  0.00    -0.242 N  
HETATM   12  O   UNL     1     -12.096  13.914  65.948  1.00  0.00    -0.384 OA 
HETATM   13  C   UNL     1     -10.935  14.029  66.289  1.00  0.00    -0.300 C  
ENDROOT
BRANCH  11  14
HETATM   14  C   UNL     1     -10.448  11.634  66.772  1.00  0.00    -0.230 C  
HETATM   15  C   UNL     1     -10.026  10.926  68.055  1.00  0.00    -0.188 C  
HETATM   16  C   UNL     1     -10.645   9.535  68.073  1.00  0.00    -0.282 C  
HETATM   17  C   UNL     1     -10.285   8.750  66.831  1.00  0.00    -0.287 C  
HETATM   18  O   UNL     1     -10.178   7.527  66.840  1.00  0.00    -0.252 OA 
HETATM   19  N   UNL     1     -10.100   9.467  65.675  1.00  0.00    -0.360 N  
HETATM   20  C   UNL     1      -9.902  10.829  65.583  1.00  0.00    -0.245 C  
HETATM   21  H   UNL     1     -10.109   8.942  64.801  1.00  0.00     0.000 HD 
HETATM   22  O   UNL     1      -9.313  11.311  64.620  1.00  0.00    -0.208 OA 
ENDBRANCH  11  14
TORSDOF 1
ENDMDL
MODEL       87
REMARK 921   NORMALIZED FREE ENERGY PREDICTED BY IDOCK:   -4.74 KCAL/MOL
REMARK 922        TOTAL FREE ENERGY PREDICTED BY IDOCK:   -5.36 KCAL/MOL
REMARK 923 INTER-LIGAND FREE ENERGY PREDICTED BY IDOCK:   -5.46 KCAL/MOL
REMARK 924 INTRA-LIGAND FREE ENERGY PREDICTED BY IDOCK:    0.10 KCAL/MOL
REMARK 927      BINDING AFFINITY PREDICTED BY RF-SCORE:    0.00 PKD
ROOT
HETATM    1  N   UNL     1     -13.022  14.341  65.130  1.00  0.00    -0.676 NA 
HETATM    2  C   UNL     1     -11.695  14.291  65.556  1.00  0.00    -0.353 A  
HETATM    3  H1  UNL     1     -13.639  13.544  65.287  1.00  0.00     0.000 HD 
HETATM    4  H2  UNL     1     -13.033  14.567  64.135  1.00  0.00     0.000 HD 
HETATM    5  C   UNL     1     -10.846  15.390  65.340  1.00  0.00    -0.403 A  
HETATM    6  C   UNL     1      -9.542  15.440  65.871  1.00  0.00    -0.386 A  
HETATM    7  C   UNL     1      -9.070  14.409  66.677  1.00  0.00    -0.265 A  
HETATM    8  C   UNL     1      -9.937  13.363  66.928  1.00  0.00    -0.252 A  
HETATM    9  C   UNL     1     -11.229  13.294  66.397  1.00  0.00    -0.325 A  
HETATM   10  C   UNL     1     -11.906  12.057  66.894  1.00  0.00    -0.173 C  
HETATM   11  N   UNL     1     -10.862  11.409  67.678  1.00  0.00    -0.222 N  
HETATM   12  O   UNL     1      -8.706  11.951  68.401  1.00  0.00    -0.173 OA 
HETATM   13  C   UNL     1      -9.718  12.182  67.768  1.00  0.00    -0.197 C  
ENDROOT
BRANCH  11  14
HETATM   14  C   UNL     1     -11.066  10.215  68.488  1.00  0.00    -0.214 C  
HETATM   15  C   UNL     1     -10.492  10.349  69.894  1.00  0.00    -0.266 C  
HETATM   16  C   UNL     1     -10.950   9.158  70.726  1.00  0.00    -0.332 C  
HETATM   17  C   UNL     1     -10.578   7.847  70.069  1.00  0.00    -0.242 C  
HETATM   18  O   UNL     1     -10.335   6.836  70.722  1.00  0.00    -0.201 OA 
HETATM   19  N   UNL     1     -10.544   7.827  68.697  1.00  0.00    -0.342 N  
HETATM   20  C   UNL     1     -10.506   8.927  67.866  1.00  0.00    -0.223 C  
HETATM   21  H   UNL     1     -10.546   6.911  68.249  1.00  0.00     0.000 HD 
HETATM   22  O   UNL     1     -10.033   8.842  66.737  1.00  0.00    -0.219 OA 
ENDBRANCH  11  14
TORSDOF 1
ENDMDL
MODEL       88
REMARK 921   NORMALIZED FREE ENERGY PREDICTED BY IDOCK:   -4.69 KCAL/MOL
REMARK 922        TOTAL FREE ENERGY PREDICTED BY IDOCK:   -5.31 KCAL/MOL
REMARK 923 INTER-LIGAND FREE ENERGY PREDICTED BY IDOCK:   -4.95 KCAL/MOL
REMARK 924 INTRA-LIGAND FREE ENERGY PREDICTED BY IDOCK:   -0.36 KCAL/MOL
REMARK 927      BINDING AFFINITY PREDICTED BY RF-SCORE:    0.00 PKD
ROOT
HETATM    1  N   UNL     1      -5.971  17.529  67.997  1.00  0.00    -0.150 NA 
HETATM    2  C   UNL     1      -7.325  17.713  68.276  1.00  0.00    -0.234 A  
HETATM    3  H1  UNL     1      -5.635  16.619  67.681  1.00  0.00     0.000 HD 
HETATM    4  H2  UNL     1      -5.432  17.805  68.818  1.00  0.00     0.000 HD 
HETATM    5  C   UNL     1      -7.788  18.967  68.710  1.00  0.00    -0.378 A  
HETATM    6  C   UNL     1      -9.162  19.239  68.872  1.00  0.00    -0.383 A  
HETATM    7  C   UNL     1     -10.113  18.275  68.555  1.00  0.00    -0.419 A  
HETATM    8  C   UNL     1      -9.644  17.068  68.074  1.00  0.00    -0.260 A  
HETATM    9  C   UNL     1      -8.284  16.779  67.921  1.00  0.00    -0.189 A  
HETATM   10  C   UNL     1      -8.128  15.408  67.346  1.00  0.00    -0.180 C  
HETATM   11  N   UNL     1      -9.503  14.931  67.267  1.00  0.00    -0.209 N  
HETATM   12  O   UNL     1     -11.631  15.839  67.602  1.00  0.00    -0.197 OA 
HETATM   13  C   UNL     1     -10.417  15.905  67.627  1.00  0.00    -0.289 C  
ENDROOT
BRANCH  11  14
HETATM   14  C   UNL     1      -9.901  13.675  66.644  1.00  0.00    -0.284 C  
HETATM   15  C   UNL     1      -8.928  12.538  66.930  1.00  0.00    -0.212 C  
HETATM   16  C   UNL     1      -9.540  11.234  66.435  1.00  0.00    -0.223 C  
HETATM   17  C   UNL     1      -9.920  11.318  64.974  1.00  0.00    -0.274 C  
HETATM   18  O   UNL     1      -9.905  10.336  64.237  1.00  0.00    -0.329 OA 
HETATM   19  N   UNL     1     -10.309  12.548  64.503  1.00  0.00    -0.336 N  
HETATM   20  C   UNL     1     -10.098  13.762  65.123  1.00  0.00    -0.289 C  
HETATM   21  H   UNL     1     -10.800  12.565  63.610  1.00  0.00     0.000 HD 
HETATM   22  O   UNL     1     -10.057  14.799  64.468  1.00  0.00    -0.116 OA 
ENDBRANCH  11  14
TORSDOF 1
ENDMDL
MODEL       89
REMARK 921   NORMALIZED FREE ENERGY PREDICTED BY IDOCK:   -4.66 KCAL/MOL
REMARK 922        TOTAL FREE ENERGY PREDICTED BY IDOCK:   -5.27 KCAL/MOL
REMARK 923 INTER-LIGAND FREE ENERGY PREDICTED BY IDOCK:   -4.92 KCAL/MOL
REMARK 924 INTRA-LIGAND FREE ENERGY PREDICTED BY IDOCK:   -0.36 KCAL/MOL
REMARK 927      BINDING AFFINITY PREDICTED BY RF-SCORE:    0.00 PKD
ROOT
HETATM    1  N   UNL     1      -9.560   8.251  72.877  1.00  0.00    -0.270 NA 
HETATM    2  C   UNL     1      -9.805   7.514  71.719  1.00  0.00    -0.164 A  
HETATM    3  H1  UNL     1      -9.313   9.239  72.810  1.00  0.00     0.000 HD 
HETATM    4  H2  UNL     1      -8.838   7.775  73.417  1.00  0.00     0.000 HD 
HETATM    5  C   UNL     1     -10.145   6.153  71.812  1.00  0.00    -0.214 A  
HETATM    6  C   UNL     1     -10.534   5.403  70.684  1.00  0.00    -0.329 A  
HETATM    7  C   UNL     1     -10.640   6.011  69.437  1.00  0.00    -0.365 A  
HETATM    8  C   UNL     1     -10.358   7.362  69.373  1.00  0.00    -0.211 A  
HETATM    9  C   UNL     1      -9.958   8.116  70.482  1.00  0.00    -0.195 A  
HETATM   10  C   UNL     1      -9.772   9.541  70.072  1.00  0.00    -0.236 C  
HETATM   11  N   UNL     1     -10.023   9.503  68.637  1.00  0.00    -0.162 N  
HETATM   12  O   UNL     1     -10.777   7.917  67.094  1.00  0.00    -0.326 OA 
HETATM   13  C   UNL     1     -10.431   8.251  68.210  1.00  0.00    -0.161 C  
ENDROOT
BRANCH  11  14
HETATM   14  C   UNL     1     -10.093  10.682  67.785  1.00  0.00    -0.174 C  
HETATM   15  C   UNL     1      -8.940  11.651  68.020  1.00  0.00    -0.176 C  
HETATM   16  C   UNL     1      -8.974  12.724  66.939  1.00  0.00    -0.213 C  
HETATM   17  C   UNL     1     -10.316  13.420  66.890  1.00  0.00    -0.257 C  
HETATM   18  O   UNL     1     -10.431  14.592  66.543  1.00  0.00    -0.280 OA 
HETATM   19  N   UNL     1     -11.416  12.673  67.231  1.00  0.00    -0.321 N  
HETATM   20  C   UNL     1     -11.407  11.469  67.903  1.00  0.00    -0.303 C  
HETATM   21  H   UNL     1     -12.327  13.044  66.962  1.00  0.00     0.000 HD 
HETATM   22  O   UNL     1     -12.386  11.107  68.549  1.00  0.00    -0.561 OA 
ENDBRANCH  11  14
TORSDOF 1
ENDMDL
MODEL       90
REMARK 921   NORMALIZED FREE ENERGY PREDICTED BY IDOCK:   -4.63 KCAL/MOL
REMARK 922        TOTAL FREE ENERGY PREDICTED BY IDOCK:   -5.25 KCAL/MOL
REMARK 923 INTER-LIGAND FREE ENERGY PREDICTED BY IDOCK:   -4.92 KCAL/MOL
REMARK 924 INTRA-LIGAND FREE ENERGY PREDICTED BY IDOCK:   -0.33 KCAL/MOL
REMARK 927      BINDING AFFINITY PREDICTED BY RF-SCORE:    0.00 PKD
ROOT
HETATM    1  N   UNL     1     -14.369   6.585  72.206  1.00  0.00    -0.640 NA 
HETATM    2  C   UNL     1     -13.638   7.694  71.782  1.00  0.00    -0.324 A  
HETATM    3  H1  UNL     1     -14.122   5.653  71.872  1.00  0.00     0.000 HD 
HETATM    4  H2  UNL     1     -15.354   6.749  72.002  1.00  0.00     0.000 HD 
HETATM    5  C   UNL     1     -13.979   8.978  72.242  1.00  0.00    -0.522 A  
HETATM    6  C   UNL     1     -13.189  10.108  71.951  1.00  0.00    -0.557 A  
HETATM    7  C   UNL     1     -12.007   9.974  71.230  1.00  0.00    -0.483 A  
HETATM    8  C   UNL     1     -11.656   8.698  70.834  1.00  0.00    -0.307 A  
HETATM    9  C   UNL     1     -12.437   7.569  71.104  1.00  0.00    -0.306 A  
HETATM   10  C   UNL     1     -11.752   6.352  70.571  1.00  0.00    -0.317 C  
HETATM   11  N   UNL     1     -10.572   6.903  69.916  1.00  0.00    -0.219 N  
HETATM   12  O   UNL     1      -9.556   9.002  69.749  1.00  0.00    -0.165 OA 
HETATM   13  C   UNL     1     -10.457   8.269  70.109  1.00  0.00    -0.225 C  
ENDROOT
BRANCH  11  14
HETATM   14  C   UNL     1      -9.500   6.099  69.345  1.00  0.00    -0.138 C  
HETATM   15  C   UNL     1     -10.001   4.803  68.719  1.00  0.00    -0.182 C  
HETATM   16  C   UNL     1      -8.854   4.151  67.959  1.00  0.00    -0.134 C  
HETATM   17  C   UNL     1      -7.649   3.938  68.847  1.00  0.00    -0.054 C  
HETATM   18  O   UNL     1      -6.866   3.008  68.674  1.00  0.00    -0.043 OA 
HETATM   19  N   UNL     1      -7.450   4.850  69.854  1.00  0.00    -0.055 N  
HETATM   20  C   UNL     1      -8.380   5.747  70.337  1.00  0.00    -0.121 C  
HETATM   21  H   UNL     1      -6.528   4.865  70.287  1.00  0.00     0.000 HD 
HETATM   22  O   UNL     1      -8.292   6.184  71.480  1.00  0.00    -0.124 OA 
ENDBRANCH  11  14
TORSDOF 1
ENDMDL
MODEL       91
REMARK 921   NORMALIZED FREE ENERGY PREDICTED BY IDOCK:   -4.61 KCAL/MOL
REMARK 922        TOTAL FREE ENERGY PREDICTED BY IDOCK:   -5.23 KCAL/MOL
REMARK 923 INTER-LIGAND FREE ENERGY PREDICTED BY IDOCK:   -4.92 KCAL/MOL
REMARK 924 INTRA-LIGAND FREE ENERGY PREDICTED BY IDOCK:   -0.31 KCAL/MOL
REMARK 927      BINDING AFFINITY PREDICTED BY RF-SCORE:    0.00 PKD
ROOT
HETATM    1  N   UNL     1     -11.097  11.193  63.043  1.00  0.00    -0.801 NA 
HETATM    2  C   UNL     1     -11.350  12.153  64.023  1.00  0.00    -0.395 A  
HETATM    3  H1  UNL     1     -10.422  10.448  63.221  1.00  0.00     0.000 HD 
HETATM    4  H2  UNL     1     -10.829  11.671  62.183  1.00  0.00     0.000 HD 
HETATM    5  C   UNL     1     -12.279  13.178  63.777  1.00  0.00    -0.528 A  
HETATM    6  C   UNL     1     -12.668  14.087  64.781  1.00  0.00    -0.236 A  
HETATM    7  C   UNL     1     -12.172  13.963  66.074  1.00  0.00    -0.495 A  
HETATM    8  C   UNL     1     -11.304  12.915  66.314  1.00  0.00    -0.364 A  
HETATM    9  C   UNL     1     -10.898  12.013  65.324  1.00  0.00    -0.340 A  
HETATM   10  C   UNL     1      -9.992  10.988  65.927  1.00  0.00    -0.240 C  
HETATM   11  N   UNL     1      -9.865  11.438  67.307  1.00  0.00    -0.188 N  
HETATM   12  O   UNL     1     -10.840  13.089  68.645  1.00  0.00    -0.247 OA 
HETATM   13  C   UNL     1     -10.673  12.529  67.579  1.00  0.00    -0.225 C  
ENDROOT
BRANCH  11  14
HETATM   14  C   UNL     1      -9.177  10.692  68.353  1.00  0.00    -0.159 C  
HETATM   15  C   UNL     1      -7.746  10.326  67.976  1.00  0.00    -0.089 C  
HETATM   16  C   UNL     1      -7.047   9.757  69.203  1.00  0.00    -0.067 C  
HETATM   17  C   UNL     1      -7.810   8.589  69.787  1.00  0.00    -0.094 C  
HETATM   18  O   UNL     1      -7.248   7.668  70.372  1.00  0.00    -0.061 OA 
HETATM   19  N   UNL     1      -9.176   8.611  69.653  1.00  0.00    -0.155 N  
HETATM   20  C   UNL     1      -9.899   9.408  68.788  1.00  0.00    -0.163 C  
HETATM   21  H   UNL     1      -9.709   7.978  70.249  1.00  0.00     0.000 HD 
HETATM   22  O   UNL     1     -11.014   9.066  68.408  1.00  0.00    -0.071 OA 
ENDBRANCH  11  14
TORSDOF 1
ENDMDL
MODEL       92
REMARK 921   NORMALIZED FREE ENERGY PREDICTED BY IDOCK:   -4.58 KCAL/MOL
REMARK 922        TOTAL FREE ENERGY PREDICTED BY IDOCK:   -5.19 KCAL/MOL
REMARK 923 INTER-LIGAND FREE ENERGY PREDICTED BY IDOCK:   -5.23 KCAL/MOL
REMARK 924 INTRA-LIGAND FREE ENERGY PREDICTED BY IDOCK:    0.04 KCAL/MOL
REMARK 927      BINDING AFFINITY PREDICTED BY RF-SCORE:    0.00 PKD
ROOT
HETATM    1  N   UNL     1      -9.268   3.260  68.305  1.00  0.00    -0.168 NA 
HETATM    2  C   UNL     1      -9.462   3.366  69.683  1.00  0.00    -0.153 A  
HETATM    3  H1  UNL     1      -9.696   3.940  67.676  1.00  0.00     0.000 HD 
HETATM    4  H2  UNL     1      -9.551   2.325  68.010  1.00  0.00     0.000 HD 
HETATM    5  C   UNL     1      -8.872   2.429  70.549  1.00  0.00    -0.139 A  
HETATM    6  C   UNL     1      -8.926   2.573  71.950  1.00  0.00    -0.129 A  
HETATM    7  C   UNL     1      -9.530   3.688  72.520  1.00  0.00    -0.178 A  
HETATM    8  C   UNL     1     -10.054   4.628  71.655  1.00  0.00    -0.258 A  
HETATM    9  C   UNL     1     -10.020   4.493  70.263  1.00  0.00    -0.288 A  
HETATM   10  C   UNL     1     -10.637   5.699  69.631  1.00  0.00    -0.331 C  
HETATM   11  N   UNL     1     -11.084   6.475  70.780  1.00  0.00    -0.280 N  
HETATM   12  O   UNL     1     -10.862   6.339  73.103  1.00  0.00    -0.251 OA 
HETATM   13  C   UNL     1     -10.700   5.903  71.980  1.00  0.00    -0.233 C  
ENDROOT
BRANCH  11  14
HETATM   14  C   UNL     1     -11.642   7.818  70.696  1.00  0.00    -0.218 C  
HETATM   15  C   UNL     1     -10.753   8.870  71.350  1.00  0.00    -0.382 C  
HETATM   16  C   UNL     1     -11.301  10.251  71.015  1.00  0.00    -0.306 C  
HETATM   17  C   UNL     1     -12.753  10.386  71.417  1.00  0.00    -0.446 C  
HETATM   18  O   UNL     1     -13.239  11.461  71.758  1.00  0.00    -0.458 OA 
HETATM   19  N   UNL     1     -13.520   9.249  71.365  1.00  0.00    -0.474 N  
HETATM   20  C   UNL     1     -13.054   7.953  71.287  1.00  0.00    -0.184 C  
HETATM   21  H   UNL     1     -14.532   9.374  71.385  1.00  0.00     0.000 HD 
HETATM   22  O   UNL     1     -13.737   7.017  71.691  1.00  0.00    -0.351 OA 
ENDBRANCH  11  14
TORSDOF 1
ENDMDL
MODEL       93
REMARK 921   NORMALIZED FREE ENERGY PREDICTED BY IDOCK:   -4.55 KCAL/MOL
REMARK 922        TOTAL FREE ENERGY PREDICTED BY IDOCK:   -5.16 KCAL/MOL
REMARK 923 INTER-LIGAND FREE ENERGY PREDICTED BY IDOCK:   -5.61 KCAL/MOL
REMARK 924 INTRA-LIGAND FREE ENERGY PREDICTED BY IDOCK:    0.45 KCAL/MOL
REMARK 927      BINDING AFFINITY PREDICTED BY RF-SCORE:    0.00 PKD
ROOT
HETATM    1  N   UNL     1      -9.065   9.951  67.857  1.00  0.00    -0.131 NA 
HETATM    2  C   UNL     1     -10.161  10.565  68.464  1.00  0.00    -0.173 A  
HETATM    3  H1  UNL     1      -8.539  10.444  67.135  1.00  0.00     0.000 HD 
HETATM    4  H2  UNL     1      -9.366   9.053  67.480  1.00  0.00     0.000 HD 
HETATM    5  C   UNL     1     -10.884   9.886  69.459  1.00  0.00    -0.274 A  
HETATM    6  C   UNL     1     -11.910  10.514  70.194  1.00  0.00    -0.404 A  
HETATM    7  C   UNL     1     -12.205  11.857  69.985  1.00  0.00    -0.291 A  
HETATM    8  C   UNL     1     -11.445  12.526  69.045  1.00  0.00    -0.355 A  
HETATM    9  C   UNL     1     -10.434  11.913  68.298  1.00  0.00    -0.221 A  
HETATM   10  C   UNL     1      -9.792  12.925  67.405  1.00  0.00    -0.207 C  
HETATM   11  N   UNL     1     -10.577  14.126  67.658  1.00  0.00    -0.251 N  
HETATM   12  O   UNL     1     -12.267  14.761  69.144  1.00  0.00    -0.262 OA 
HETATM   13  C   UNL     1     -11.513  13.939  68.661  1.00  0.00    -0.298 C  
ENDROOT
BRANCH  11  14
HETATM   14  C   UNL     1     -10.262  15.442  67.116  1.00  0.00    -0.251 C  
HETATM   15  C   UNL     1     -10.776  16.580  67.991  1.00  0.00    -0.343 C  
HETATM   16  C   UNL     1     -10.207  17.893  67.469  1.00  0.00    -0.366 C  
HETATM   17  C   UNL     1     -10.529  18.095  66.005  1.00  0.00    -0.335 C  
HETATM   18  O   UNL     1     -10.679  19.212  65.517  1.00  0.00    -0.507 OA 
HETATM   19  N   UNL     1     -10.628  16.967  65.229  1.00  0.00    -0.222 N  
HETATM   20  C   UNL     1     -10.772  15.673  65.686  1.00  0.00    -0.364 C  
HETATM   21  H   UNL     1     -10.590  17.097  64.219  1.00  0.00     0.000 HD 
HETATM   22  O   UNL     1     -11.292  14.815  64.979  1.00  0.00    -0.358 OA 
ENDBRANCH  11  14
TORSDOF 1
ENDMDL
MODEL       94
REMARK 921   NORMALIZED FREE ENERGY PREDICTED BY IDOCK:   -4.55 KCAL/MOL
REMARK 922        TOTAL FREE ENERGY PREDICTED BY IDOCK:   -5.16 KCAL/MOL
REMARK 923 INTER-LIGAND FREE ENERGY PREDICTED BY IDOCK:   -4.84 KCAL/MOL
REMARK 924 INTRA-LIGAND FREE ENERGY PREDICTED BY IDOCK:   -0.31 KCAL/MOL
REMARK 927      BINDING AFFINITY PREDICTED BY RF-SCORE:    0.00 PKD
ROOT
HETATM    1  N   UNL     1     -10.927  14.641  70.710  1.00  0.00    -0.500 NA 
HETATM    2  C   UNL     1     -10.949  14.980  69.357  1.00  0.00    -0.266 A  
HETATM    3  H1  UNL     1     -10.920  13.659  70.989  1.00  0.00     0.000 HD 
HETATM    4  H2  UNL     1     -11.711  15.102  71.171  1.00  0.00     0.000 HD 
HETATM    5  C   UNL     1     -10.959  16.332  68.972  1.00  0.00    -0.325 A  
HETATM    6  C   UNL     1     -10.843  16.724  67.624  1.00  0.00    -0.252 A  
HETATM    7  C   UNL     1     -10.666  15.771  66.626  1.00  0.00    -0.287 A  
HETATM    8  C   UNL     1     -10.600  14.450  67.027  1.00  0.00    -0.274 A  
HETATM    9  C   UNL     1     -10.726  14.045  68.360  1.00  0.00    -0.261 A  
HETATM   10  C   UNL     1     -10.571  12.562  68.446  1.00  0.00    -0.242 C  
HETATM   11  N   UNL     1     -10.428  12.168  67.049  1.00  0.00    -0.218 N  
HETATM   12  O   UNL     1     -10.198  13.266  64.998  1.00  0.00    -0.321 OA 
HETATM   13  C   UNL     1     -10.378  13.260  66.201  1.00  0.00    -0.290 C  
ENDROOT
BRANCH  11  14
HETATM   14  C   UNL     1     -10.117  10.816  66.606  1.00  0.00    -0.218 C  
HETATM   15  C   UNL     1     -10.709   9.744  67.513  1.00  0.00    -0.327 C  
HETATM   16  C   UNL     1     -10.526   8.385  66.850  1.00  0.00    -0.359 C  
HETATM   17  C   UNL     1      -9.075   8.123  66.513  1.00  0.00    -0.176 C  
HETATM   18  O   UNL     1      -8.602   6.990  66.499  1.00  0.00    -0.119 OA 
HETATM   19  N   UNL     1      -8.303   9.214  66.199  1.00  0.00    -0.117 N  
HETATM   20  C   UNL     1      -8.614  10.533  66.454  1.00  0.00    -0.144 C  
HETATM   21  H   UNL     1      -7.415   9.032  65.733  1.00  0.00     0.000 HD 
HETATM   22  O   UNL     1      -7.727  11.374  66.564  1.00  0.00    -0.149 OA 
ENDBRANCH  11  14
TORSDOF 1
ENDMDL
MODEL       95
REMARK 921   NORMALIZED FREE ENERGY PREDICTED BY IDOCK:   -4.54 KCAL/MOL
REMARK 922        TOTAL FREE ENERGY PREDICTED BY IDOCK:   -5.15 KCAL/MOL
REMARK 923 INTER-LIGAND FREE ENERGY PREDICTED BY IDOCK:   -5.24 KCAL/MOL
REMARK 924 INTRA-LIGAND FREE ENERGY PREDICTED BY IDOCK:    0.09 KCAL/MOL
REMARK 927      BINDING AFFINITY PREDICTED BY RF-SCORE:    0.00 PKD
ROOT
HETATM    1  N   UNL     1      -9.349   9.266  62.356  1.00  0.00    -0.579 NA 
HETATM    2  C   UNL     1      -8.754   9.232  63.617  1.00  0.00    -0.167 A  
HETATM    3  H1  UNL     1     -10.131   9.896  62.178  1.00  0.00     0.000 HD 
HETATM    4  H2  UNL     1      -9.635   8.319  62.108  1.00  0.00     0.000 HD 
HETATM    5  C   UNL     1      -7.676   8.364  63.862  1.00  0.00    -0.143 A  
HETATM    6  C   UNL     1      -6.957   8.392  65.074  1.00  0.00    -0.074 A  
HETATM    7  C   UNL     1      -7.269   9.327  66.056  1.00  0.00    -0.091 A  
HETATM    8  C   UNL     1      -8.293  10.211  65.776  1.00  0.00    -0.147 A  
HETATM    9  C   UNL     1      -9.024  10.186  64.584  1.00  0.00    -0.241 A  
HETATM   10  C   UNL     1     -10.026  11.295  64.591  1.00  0.00    -0.281 C  
HETATM   11  N   UNL     1      -9.847  11.886  65.912  1.00  0.00    -0.233 N  
HETATM   12  O   UNL     1      -8.354  11.626  67.693  1.00  0.00    -0.131 OA 
HETATM   13  C   UNL     1      -8.795  11.312  66.604  1.00  0.00    -0.175 C  
ENDROOT
BRANCH  11  14
HETATM   14  C   UNL     1     -10.511  13.101  66.364  1.00  0.00    -0.282 C  
HETATM   15  C   UNL     1      -9.550  14.101  66.996  1.00  0.00    -0.264 C  
HETATM   16  C   UNL     1     -10.290  15.413  67.226  1.00  0.00    -0.271 C  
HETATM   17  C   UNL     1     -11.540  15.208  68.051  1.00  0.00    -0.328 C  
HETATM   18  O   UNL     1     -11.978  16.078  68.799  1.00  0.00    -0.340 OA 
HETATM   19  N   UNL     1     -12.186  14.005  67.913  1.00  0.00    -0.520 N  
HETATM   20  C   UNL     1     -11.663  12.859  67.351  1.00  0.00    -0.372 C  
HETATM   21  H   UNL     1     -13.144  13.953  68.258  1.00  0.00     0.000 HD 
HETATM   22  O   UNL     1     -12.100  11.755  67.662  1.00  0.00    -0.598 OA 
ENDBRANCH  11  14
TORSDOF 1
ENDMDL
MODEL       96
REMARK 921   NORMALIZED FREE ENERGY PREDICTED BY IDOCK:   -4.53 KCAL/MOL
REMARK 922        TOTAL FREE ENERGY PREDICTED BY IDOCK:   -5.14 KCAL/MOL
REMARK 923 INTER-LIGAND FREE ENERGY PREDICTED BY IDOCK:   -5.20 KCAL/MOL
REMARK 924 INTRA-LIGAND FREE ENERGY PREDICTED BY IDOCK:    0.06 KCAL/MOL
REMARK 927      BINDING AFFINITY PREDICTED BY RF-SCORE:    0.00 PKD
ROOT
HETATM    1  N   UNL     1     -12.613  14.459  67.154  1.00  0.00    -0.422 NA 
HETATM    2  C   UNL     1     -12.267  13.651  66.071  1.00  0.00    -0.449 A  
HETATM    3  H1  UNL     1     -12.423  14.145  68.106  1.00  0.00     0.000 HD 
HETATM    4  H2  UNL     1     -13.604  14.688  67.082  1.00  0.00     0.000 HD 
HETATM    5  C   UNL     1     -12.529  14.085  64.760  1.00  0.00    -0.392 A  
HETATM    6  C   UNL     1     -12.077  13.368  63.634  1.00  0.00    -0.513 A  
HETATM    7  C   UNL     1     -11.305  12.222  63.792  1.00  0.00    -0.534 A  
HETATM    8  C   UNL     1     -11.007  11.841  65.086  1.00  0.00    -0.351 A  
HETATM    9  C   UNL     1     -11.460  12.535  66.213  1.00  0.00    -0.421 A  
HETATM   10  C   UNL     1     -10.928  11.880  67.447  1.00  0.00    -0.263 C  
HETATM   11  N   UNL     1     -10.210  10.727  66.920  1.00  0.00    -0.218 N  
HETATM   12  O   UNL     1      -9.616   9.927  64.805  1.00  0.00    -0.289 OA 
HETATM   13  C   UNL     1     -10.186  10.714  65.536  1.00  0.00    -0.262 C  
ENDROOT
BRANCH  11  14
HETATM   14  C   UNL     1      -9.394   9.829  67.726  1.00  0.00    -0.134 C  
HETATM   15  C   UNL     1      -7.909   9.921  67.395  1.00  0.00    -0.098 C  
HETATM   16  C   UNL     1      -7.126   9.126  68.431  1.00  0.00    -0.073 C  
HETATM   17  C   UNL     1      -7.613   7.697  68.519  1.00  0.00    -0.110 C  
HETATM   18  O   UNL     1      -6.867   6.770  68.823  1.00  0.00    -0.061 OA 
HETATM   19  N   UNL     1      -8.944   7.478  68.264  1.00  0.00    -0.131 N  
HETATM   20  C   UNL     1      -9.810   8.352  67.641  1.00  0.00    -0.173 C  
HETATM   21  H   UNL     1      -9.329   6.582  68.563  1.00  0.00     0.000 HD 
HETATM   22  O   UNL     1     -10.807   7.936  67.060  1.00  0.00    -0.305 OA 
ENDBRANCH  11  14
TORSDOF 1
ENDMDL
MODEL       97
REMARK 921   NORMALIZED FREE ENERGY PREDICTED BY IDOCK:   -4.52 KCAL/MOL
REMARK 922        TOTAL FREE ENERGY PREDICTED BY IDOCK:   -5.12 KCAL/MOL
REMARK 923 INTER-LIGAND FREE ENERGY PREDICTED BY IDOCK:   -5.13 KCAL/MOL
REMARK 924 INTRA-LIGAND FREE ENERGY PREDICTED BY IDOCK:    0.01 KCAL/MOL
REMARK 927      BINDING AFFINITY PREDICTED BY RF-SCORE:    0.00 PKD
ROOT
HETATM    1  N   UNL     1     -10.487  12.475  68.967  1.00  0.00    -0.426 NA 
HETATM    2  C   UNL     1     -10.524  11.265  68.275  1.00  0.00    -0.196 A  
HETATM    3  H1  UNL     1     -10.675  12.495  69.970  1.00  0.00     0.000 HD 
HETATM    4  H2  UNL     1     -11.118  13.131  68.507  1.00  0.00     0.000 HD 
HETATM    5  C   UNL     1     -10.264  11.238  66.894  1.00  0.00    -0.254 A  
HETATM    6  C   UNL     1     -10.156  10.028  66.180  1.00  0.00    -0.317 A  
HETATM    7  C   UNL     1     -10.258   8.809  66.841  1.00  0.00    -0.357 A  
HETATM    8  C   UNL     1     -10.456   8.852  68.208  1.00  0.00    -0.243 A  
HETATM    9  C   UNL     1     -10.578  10.045  68.928  1.00  0.00    -0.239 A  
HETATM   10  C   UNL     1     -10.746   9.734  70.380  1.00  0.00    -0.308 C  
HETATM   11  N   UNL     1     -10.786   8.277  70.398  1.00  0.00    -0.234 N  
HETATM   12  O   UNL     1     -10.459   6.557  68.849  1.00  0.00    -0.179 OA 
HETATM   13  C   UNL     1     -10.555   7.732  69.147  1.00  0.00    -0.183 C  
ENDROOT
BRANCH  11  14
HETATM   14  C   UNL     1     -10.808   7.472  71.612  1.00  0.00    -0.219 C  
HETATM   15  C   UNL     1      -9.641   6.495  71.695  1.00  0.00    -0.167 C  
HETATM   16  C   UNL     1      -9.623   5.870  73.084  1.00  0.00    -0.148 C  
HETATM   17  C   UNL     1     -10.948   5.222  73.418  1.00  0.00    -0.316 C  
HETATM   18  O   UNL     1     -11.029   4.245  74.158  1.00  0.00    -0.228 OA 
HETATM   19  N   UNL     1     -12.073   5.789  72.872  1.00  0.00    -0.518 N  
HETATM   20  C   UNL     1     -12.108   6.680  71.820  1.00  0.00    -0.353 C  
HETATM   21  H   UNL     1     -12.968   5.527  73.284  1.00  0.00     0.000 HD 
HETATM   22  O   UNL     1     -13.110   6.782  71.120  1.00  0.00    -0.249 OA 
ENDBRANCH  11  14
TORSDOF 1
ENDMDL
MODEL       98
REMARK 921   NORMALIZED FREE ENERGY PREDICTED BY IDOCK:   -4.51 KCAL/MOL
REMARK 922        TOTAL FREE ENERGY PREDICTED BY IDOCK:   -5.12 KCAL/MOL
REMARK 923 INTER-LIGAND FREE ENERGY PREDICTED BY IDOCK:   -5.95 KCAL/MOL
REMARK 924 INTRA-LIGAND FREE ENERGY PREDICTED BY IDOCK:    0.83 KCAL/MOL
REMARK 927      BINDING AFFINITY PREDICTED BY RF-SCORE:    0.00 PKD
ROOT
HETATM    1  N   UNL     1      -8.849   9.130  63.683  1.00  0.00    -0.416 NA 
HETATM    2  C   UNL     1      -9.511  10.253  64.178  1.00  0.00    -0.301 A  
HETATM    3  H1  UNL     1      -8.598   8.367  64.312  1.00  0.00     0.000 HD 
HETATM    4  H2  UNL     1      -8.006   9.439  63.198  1.00  0.00     0.000 HD 
HETATM    5  C   UNL     1      -9.857  11.304  63.311  1.00  0.00    -0.418 A  
HETATM    6  C   UNL     1     -10.643  12.393  63.736  1.00  0.00    -0.486 A  
HETATM    7  C   UNL     1     -11.147  12.434  65.032  1.00  0.00    -0.344 A  
HETATM    8  C   UNL     1     -10.846  11.366  65.855  1.00  0.00    -0.292 A  
HETATM    9  C   UNL     1     -10.056  10.285  65.451  1.00  0.00    -0.354 A  
HETATM   10  C   UNL     1      -9.960   9.294  66.566  1.00  0.00    -0.274 C  
HETATM   11  N   UNL     1     -10.693   9.947  67.644  1.00  0.00    -0.272 N  
HETATM   12  O   UNL     1     -12.002  11.870  67.878  1.00  0.00    -0.556 OA 
HETATM   13  C   UNL     1     -11.277  11.133  67.236  1.00  0.00    -0.277 C  
ENDROOT
BRANCH  11  14
HETATM   14  C   UNL     1     -11.001   9.321  68.923  1.00  0.00    -0.017 C  
HETATM   15  C   UNL     1     -10.919  10.294  70.093  1.00  0.00    -0.377 C  
HETATM   16  C   UNL     1     -11.472   9.612  71.337  1.00  0.00    -0.455 C  
HETATM   17  C   UNL     1     -10.762   8.306  71.617  1.00  0.00    -0.256 C  
HETATM   18  O   UNL     1     -10.621   7.871  72.757  1.00  0.00    -0.299 OA 
HETATM   19  N   UNL     1     -10.295   7.608  70.532  1.00  0.00    -0.209 N  
HETATM   20  C   UNL     1     -10.127   8.102  69.255  1.00  0.00    -0.202 C  
HETATM   21  H   UNL     1     -10.050   6.630  70.683  1.00  0.00     0.000 HD 
HETATM   22  O   UNL     1      -9.315   7.591  68.489  1.00  0.00    -0.143 OA 
ENDBRANCH  11  14
TORSDOF 1
ENDMDL
MODEL       99
REMARK 921   NORMALIZED FREE ENERGY PREDICTED BY IDOCK:   -4.51 KCAL/MOL
REMARK 922        TOTAL FREE ENERGY PREDICTED BY IDOCK:   -5.12 KCAL/MOL
REMARK 923 INTER-LIGAND FREE ENERGY PREDICTED BY IDOCK:   -5.21 KCAL/MOL
REMARK 924 INTRA-LIGAND FREE ENERGY PREDICTED BY IDOCK:    0.09 KCAL/MOL
REMARK 927      BINDING AFFINITY PREDICTED BY RF-SCORE:    0.00 PKD
ROOT
HETATM    1  N   UNL     1     -10.415  11.300  69.317  1.00  0.00    -0.391 NA 
HETATM    2  C   UNL     1     -11.282  10.712  70.238  1.00  0.00    -0.285 A  
HETATM    3  H1  UNL     1      -9.687  10.740  68.873  1.00  0.00     0.000 HD 
HETATM    4  H2  UNL     1      -9.977  12.109  69.757  1.00  0.00     0.000 HD 
HETATM    5  C   UNL     1     -12.286  11.484  70.849  1.00  0.00    -0.460 A  
HETATM    6  C   UNL     1     -13.268  10.906  71.678  1.00  0.00    -0.471 A  
HETATM    7  C   UNL     1     -13.301   9.530  71.878  1.00  0.00    -0.518 A  
HETATM    8  C   UNL     1     -12.343   8.780  71.224  1.00  0.00    -0.313 A  
HETATM    9  C   UNL     1     -11.354   9.340  70.409  1.00  0.00    -0.283 A  
HETATM   10  C   UNL     1     -10.510   8.250  69.831  1.00  0.00    -0.223 C  
HETATM   11  N   UNL     1     -11.058   7.051  70.451  1.00  0.00    -0.274 N  
HETATM   12  O   UNL     1     -12.890   6.535  71.810  1.00  0.00    -0.293 OA 
HETATM   13  C   UNL     1     -12.174   7.324  71.223  1.00  0.00    -0.354 C  
ENDROOT
BRANCH  11  14
HETATM   14  C   UNL     1     -10.656   5.693  70.109  1.00  0.00    -0.309 C  
HETATM   15  C   UNL     1      -9.412   5.236  70.863  1.00  0.00    -0.216 C  
HETATM   16  C   UNL     1      -9.207   3.748  70.613  1.00  0.00    -0.201 C  
HETATM   17  C   UNL     1      -9.137   3.437  69.135  1.00  0.00    -0.142 C  
HETATM   18  O   UNL     1      -8.472   2.503  68.694  1.00  0.00    -0.062 OA 
HETATM   19  N   UNL     1      -9.872   4.237  68.296  1.00  0.00    -0.088 N  
HETATM   20  C   UNL     1     -10.413   5.467  68.609  1.00  0.00    -0.129 C  
HETATM   21  H   UNL     1     -10.033   3.890  67.351  1.00  0.00     0.000 HD 
HETATM   22  O   UNL     1     -10.645   6.290  67.729  1.00  0.00    -0.197 OA 
ENDBRANCH  11  14
TORSDOF 1
ENDMDL
MODEL      100
REMARK 921   NORMALIZED FREE ENERGY PREDICTED BY IDOCK:   -4.50 KCAL/MOL
REMARK 922        TOTAL FREE ENERGY PREDICTED BY IDOCK:   -5.10 KCAL/MOL
REMARK 923 INTER-LIGAND FREE ENERGY PREDICTED BY IDOCK:   -5.37 KCAL/MOL
REMARK 924 INTRA-LIGAND FREE ENERGY PREDICTED BY IDOCK:    0.27 KCAL/MOL
REMARK 927      BINDING AFFINITY PREDICTED BY RF-SCORE:    0.00 PKD
ROOT
HETATM    1  N   UNL     1     -12.926  15.041  69.999  1.00  0.00    -0.620 NA 
HETATM    2  C   UNL     1     -11.655  15.201  69.449  1.00  0.00    -0.323 A  
HETATM    3  H1  UNL     1     -13.423  14.157  69.885  1.00  0.00     0.000 HD 
HETATM    4  H2  UNL     1     -13.524  15.793  69.657  1.00  0.00     0.000 HD 
HETATM    5  C   UNL     1     -10.970  16.419  69.607  1.00  0.00    -0.329 A  
HETATM    6  C   UNL     1      -9.634  16.582  69.189  1.00  0.00    -0.228 A  
HETATM    7  C   UNL     1      -8.931  15.512  68.645  1.00  0.00    -0.194 A  
HETATM    8  C   UNL     1      -9.599  14.307  68.550  1.00  0.00    -0.220 A  
HETATM    9  C   UNL     1     -10.929  14.134  68.948  1.00  0.00    -0.280 A  
HETATM   10  C   UNL     1     -11.327  12.708  68.744  1.00  0.00    -0.289 C  
HETATM   11  N   UNL     1     -10.141  12.124  68.130  1.00  0.00    -0.201 N  
HETATM   12  O   UNL     1      -7.958  12.821  67.668  1.00  0.00    -0.140 OA 
HETATM   13  C   UNL     1      -9.091  13.022  68.062  1.00  0.00    -0.210 C  
ENDROOT
BRANCH  11  14
HETATM   14  C   UNL     1      -9.976  10.703  67.852  1.00  0.00    -0.166 C  
HETATM   15  C   UNL     1     -10.323  10.338  66.413  1.00  0.00    -0.262 C  
HETATM   16  C   UNL     1      -9.907   8.895  66.161  1.00  0.00    -0.326 C  
HETATM   17  C   UNL     1     -10.530   7.952  67.165  1.00  0.00    -0.344 C  
HETATM   18  O   UNL     1     -10.804   6.788  66.887  1.00  0.00    -0.348 OA 
HETATM   19  N   UNL     1     -10.762   8.450  68.424  1.00  0.00    -0.425 N  
HETATM   20  C   UNL     1     -10.778   9.781  68.784  1.00  0.00    -0.215 C  
HETATM   21  H   UNL     1     -10.938   7.771  69.163  1.00  0.00     0.000 HD 
HETATM   22  O   UNL     1     -11.414  10.156  69.764  1.00  0.00    -0.250 OA 
ENDBRANCH  11  14
TORSDOF 1
ENDMDL
MODEL      101
REMARK 921   NORMALIZED FREE ENERGY PREDICTED BY IDOCK:   -4.47 KCAL/MOL
REMARK 922        TOTAL FREE ENERGY PREDICTED BY IDOCK:   -5.08 KCAL/MOL
REMARK 923 INTER-LIGAND FREE ENERGY PREDICTED BY IDOCK:   -4.82 KCAL/MOL
REMARK 924 INTRA-LIGAND FREE ENERGY PREDICTED BY IDOCK:   -0.25 KCAL/MOL
REMARK 927      BINDING AFFINITY PREDICTED BY RF-SCORE:    0.00 PKD
ROOT
HETATM    1  N   UNL     1      -7.056   6.242  73.036  1.00  0.00    -0.079 NA 
HETATM    2  C   UNL     1      -7.870   5.652  72.069  1.00  0.00    -0.106 A  
HETATM    3  H1  UNL     1      -7.166   7.231  73.260  1.00  0.00     0.000 HD 
HETATM    4  H2  UNL     1      -6.082   6.075  72.783  1.00  0.00     0.000 HD 
HETATM    5  C   UNL     1      -7.718   4.289  71.760  1.00  0.00    -0.075 A  
HETATM    6  C   UNL     1      -8.604   3.618  70.894  1.00  0.00    -0.110 A  
HETATM    7  C   UNL     1      -9.697   4.284  70.351  1.00  0.00    -0.280 A  
HETATM    8  C   UNL     1      -9.866   5.608  70.710  1.00  0.00    -0.239 A  
HETATM    9  C   UNL     1      -8.988   6.290  71.558  1.00  0.00    -0.142 A  
HETATM   10  C   UNL     1      -9.481   7.685  71.767  1.00  0.00    -0.145 C  
HETATM   11  N   UNL     1     -10.657   7.746  70.907  1.00  0.00    -0.212 N  
HETATM   12  O   UNL     1     -11.888   6.235  69.616  1.00  0.00    -0.290 OA 
HETATM   13  C   UNL     1     -10.943   6.524  70.324  1.00  0.00    -0.310 C  
ENDROOT
BRANCH  11  14
HETATM   14  C   UNL     1     -11.578   8.873  70.856  1.00  0.00    -0.283 C  
HETATM   15  C   UNL     1     -10.898  10.176  70.452  1.00  0.00    -0.365 C  
HETATM   16  C   UNL     1     -11.968  11.232  70.208  1.00  0.00    -0.466 C  
HETATM   17  C   UNL     1     -12.871  11.397  71.410  1.00  0.00    -0.397 C  
HETATM   18  O   UNL     1     -13.406  12.468  71.683  1.00  0.00    -0.358 OA 
HETATM   19  N   UNL     1     -13.089  10.282  72.181  1.00  0.00    -0.506 N  
HETATM   20  C   UNL     1     -12.343   9.122  72.165  1.00  0.00    -0.354 C  
HETATM   21  H   UNL     1     -13.876  10.315  72.827  1.00  0.00     0.000 HD 
HETATM   22  O   UNL     1     -12.307   8.389  73.149  1.00  0.00    -0.105 OA 
ENDBRANCH  11  14
TORSDOF 1
ENDMDL
MODEL      102
REMARK 921   NORMALIZED FREE ENERGY PREDICTED BY IDOCK:   -4.45 KCAL/MOL
REMARK 922        TOTAL FREE ENERGY PREDICTED BY IDOCK:   -5.06 KCAL/MOL
REMARK 923 INTER-LIGAND FREE ENERGY PREDICTED BY IDOCK:   -5.07 KCAL/MOL
REMARK 924 INTRA-LIGAND FREE ENERGY PREDICTED BY IDOCK:    0.01 KCAL/MOL
REMARK 927      BINDING AFFINITY PREDICTED BY RF-SCORE:    0.00 PKD
ROOT
HETATM    1  N   UNL     1     -13.968   9.566  72.721  1.00  0.00    -0.785 NA 
HETATM    2  C   UNL     1     -13.201  10.203  71.746  1.00  0.00    -0.438 A  
HETATM    3  H1  UNL     1     -13.948   8.549  72.801  1.00  0.00     0.000 HD 
HETATM    4  H2  UNL     1     -14.938   9.862  72.614  1.00  0.00     0.000 HD 
HETATM    5  C   UNL     1     -13.228  11.604  71.636  1.00  0.00    -0.376 A  
HETATM    6  C   UNL     1     -12.370  12.299  70.760  1.00  0.00    -0.383 A  
HETATM    7  C   UNL     1     -11.426  11.611  70.005  1.00  0.00    -0.266 A  
HETATM    8  C   UNL     1     -11.373  10.240  70.167  1.00  0.00    -0.388 A  
HETATM    9  C   UNL     1     -12.227   9.535  71.023  1.00  0.00    -0.385 A  
HETATM   10  C   UNL     1     -11.877   8.083  70.987  1.00  0.00    -0.263 C  
HETATM   11  N   UNL     1     -10.817   8.028  69.988  1.00  0.00    -0.248 N  
HETATM   12  O   UNL     1      -9.568   9.576  68.760  1.00  0.00    -0.153 OA 
HETATM   13  C   UNL     1     -10.457   9.286  69.537  1.00  0.00    -0.220 C  
ENDROOT
BRANCH  11  14
HETATM   14  C   UNL     1     -10.043   6.833  69.679  1.00  0.00    -0.183 C  
HETATM   15  C   UNL     1      -8.554   7.003  69.962  1.00  0.00    -0.141 C  
HETATM   16  C   UNL     1      -7.872   5.649  69.827  1.00  0.00    -0.087 C  
HETATM   17  C   UNL     1      -8.138   5.025  68.475  1.00  0.00    -0.085 C  
HETATM   18  O   UNL     1      -7.330   4.279  67.929  1.00  0.00    -0.066 OA 
HETATM   19  N   UNL     1      -9.343   5.313  67.884  1.00  0.00    -0.113 N  
HETATM   20  C   UNL     1     -10.198   6.338  68.233  1.00  0.00    -0.169 C  
HETATM   21  H   UNL     1      -9.635   4.713  67.113  1.00  0.00     0.000 HD 
HETATM   22  O   UNL     1     -10.987   6.800  67.414  1.00  0.00    -0.318 OA 
ENDBRANCH  11  14
TORSDOF 1
ENDMDL
MODEL      103
REMARK 921   NORMALIZED FREE ENERGY PREDICTED BY IDOCK:   -4.40 KCAL/MOL
REMARK 922        TOTAL FREE ENERGY PREDICTED BY IDOCK:   -5.01 KCAL/MOL
REMARK 923 INTER-LIGAND FREE ENERGY PREDICTED BY IDOCK:   -5.14 KCAL/MOL
REMARK 924 INTRA-LIGAND FREE ENERGY PREDICTED BY IDOCK:    0.14 KCAL/MOL
REMARK 927      BINDING AFFINITY PREDICTED BY RF-SCORE:    0.00 PKD
ROOT
HETATM    1  N   UNL     1     -12.104  13.562  66.506  1.00  0.00    -0.412 NA 
HETATM    2  C   UNL     1     -11.454  12.679  65.644  1.00  0.00    -0.350 A  
HETATM    3  H1  UNL     1     -12.358  13.261  67.448  1.00  0.00     0.000 HD 
HETATM    4  H2  UNL     1     -12.942  13.910  66.042  1.00  0.00     0.000 HD 
HETATM    5  C   UNL     1     -11.104  13.095  64.347  1.00  0.00    -0.407 A  
HETATM    6  C   UNL     1     -10.329  12.288  63.491  1.00  0.00    -0.443 A  
HETATM    7  C   UNL     1      -9.841  11.061  63.929  1.00  0.00    -0.368 A  
HETATM    8  C   UNL     1     -10.146  10.693  65.225  1.00  0.00    -0.363 A  
HETATM    9  C   UNL     1     -10.925  11.477  66.083  1.00  0.00    -0.320 A  
HETATM   10  C   UNL     1     -11.027  10.807  67.414  1.00  0.00    -0.300 C  
HETATM   11  N   UNL     1     -10.311   9.555  67.204  1.00  0.00    -0.246 N  
HETATM   12  O   UNL     1      -9.017   8.612  65.500  1.00  0.00    -0.192 OA 
HETATM   13  C   UNL     1      -9.729   9.489  65.950  1.00  0.00    -0.282 C  
ENDROOT
BRANCH  11  14
HETATM   14  C   UNL     1     -10.015   8.592  68.257  1.00  0.00    -0.180 C  
HETATM   15  C   UNL     1      -8.536   8.556  68.625  1.00  0.00    -0.131 C  
HETATM   16  C   UNL     1      -8.363   7.699  69.873  1.00  0.00    -0.132 C  
HETATM   17  C   UNL     1      -8.949   6.317  69.683  1.00  0.00    -0.135 C  
HETATM   18  O   UNL     1      -8.492   5.331  70.254  1.00  0.00    -0.106 OA 
HETATM   19  N   UNL     1     -10.037   6.212  68.853  1.00  0.00    -0.161 N  
HETATM   20  C   UNL     1     -10.462   7.157  67.942  1.00  0.00    -0.212 C  
HETATM   21  H   UNL     1     -10.584   5.354  68.917  1.00  0.00     0.000 HD 
HETATM   22  O   UNL     1     -11.124   6.827  66.963  1.00  0.00    -0.403 OA 
ENDBRANCH  11  14
TORSDOF 1
ENDMDL
MODEL      104
REMARK 921   NORMALIZED FREE ENERGY PREDICTED BY IDOCK:   -4.39 KCAL/MOL
REMARK 922        TOTAL FREE ENERGY PREDICTED BY IDOCK:   -4.99 KCAL/MOL
REMARK 923 INTER-LIGAND FREE ENERGY PREDICTED BY IDOCK:   -4.64 KCAL/MOL
REMARK 924 INTRA-LIGAND FREE ENERGY PREDICTED BY IDOCK:   -0.36 KCAL/MOL
REMARK 927      BINDING AFFINITY PREDICTED BY RF-SCORE:    0.00 PKD
ROOT
HETATM    1  N   UNL     1     -12.385   7.186  72.229  1.00  0.00    -0.503 NA 
HETATM    2  C   UNL     1     -12.447   8.472  71.691  1.00  0.00    -0.330 A  
HETATM    3  H1  UNL     1     -11.880   6.451  71.735  1.00  0.00     0.000 HD 
HETATM    4  H2  UNL     1     -13.336   6.863  72.404  1.00  0.00     0.000 HD 
HETATM    5  C   UNL     1     -13.143   9.485  72.373  1.00  0.00    -0.430 A  
HETATM    6  C   UNL     1     -13.119  10.826  71.940  1.00  0.00    -0.557 A  
HETATM    7  C   UNL     1     -12.355  11.197  70.838  1.00  0.00    -0.500 A  
HETATM    8  C   UNL     1     -11.631  10.199  70.214  1.00  0.00    -0.379 A  
HETATM    9  C   UNL     1     -11.655   8.862  70.624  1.00  0.00    -0.251 A  
HETATM   10  C   UNL     1     -10.736   8.060  69.761  1.00  0.00    -0.231 C  
HETATM   11  N   UNL     1     -10.261   9.041  68.793  1.00  0.00    -0.203 N  
HETATM   12  O   UNL     1     -10.448  11.353  68.496  1.00  0.00    -0.188 OA 
HETATM   13  C   UNL     1     -10.719  10.317  69.072  1.00  0.00    -0.227 C  
ENDROOT
BRANCH  11  14
HETATM   14  C   UNL     1      -9.227   8.780  67.800  1.00  0.00    -0.134 C  
HETATM   15  C   UNL     1      -9.429   7.458  67.069  1.00  0.00    -0.199 C  
HETATM   16  C   UNL     1      -8.443   7.383  65.911  1.00  0.00    -0.155 C  
HETATM   17  C   UNL     1      -7.018   7.575  66.381  1.00  0.00    -0.070 C  
HETATM   18  O   UNL     1      -6.066   7.047  65.813  1.00  0.00    -0.035 OA 
HETATM   19  N   UNL     1      -6.827   8.390  67.469  1.00  0.00    -0.069 N  
HETATM   20  C   UNL     1      -7.797   8.800  68.360  1.00  0.00    -0.104 C  
HETATM   21  H   UNL     1      -5.879   8.724  67.634  1.00  0.00     0.000 HD 
HETATM   22  O   UNL     1      -7.496   9.125  69.505  1.00  0.00    -0.072 OA 
ENDBRANCH  11  14
TORSDOF 1
ENDMDL
MODEL      105
REMARK 921   NORMALIZED FREE ENERGY PREDICTED BY IDOCK:   -4.39 KCAL/MOL
REMARK 922        TOTAL FREE ENERGY PREDICTED BY IDOCK:   -4.99 KCAL/MOL
REMARK 923 INTER-LIGAND FREE ENERGY PREDICTED BY IDOCK:   -4.70 KCAL/MOL
REMARK 924 INTRA-LIGAND FREE ENERGY PREDICTED BY IDOCK:   -0.28 KCAL/MOL
REMARK 927      BINDING AFFINITY PREDICTED BY RF-SCORE:    0.00 PKD
ROOT
HETATM    1  N   UNL     1      -9.241   9.108  64.433  1.00  0.00    -0.416 NA 
HETATM    2  C   UNL     1      -9.879   9.989  65.306  1.00  0.00    -0.318 A  
HETATM    3  H1  UNL     1      -8.766   8.282  64.798  1.00  0.00     0.000 HD 
HETATM    4  H2  UNL     1      -8.578   9.638  63.867  1.00  0.00     0.000 HD 
HETATM    5  C   UNL     1     -10.534  11.126  64.803  1.00  0.00    -0.388 A  
HETATM    6  C   UNL     1     -11.305  11.968  65.629  1.00  0.00    -0.381 A  
HETATM    7  C   UNL     1     -11.483  11.665  66.974  1.00  0.00    -0.336 A  
HETATM    8  C   UNL     1     -10.881  10.512  67.441  1.00  0.00    -0.349 A  
HETATM    9  C   UNL     1     -10.101   9.674  66.636  1.00  0.00    -0.307 A  
HETATM   10  C   UNL     1      -9.635   8.505  67.442  1.00  0.00    -0.160 C  
HETATM   11  N   UNL     1     -10.151   8.800  68.773  1.00  0.00    -0.193 N  
HETATM   12  O   UNL     1     -11.561  10.405  69.722  1.00  0.00    -0.257 OA 
HETATM   13  C   UNL     1     -10.939   9.938  68.788  1.00  0.00    -0.179 C  
ENDROOT
BRANCH  11  14
HETATM   14  C   UNL     1     -10.073   7.886  69.904  1.00  0.00    -0.197 C  
HETATM   15  C   UNL     1      -8.645   7.458  70.223  1.00  0.00    -0.145 C  
HETATM   16  C   UNL     1      -8.644   6.697  71.542  1.00  0.00    -0.124 C  
HETATM   17  C   UNL     1      -9.606   5.530  71.511  1.00  0.00    -0.150 C  
HETATM   18  O   UNL     1      -9.412   4.507  72.160  1.00  0.00    -0.132 OA 
HETATM   19  N   UNL     1     -10.730   5.672  70.735  1.00  0.00    -0.264 N  
HETATM   20  C   UNL     1     -10.926   6.618  69.750  1.00  0.00    -0.313 C  
HETATM   21  H   UNL     1     -11.492   5.016  70.902  1.00  0.00     0.000 HD 
HETATM   22  O   UNL     1     -11.714   6.409  68.832  1.00  0.00    -0.096 OA 
ENDBRANCH  11  14
TORSDOF 1
ENDMDL
MODEL      106
REMARK 921   NORMALIZED FREE ENERGY PREDICTED BY IDOCK:   -4.36 KCAL/MOL
REMARK 922        TOTAL FREE ENERGY PREDICTED BY IDOCK:   -4.96 KCAL/MOL
REMARK 923 INTER-LIGAND FREE ENERGY PREDICTED BY IDOCK:   -4.99 KCAL/MOL
REMARK 924 INTRA-LIGAND FREE ENERGY PREDICTED BY IDOCK:    0.03 KCAL/MOL
REMARK 927      BINDING AFFINITY PREDICTED BY RF-SCORE:    0.00 PKD
ROOT
HETATM    1  N   UNL     1      -8.851  13.366  66.236  1.00  0.00    -0.433 NA 
HETATM    2  C   UNL     1      -9.815  13.616  67.212  1.00  0.00    -0.241 A  
HETATM    3  H1  UNL     1      -8.294  12.512  66.277  1.00  0.00     0.000 HD 
HETATM    4  H2  UNL     1      -8.216  14.163  66.197  1.00  0.00     0.000 HD 
HETATM    5  C   UNL     1     -10.582  14.793  67.155  1.00  0.00    -0.285 A  
HETATM    6  C   UNL     1     -11.658  15.025  68.036  1.00  0.00    -0.356 A  
HETATM    7  C   UNL     1     -12.025  14.059  68.967  1.00  0.00    -0.392 A  
HETATM    8  C   UNL     1     -11.298  12.885  68.972  1.00  0.00    -0.341 A  
HETATM    9  C   UNL     1     -10.220  12.646  68.113  1.00  0.00    -0.240 A  
HETATM   10  C   UNL     1      -9.686  11.272  68.355  1.00  0.00    -0.194 C  
HETATM   11  N   UNL     1     -10.500  10.798  69.468  1.00  0.00    -0.204 N  
HETATM   12  O   UNL     1     -12.370  11.565  70.642  1.00  0.00    -0.361 OA 
HETATM   13  C   UNL     1     -11.495  11.697  69.808  1.00  0.00    -0.264 C  
ENDROOT
BRANCH  11  14
HETATM   14  C   UNL     1     -10.454   9.442  69.999  1.00  0.00    -0.234 C  
HETATM   15  C   UNL     1      -9.281   9.217  70.946  1.00  0.00    -0.326 C  
HETATM   16  C   UNL     1      -9.447   7.859  71.617  1.00  0.00    -0.194 C  
HETATM   17  C   UNL     1      -9.593   6.750  70.599  1.00  0.00    -0.169 C  
HETATM   18  O   UNL     1      -9.205   5.606  70.820  1.00  0.00    -0.148 OA 
HETATM   19  N   UNL     1     -10.203   7.073  69.412  1.00  0.00    -0.183 N  
HETATM   20  C   UNL     1     -10.416   8.345  68.924  1.00  0.00    -0.189 C  
HETATM   21  H   UNL     1     -10.530   6.298  68.836  1.00  0.00     0.000 HD 
HETATM   22  O   UNL     1     -10.536   8.540  67.718  1.00  0.00    -0.232 OA 
ENDBRANCH  11  14
TORSDOF 1
ENDMDL
MODEL      107
REMARK 921   NORMALIZED FREE ENERGY PREDICTED BY IDOCK:   -4.35 KCAL/MOL
REMARK 922        TOTAL FREE ENERGY PREDICTED BY IDOCK:   -4.95 KCAL/MOL
REMARK 923 INTER-LIGAND FREE ENERGY PREDICTED BY IDOCK:   -4.63 KCAL/MOL
REMARK 924 INTRA-LIGAND FREE ENERGY PREDICTED BY IDOCK:   -0.32 KCAL/MOL
REMARK 927      BINDING AFFINITY PREDICTED BY RF-SCORE:    0.00 PKD
ROOT
HETATM    1  N   UNL     1     -11.965  12.105  68.119  1.00  0.00    -0.462 NA 
HETATM    2  C   UNL     1     -11.379  11.391  67.074  1.00  0.00    -0.236 A  
HETATM    3  H1  UNL     1     -12.129  11.650  69.018  1.00  0.00     0.000 HD 
HETATM    4  H2  UNL     1     -12.848  12.495  67.789  1.00  0.00     0.000 HD 
HETATM    5  C   UNL     1     -11.153  12.018  65.836  1.00  0.00    -0.369 A  
HETATM    6  C   UNL     1     -10.443  11.382  64.798  1.00  0.00    -0.366 A  
HETATM    7  C   UNL     1      -9.897  10.117  64.990  1.00  0.00    -0.392 A  
HETATM    8  C   UNL     1     -10.078   9.539  66.231  1.00  0.00    -0.327 A  
HETATM    9  C   UNL     1     -10.792  10.152  67.267  1.00  0.00    -0.295 A  
HETATM   10  C   UNL     1     -10.764   9.275  68.477  1.00  0.00    -0.142 C  
HETATM   11  N   UNL     1     -10.048   8.096  68.008  1.00  0.00    -0.189 N  
HETATM   12  O   UNL     1      -8.893   7.477  66.071  1.00  0.00    -0.162 OA 
HETATM   13  C   UNL     1      -9.578   8.249  66.715  1.00  0.00    -0.224 C  
ENDROOT
BRANCH  11  14
HETATM   14  C   UNL     1      -9.642   6.988  68.863  1.00  0.00    -0.140 C  
HETATM   15  C   UNL     1     -10.798   6.408  69.669  1.00  0.00    -0.380 C  
HETATM   16  C   UNL     1     -10.328   5.129  70.348  1.00  0.00    -0.326 C  
HETATM   17  C   UNL     1      -9.096   5.368  71.191  1.00  0.00    -0.141 C  
HETATM   18  O   UNL     1      -8.859   4.713  72.202  1.00  0.00    -0.120 OA 
HETATM   19  N   UNL     1      -8.230   6.344  70.763  1.00  0.00    -0.123 N  
HETATM   20  C   UNL     1      -8.505   7.329  69.839  1.00  0.00    -0.140 C  
HETATM   21  H   UNL     1      -7.294   6.339  71.167  1.00  0.00     0.000 HD 
HETATM   22  O   UNL     1      -7.882   8.386  69.847  1.00  0.00    -0.095 OA 
ENDBRANCH  11  14
TORSDOF 1
ENDMDL
MODEL      108
REMARK 921   NORMALIZED FREE ENERGY PREDICTED BY IDOCK:   -4.31 KCAL/MOL
REMARK 922        TOTAL FREE ENERGY PREDICTED BY IDOCK:   -4.91 KCAL/MOL
REMARK 923 INTER-LIGAND FREE ENERGY PREDICTED BY IDOCK:   -4.55 KCAL/MOL
REMARK 924 INTRA-LIGAND FREE ENERGY PREDICTED BY IDOCK:   -0.36 KCAL/MOL
REMARK 927      BINDING AFFINITY PREDICTED BY RF-SCORE:    0.00 PKD
ROOT
HETATM    1  N   UNL     1     -12.132   7.605  72.719  1.00  0.00    -0.588 NA 
HETATM    2  C   UNL     1     -11.246   6.609  72.309  1.00  0.00    -0.267 A  
HETATM    3  H1  UNL     1     -12.118   8.518  72.264  1.00  0.00     0.000 HD 
HETATM    4  H2  UNL     1     -12.020   7.744  73.723  1.00  0.00     0.000 HD 
HETATM    5  C   UNL     1     -11.265   5.351  72.937  1.00  0.00    -0.372 A  
HETATM    6  C   UNL     1     -10.486   4.274  72.469  1.00  0.00    -0.222 A  
HETATM    7  C   UNL     1      -9.704   4.413  71.327  1.00  0.00    -0.252 A  
HETATM    8  C   UNL     1      -9.741   5.638  70.689  1.00  0.00    -0.232 A  
HETATM    9  C   UNL     1     -10.498   6.721  71.149  1.00  0.00    -0.239 A  
HETATM   10  C   UNL     1     -10.341   7.872  70.209  1.00  0.00    -0.212 C  
HETATM   11  N   UNL     1      -9.378   7.370  69.238  1.00  0.00    -0.154 N  
HETATM   12  O   UNL     1      -8.341   5.324  68.786  1.00  0.00    -0.092 OA 
HETATM   13  C   UNL     1      -9.057   6.042  69.457  1.00  0.00    -0.137 C  
ENDROOT
BRANCH  11  14
HETATM   14  C   UNL     1      -8.987   8.080  68.027  1.00  0.00    -0.130 C  
HETATM   15  C   UNL     1      -8.730   9.564  68.269  1.00  0.00    -0.120 C  
HETATM   16  C   UNL     1      -8.114  10.165  67.012  1.00  0.00    -0.117 C  
HETATM   17  C   UNL     1      -8.978   9.916  65.796  1.00  0.00    -0.156 C  
HETATM   18  O   UNL     1      -9.015  10.698  64.850  1.00  0.00    -0.189 OA 
HETATM   19  N   UNL     1      -9.713   8.756  65.783  1.00  0.00    -0.461 N  
HETATM   20  C   UNL     1      -9.989   7.953  66.870  1.00  0.00    -0.262 C  
HETATM   21  H   UNL     1     -10.090   8.459  64.884  1.00  0.00     0.000 HD 
HETATM   22  O   UNL     1     -10.980   7.229  66.876  1.00  0.00    -0.343 OA 
ENDBRANCH  11  14
TORSDOF 1
ENDMDL
MODEL      109
REMARK 921   NORMALIZED FREE ENERGY PREDICTED BY IDOCK:   -4.31 KCAL/MOL
REMARK 922        TOTAL FREE ENERGY PREDICTED BY IDOCK:   -4.91 KCAL/MOL
REMARK 923 INTER-LIGAND FREE ENERGY PREDICTED BY IDOCK:   -4.92 KCAL/MOL
REMARK 924 INTRA-LIGAND FREE ENERGY PREDICTED BY IDOCK:    0.02 KCAL/MOL
REMARK 927      BINDING AFFINITY PREDICTED BY RF-SCORE:    0.00 PKD
ROOT
HETATM    1  N   UNL     1     -13.067  14.025  65.757  1.00  0.00    -0.587 NA 
HETATM    2  C   UNL     1     -12.269  13.047  65.164  1.00  0.00    -0.459 A  
HETATM    3  H1  UNL     1     -12.967  14.231  66.751  1.00  0.00     0.000 HD 
HETATM    4  H2  UNL     1     -14.044  13.802  65.570  1.00  0.00     0.000 HD 
HETATM    5  C   UNL     1     -12.406  12.764  63.794  1.00  0.00    -0.533 A  
HETATM    6  C   UNL     1     -11.533  11.885  63.123  1.00  0.00    -0.230 A  
HETATM    7  C   UNL     1     -10.465  11.303  63.798  1.00  0.00    -0.459 A  
HETATM    8  C   UNL     1     -10.309  11.636  65.130  1.00  0.00    -0.326 A  
HETATM    9  C   UNL     1     -11.176  12.496  65.812  1.00  0.00    -0.356 A  
HETATM   10  C   UNL     1     -10.700  12.669  67.218  1.00  0.00    -0.237 C  
HETATM   11  N   UNL     1      -9.549  11.777  67.284  1.00  0.00    -0.175 N  
HETATM   12  O   UNL     1      -8.327  10.478  65.772  1.00  0.00    -0.155 OA 
HETATM   13  C   UNL     1      -9.258  11.207  66.057  1.00  0.00    -0.205 C  
ENDROOT
BRANCH  11  14
HETATM   14  C   UNL     1      -8.648  11.684  68.425  1.00  0.00    -0.156 C  
HETATM   15  C   UNL     1      -7.194  11.952  68.053  1.00  0.00    -0.090 C  
HETATM   16  C   UNL     1      -6.373  12.055  69.332  1.00  0.00    -0.116 C  
HETATM   17  C   UNL     1      -6.534  10.825  70.197  1.00  0.00    -0.155 C  
HETATM   18  O   UNL     1      -5.638  10.422  70.934  1.00  0.00    -0.083 OA 
HETATM   19  N   UNL     1      -7.745  10.180  70.140  1.00  0.00    -0.281 N  
HETATM   20  C   UNL     1      -8.710  10.340  69.168  1.00  0.00    -0.172 C  
HETATM   21  H   UNL     1      -7.951   9.519  70.889  1.00  0.00     0.000 HD 
HETATM   22  O   UNL     1      -9.517   9.446  68.935  1.00  0.00    -0.150 OA 
ENDBRANCH  11  14
TORSDOF 1
ENDMDL
MODEL      110
REMARK 921   NORMALIZED FREE ENERGY PREDICTED BY IDOCK:   -4.30 KCAL/MOL
REMARK 922        TOTAL FREE ENERGY PREDICTED BY IDOCK:   -4.90 KCAL/MOL
REMARK 923 INTER-LIGAND FREE ENERGY PREDICTED BY IDOCK:   -4.56 KCAL/MOL
REMARK 924 INTRA-LIGAND FREE ENERGY PREDICTED BY IDOCK:   -0.34 KCAL/MOL
REMARK 927      BINDING AFFINITY PREDICTED BY RF-SCORE:    0.00 PKD
ROOT
HETATM    1  N   UNL     1     -10.199   3.275  72.161  1.00  0.00    -0.123 NA 
HETATM    2  C   UNL     1      -9.475   4.135  72.987  1.00  0.00    -0.117 A  
HETATM    3  H1  UNL     1     -10.966   3.638  71.594  1.00  0.00     0.000 HD 
HETATM    4  H2  UNL     1     -10.553   2.505  72.728  1.00  0.00     0.000 HD 
HETATM    5  C   UNL     1      -8.418   3.634  73.767  1.00  0.00    -0.083 A  
HETATM    6  C   UNL     1      -7.573   4.483  74.509  1.00  0.00    -0.081 A  
HETATM    7  C   UNL     1      -7.735   5.864  74.451  1.00  0.00    -0.097 A  
HETATM    8  C   UNL     1      -8.741   6.342  73.634  1.00  0.00    -0.131 A  
HETATM    9  C   UNL     1      -9.595   5.512  72.902  1.00  0.00    -0.159 A  
HETATM   10  C   UNL     1     -10.538   6.350  72.101  1.00  0.00    -0.220 C  
HETATM   11  N   UNL     1     -10.191   7.707  72.506  1.00  0.00    -0.223 N  
HETATM   12  O   UNL     1      -8.531   8.710  73.811  1.00  0.00    -0.333 OA 
HETATM   13  C   UNL     1      -9.099   7.736  73.356  1.00  0.00    -0.276 C  
ENDROOT
BRANCH  11  14
HETATM   14  C   UNL     1     -10.747   8.911  71.903  1.00  0.00    -0.356 C  
HETATM   15  C   UNL     1     -12.210   8.752  71.504  1.00  0.00    -0.382 C  
HETATM   16  C   UNL     1     -12.757  10.114  71.099  1.00  0.00    -0.494 C  
HETATM   17  C   UNL     1     -11.923  10.746  70.007  1.00  0.00    -0.347 C  
HETATM   18  O   UNL     1     -12.408  11.504  69.171  1.00  0.00    -0.309 OA 
HETATM   19  N   UNL     1     -10.582  10.452  70.000  1.00  0.00    -0.398 N  
HETATM   20  C   UNL     1      -9.972   9.416  70.676  1.00  0.00    -0.284 C  
HETATM   21  H   UNL     1      -9.980  11.056  69.442  1.00  0.00     0.000 HD 
HETATM   22  O   UNL     1      -8.906   8.954  70.280  1.00  0.00    -0.147 OA 
ENDBRANCH  11  14
TORSDOF 1
ENDMDL
MODEL      111
REMARK 921   NORMALIZED FREE ENERGY PREDICTED BY IDOCK:   -4.27 KCAL/MOL
REMARK 922        TOTAL FREE ENERGY PREDICTED BY IDOCK:   -4.87 KCAL/MOL
REMARK 923 INTER-LIGAND FREE ENERGY PREDICTED BY IDOCK:   -4.55 KCAL/MOL
REMARK 924 INTRA-LIGAND FREE ENERGY PREDICTED BY IDOCK:   -0.32 KCAL/MOL
REMARK 927      BINDING AFFINITY PREDICTED BY RF-SCORE:    0.00 PKD
ROOT
HETATM    1  N   UNL     1     -10.047  10.748  68.457  1.00  0.00    -0.168 NA 
HETATM    2  C   UNL     1     -10.806  10.637  69.623  1.00  0.00    -0.268 A  
HETATM    3  H1  UNL     1      -9.256  10.122  68.302  1.00  0.00     0.000 HD 
HETATM    4  H2  UNL     1      -9.718  11.710  68.377  1.00  0.00     0.000 HD 
HETATM    5  C   UNL     1     -11.896  11.499  69.836  1.00  0.00    -0.430 A  
HETATM    6  C   UNL     1     -12.771  11.337  70.928  1.00  0.00    -0.412 A  
HETATM    7  C   UNL     1     -12.607  10.274  71.810  1.00  0.00    -0.488 A  
HETATM    8  C   UNL     1     -11.566   9.403  71.554  1.00  0.00    -0.467 A  
HETATM    9  C   UNL     1     -10.681   9.558  70.482  1.00  0.00    -0.359 A  
HETATM   10  C   UNL     1      -9.705   8.427  70.475  1.00  0.00    -0.173 C  
HETATM   11  N   UNL     1     -10.068   7.676  71.671  1.00  0.00    -0.180 N  
HETATM   12  O   UNL     1     -11.783   7.751  73.259  1.00  0.00    -0.188 OA 
HETATM   13  C   UNL     1     -11.196   8.189  72.288  1.00  0.00    -0.359 C  
ENDROOT
BRANCH  11  14
HETATM   14  C   UNL     1      -9.487   6.393  72.043  1.00  0.00    -0.151 C  
HETATM   15  C   UNL     1      -7.963   6.423  72.081  1.00  0.00    -0.107 C  
HETATM   16  C   UNL     1      -7.463   5.121  72.692  1.00  0.00    -0.096 C  
HETATM   17  C   UNL     1      -8.002   3.917  71.952  1.00  0.00    -0.075 C  
HETATM   18  O   UNL     1      -7.375   2.864  71.873  1.00  0.00    -0.041 OA 
HETATM   19  N   UNL     1      -9.245   4.042  71.383  1.00  0.00    -0.121 N  
HETATM   20  C   UNL     1      -9.918   5.223  71.146  1.00  0.00    -0.201 C  
HETATM   21  H   UNL     1      -9.717   3.180  71.110  1.00  0.00     0.000 HD 
HETATM   22  O   UNL     1     -10.768   5.291  70.263  1.00  0.00    -0.265 OA 
ENDBRANCH  11  14
TORSDOF 1
ENDMDL
MODEL      112
REMARK 921   NORMALIZED FREE ENERGY PREDICTED BY IDOCK:   -4.27 KCAL/MOL
REMARK 922        TOTAL FREE ENERGY PREDICTED BY IDOCK:   -4.86 KCAL/MOL
REMARK 923 INTER-LIGAND FREE ENERGY PREDICTED BY IDOCK:   -4.50 KCAL/MOL
REMARK 924 INTRA-LIGAND FREE ENERGY PREDICTED BY IDOCK:   -0.36 KCAL/MOL
REMARK 927      BINDING AFFINITY PREDICTED BY RF-SCORE:    0.00 PKD
ROOT
HETATM    1  N   UNL     1      -8.264   8.320  74.537  1.00  0.00    -0.393 NA 
HETATM    2  C   UNL     1      -9.094   7.457  73.821  1.00  0.00    -0.247 A  
HETATM    3  H1  UNL     1      -7.802   9.095  74.061  1.00  0.00     0.000 HD 
HETATM    4  H2  UNL     1      -7.553   7.764  75.012  1.00  0.00     0.000 HD 
HETATM    5  C   UNL     1      -9.731   6.390  74.478  1.00  0.00    -0.329 A  
HETATM    6  C   UNL     1     -10.682   5.578  73.829  1.00  0.00    -0.300 A  
HETATM    7  C   UNL     1     -11.058   5.844  72.517  1.00  0.00    -0.328 A  
HETATM    8  C   UNL     1     -10.466   6.932  71.904  1.00  0.00    -0.224 A  
HETATM    9  C   UNL     1      -9.511   7.739  72.531  1.00  0.00    -0.239 A  
HETATM   10  C   UNL     1      -9.107   8.841  71.605  1.00  0.00    -0.244 C  
HETATM   11  N   UNL     1      -9.853   8.536  70.391  1.00  0.00    -0.176 N  
HETATM   12  O   UNL     1     -11.504   7.005  69.760  1.00  0.00    -0.217 OA 
HETATM   13  C   UNL     1     -10.706   7.459  70.558  1.00  0.00    -0.233 C  
ENDROOT
BRANCH  11  14
HETATM   14  C   UNL     1      -9.902   9.400  69.219  1.00  0.00    -0.174 C  
HETATM   15  C   UNL     1      -8.556  10.039  68.899  1.00  0.00    -0.138 C  
HETATM   16  C   UNL     1      -8.653  10.732  67.546  1.00  0.00    -0.125 C  
HETATM   17  C   UNL     1      -9.791  11.727  67.511  1.00  0.00    -0.186 C  
HETATM   18  O   UNL     1      -9.753  12.739  66.817  1.00  0.00    -0.230 OA 
HETATM   19  N   UNL     1     -10.892  11.439  68.279  1.00  0.00    -0.196 N  
HETATM   20  C   UNL     1     -10.952  10.518  69.304  1.00  0.00    -0.244 C  
HETATM   21  H   UNL     1     -11.746  11.955  68.072  1.00  0.00     0.000 HD 
HETATM   22  O   UNL     1     -11.780  10.636  70.202  1.00  0.00    -0.276 OA 
ENDBRANCH  11  14
TORSDOF 1
ENDMDL
MODEL      113
REMARK 921   NORMALIZED FREE ENERGY PREDICTED BY IDOCK:   -4.25 KCAL/MOL
REMARK 922        TOTAL FREE ENERGY PREDICTED BY IDOCK:   -4.85 KCAL/MOL
REMARK 923 INTER-LIGAND FREE ENERGY PREDICTED BY IDOCK:   -4.86 KCAL/MOL
REMARK 924 INTRA-LIGAND FREE ENERGY PREDICTED BY IDOCK:    0.01 KCAL/MOL
REMARK 927      BINDING AFFINITY PREDICTED BY RF-SCORE:    0.00 PKD
ROOT
HETATM    1  N   UNL     1     -11.949   7.146  72.378  1.00  0.00    -0.470 NA 
HETATM    2  C   UNL     1     -12.231   8.390  71.812  1.00  0.00    -0.330 A  
HETATM    3  H1  UNL     1     -11.254   6.536  71.947  1.00  0.00     0.000 HD 
HETATM    4  H2  UNL     1     -12.822   6.627  72.469  1.00  0.00     0.000 HD 
HETATM    5  C   UNL     1     -13.188   9.230  72.406  1.00  0.00    -0.501 A  
HETATM    6  C   UNL     1     -13.408  10.546  71.952  1.00  0.00    -0.461 A  
HETATM    7  C   UNL     1     -12.638  11.072  70.920  1.00  0.00    -0.488 A  
HETATM    8  C   UNL     1     -11.663  10.253  70.385  1.00  0.00    -0.404 A  
HETATM    9  C   UNL     1     -11.442   8.941  70.817  1.00  0.00    -0.319 A  
HETATM   10  C   UNL     1     -10.295   8.355  70.059  1.00  0.00    -0.211 C  
HETATM   11  N   UNL     1      -9.949   9.415  69.120  1.00  0.00    -0.175 N  
HETATM   12  O   UNL     1     -10.594  11.634  68.763  1.00  0.00    -0.206 OA 
HETATM   13  C   UNL     1     -10.693  10.564  69.332  1.00  0.00    -0.241 C  
ENDROOT
BRANCH  11  14
HETATM   14  C   UNL     1      -8.794   9.382  68.234  1.00  0.00    -0.128 C  
HETATM   15  C   UNL     1      -7.850  10.560  68.448  1.00  0.00    -0.110 C  
HETATM   16  C   UNL     1      -6.576  10.319  67.648  1.00  0.00    -0.066 C  
HETATM   17  C   UNL     1      -6.877  10.075  66.186  1.00  0.00    -0.102 C  
HETATM   18  O   UNL     1      -6.091  10.389  65.297  1.00  0.00    -0.117 OA 
HETATM   19  N   UNL     1      -8.068   9.459  65.891  1.00  0.00    -0.113 N  
HETATM   20  C   UNL     1      -9.147   9.321  66.740  1.00  0.00    -0.140 C  
HETATM   21  H   UNL     1      -8.165   9.067  64.955  1.00  0.00     0.000 HD 
HETATM   22  O   UNL     1     -10.281   9.185  66.292  1.00  0.00    -0.276 OA 
ENDBRANCH  11  14
TORSDOF 1
ENDMDL
MODEL      114
REMARK 921   NORMALIZED FREE ENERGY PREDICTED BY IDOCK:   -4.24 KCAL/MOL
REMARK 922        TOTAL FREE ENERGY PREDICTED BY IDOCK:   -4.83 KCAL/MOL
REMARK 923 INTER-LIGAND FREE ENERGY PREDICTED BY IDOCK:   -4.84 KCAL/MOL
REMARK 924 INTRA-LIGAND FREE ENERGY PREDICTED BY IDOCK:    0.01 KCAL/MOL
REMARK 927      BINDING AFFINITY PREDICTED BY RF-SCORE:    0.00 PKD
ROOT
HETATM    1  N   UNL     1      -5.832  11.300  65.534  1.00  0.00    -0.474 NA 
HETATM    2  C   UNL     1      -6.848  10.391  65.235  1.00  0.00    -0.102 A  
HETATM    3  H1  UNL     1      -5.939  11.945  66.317  1.00  0.00     0.000 HD 
HETATM    4  H2  UNL     1      -5.626  11.842  64.695  1.00  0.00     0.000 HD 
HETATM    5  C   UNL     1      -6.699   9.502  64.156  1.00  0.00    -0.101 A  
HETATM    6  C   UNL     1      -7.634   8.479  63.900  1.00  0.00    -0.129 A  
HETATM    7  C   UNL     1      -8.719   8.288  64.749  1.00  0.00     0.034 A  
HETATM    8  C   UNL     1      -8.819   9.133  65.837  1.00  0.00    -0.209 A  
HETATM    9  C   UNL     1      -7.907  10.161  66.097  1.00  0.00    -0.116 A  
HETATM   10  C   UNL     1      -8.287  10.855  67.365  1.00  0.00    -0.117 C  
HETATM   11  N   UNL     1      -9.523  10.183  67.746  1.00  0.00    -0.144 N  
HETATM   12  O   UNL     1     -10.745   8.337  66.993  1.00  0.00    -0.307 OA 
HETATM   13  C   UNL     1      -9.825   9.127  66.903  1.00  0.00    -0.217 C  
ENDROOT
BRANCH  11  14
HETATM   14  C   UNL     1     -10.229  10.412  68.999  1.00  0.00    -0.217 C  
HETATM   15  C   UNL     1     -10.399   9.141  69.823  1.00  0.00    -0.226 C  
HETATM   16  C   UNL     1     -10.937   9.517  71.198  1.00  0.00    -0.438 C  
HETATM   17  C   UNL     1     -12.216  10.316  71.094  1.00  0.00    -0.397 C  
HETATM   18  O   UNL     1     -13.089  10.267  71.956  1.00  0.00    -0.447 OA 
HETATM   19  N   UNL     1     -12.356  11.126  69.994  1.00  0.00    -0.298 N  
HETATM   20  C   UNL     1     -11.612  11.060  68.834  1.00  0.00    -0.314 C  
HETATM   21  H   UNL     1     -13.077  11.844  70.038  1.00  0.00     0.000 HD 
HETATM   22  O   UNL     1     -12.069  11.478  67.774  1.00  0.00    -0.626 OA 
ENDBRANCH  11  14
TORSDOF 1
ENDMDL
MODEL      115
REMARK 921   NORMALIZED FREE ENERGY PREDICTED BY IDOCK:   -4.22 KCAL/MOL
REMARK 922        TOTAL FREE ENERGY PREDICTED BY IDOCK:   -4.81 KCAL/MOL
REMARK 923 INTER-LIGAND FREE ENERGY PREDICTED BY IDOCK:   -4.82 KCAL/MOL
REMARK 924 INTRA-LIGAND FREE ENERGY PREDICTED BY IDOCK:    0.01 KCAL/MOL
REMARK 927      BINDING AFFINITY PREDICTED BY RF-SCORE:    0.00 PKD
ROOT
HETATM    1  N   UNL     1     -12.406  10.752  70.985  1.00  0.00    -0.378 NA 
HETATM    2  C   UNL     1     -12.030  11.895  70.279  1.00  0.00    -0.330 A  
HETATM    3  H1  UNL     1     -12.378   9.839  70.530  1.00  0.00     0.000 HD 
HETATM    4  H2  UNL     1     -13.344  10.897  71.359  1.00  0.00     0.000 HD 
HETATM    5  C   UNL     1     -12.069  13.152  70.907  1.00  0.00    -0.209 A  
HETATM    6  C   UNL     1     -11.572  14.312  70.281  1.00  0.00    -0.289 A  
HETATM    7  C   UNL     1     -10.975  14.235  69.027  1.00  0.00    -0.282 A  
HETATM    8  C   UNL     1     -10.893  12.984  68.448  1.00  0.00    -0.280 A  
HETATM    9  C   UNL     1     -11.394  11.825  69.051  1.00  0.00    -0.338 A  
HETATM   10  C   UNL     1     -11.107  10.647  68.178  1.00  0.00    -0.285 C  
HETATM   11  N   UNL     1     -10.479  11.252  67.010  1.00  0.00    -0.223 N  
HETATM   12  O   UNL     1      -9.728  13.382  66.408  1.00  0.00    -0.270 OA 
HETATM   13  C   UNL     1     -10.283  12.612  67.168  1.00  0.00    -0.225 C  
ENDROOT
BRANCH  11  14
HETATM   14  C   UNL     1      -9.890  10.497  65.912  1.00  0.00    -0.234 C  
HETATM   15  C   UNL     1      -8.392  10.738  65.766  1.00  0.00    -0.158 C  
HETATM   16  C   UNL     1      -7.833   9.747  64.754  1.00  0.00    -0.134 C  
HETATM   17  C   UNL     1      -8.566   9.828  63.433  1.00  0.00    -0.204 C  
HETATM   18  O   UNL     1      -8.015   9.579  62.364  1.00  0.00    -0.112 OA 
HETATM   19  N   UNL     1      -9.893  10.175  63.480  1.00  0.00    -0.500 N  
HETATM   20  C   UNL     1     -10.548  10.752  64.548  1.00  0.00    -0.188 C  
HETATM   21  H   UNL     1     -10.448   9.988  62.645  1.00  0.00     0.000 HD 
HETATM   22  O   UNL     1     -11.560  11.424  64.372  1.00  0.00    -0.178 OA 
ENDBRANCH  11  14
TORSDOF 1
ENDMDL
MODEL      116
REMARK 921   NORMALIZED FREE ENERGY PREDICTED BY IDOCK:   -4.21 KCAL/MOL
REMARK 922        TOTAL FREE ENERGY PREDICTED BY IDOCK:   -4.81 KCAL/MOL
REMARK 923 INTER-LIGAND FREE ENERGY PREDICTED BY IDOCK:   -4.45 KCAL/MOL
REMARK 924 INTRA-LIGAND FREE ENERGY PREDICTED BY IDOCK:   -0.36 KCAL/MOL
REMARK 927      BINDING AFFINITY PREDICTED BY RF-SCORE:    0.00 PKD
ROOT
HETATM    1  N   UNL     1      -6.288   7.342  63.982  1.00  0.00    -0.044 NA 
HETATM    2  C   UNL     1      -7.293   7.067  64.910  1.00  0.00    -0.084 A  
HETATM    3  H1  UNL     1      -6.347   8.177  63.399  1.00  0.00     0.000 HD 
HETATM    4  H2  UNL     1      -6.180   6.530  63.374  1.00  0.00     0.000 HD 
HETATM    5  C   UNL     1      -7.212   5.916  65.713  1.00  0.00    -0.075 A  
HETATM    6  C   UNL     1      -8.128   5.669  66.755  1.00  0.00    -0.102 A  
HETATM    7  C   UNL     1      -9.123   6.594  67.052  1.00  0.00    -0.135 A  
HETATM    8  C   UNL     1      -9.154   7.747  66.291  1.00  0.00    -0.221 A  
HETATM    9  C   UNL     1      -8.260   8.000  65.246  1.00  0.00    -0.148 A  
HETATM   10  C   UNL     1      -8.547   9.345  64.661  1.00  0.00    -0.187 C  
HETATM   11  N   UNL     1      -9.718   9.782  65.411  1.00  0.00    -0.304 N  
HETATM   12  O   UNL     1     -10.936   9.006  67.249  1.00  0.00    -0.137 OA 
HETATM   13  C   UNL     1     -10.057   8.894  66.416  1.00  0.00    -0.263 C  
ENDROOT
BRANCH  11  14
HETATM   14  C   UNL     1     -10.314  11.107  65.302  1.00  0.00    -0.277 C  
HETATM   15  C   UNL     1     -10.489  11.561  63.857  1.00  0.00    -0.439 C  
HETATM   16  C   UNL     1     -11.316  12.839  63.841  1.00  0.00    -0.498 C  
HETATM   17  C   UNL     1     -10.702  13.909  64.715  1.00  0.00    -0.423 C  
HETATM   18  O   UNL     1     -10.827  15.105  64.468  1.00  0.00    -0.312 OA 
HETATM   19  N   UNL     1     -10.009  13.486  65.822  1.00  0.00    -0.378 N  
HETATM   20  C   UNL     1      -9.550  12.206  66.056  1.00  0.00    -0.231 C  
HETATM   21  H   UNL     1      -9.814  14.183  66.539  1.00  0.00     0.000 HD 
HETATM   22  O   UNL     1      -8.592  12.012  66.798  1.00  0.00    -0.189 OA 
ENDBRANCH  11  14
TORSDOF 1
ENDMDL
MODEL      117
REMARK 921   NORMALIZED FREE ENERGY PREDICTED BY IDOCK:   -4.21 KCAL/MOL
REMARK 922        TOTAL FREE ENERGY PREDICTED BY IDOCK:   -4.80 KCAL/MOL
REMARK 923 INTER-LIGAND FREE ENERGY PREDICTED BY IDOCK:   -4.85 KCAL/MOL
REMARK 924 INTRA-LIGAND FREE ENERGY PREDICTED BY IDOCK:    0.05 KCAL/MOL
REMARK 927      BINDING AFFINITY PREDICTED BY RF-SCORE:    0.00 PKD
ROOT
HETATM    1  N   UNL     1      -9.175   8.502  72.709  1.00  0.00    -0.293 NA 
HETATM    2  C   UNL     1      -9.572   7.745  71.607  1.00  0.00    -0.155 A  
HETATM    3  H1  UNL     1      -8.846   9.459  72.579  1.00  0.00     0.000 HD 
HETATM    4  H2  UNL     1      -8.461   7.982  73.218  1.00  0.00     0.000 HD 
HETATM    5  C   UNL     1     -10.026   6.427  71.787  1.00  0.00    -0.195 A  
HETATM    6  C   UNL     1     -10.564   5.673  70.724  1.00  0.00    -0.335 A  
HETATM    7  C   UNL     1     -10.707   6.239  69.462  1.00  0.00    -0.365 A  
HETATM    8  C   UNL     1     -10.311   7.554  69.316  1.00  0.00    -0.209 A  
HETATM    9  C   UNL     1      -9.763   8.310  70.357  1.00  0.00    -0.175 A  
HETATM   10  C   UNL     1      -9.480   9.695  69.870  1.00  0.00    -0.231 C  
HETATM   11  N   UNL     1      -9.840   9.624  68.460  1.00  0.00    -0.153 N  
HETATM   12  O   UNL     1     -10.847   8.055  67.048  1.00  0.00    -0.283 OA 
HETATM   13  C   UNL     1     -10.390   8.399  68.121  1.00  0.00    -0.204 C  
ENDROOT
BRANCH  11  14
HETATM   14  C   UNL     1      -9.867  10.770  67.561  1.00  0.00    -0.172 C  
HETATM   15  C   UNL     1     -11.273  11.117  67.087  1.00  0.00    -0.320 C  
HETATM   16  C   UNL     1     -11.225  12.448  66.346  1.00  0.00    -0.365 C  
HETATM   17  C   UNL     1     -10.222  12.418  65.215  1.00  0.00    -0.282 C  
HETATM   18  O   UNL     1     -10.368  13.086  64.195  1.00  0.00    -0.419 OA 
HETATM   19  N   UNL     1      -9.117  11.622  65.385  1.00  0.00    -0.413 N  
HETATM   20  C   UNL     1      -8.970  10.620  66.322  1.00  0.00    -0.165 C  
HETATM   21  H   UNL     1      -8.329  11.786  64.760  1.00  0.00     0.000 HD 
HETATM   22  O   UNL     1      -8.191   9.692  66.129  1.00  0.00    -0.114 OA 
ENDBRANCH  11  14
TORSDOF 1
ENDMDL
MODEL      118
REMARK 921   NORMALIZED FREE ENERGY PREDICTED BY IDOCK:   -4.20 KCAL/MOL
REMARK 922        TOTAL FREE ENERGY PREDICTED BY IDOCK:   -4.79 KCAL/MOL
REMARK 923 INTER-LIGAND FREE ENERGY PREDICTED BY IDOCK:   -4.47 KCAL/MOL
REMARK 924 INTRA-LIGAND FREE ENERGY PREDICTED BY IDOCK:   -0.32 KCAL/MOL
REMARK 927      BINDING AFFINITY PREDICTED BY RF-SCORE:    0.00 PKD
ROOT
HETATM    1  N   UNL     1      -5.524  11.116  65.081  1.00  0.00    -0.501 NA 
HETATM    2  C   UNL     1      -6.419  10.049  65.012  1.00  0.00    -0.117 A  
HETATM    3  H1  UNL     1      -5.827  12.013  65.464  1.00  0.00     0.000 HD 
HETATM    4  H2  UNL     1      -5.139  11.277  64.150  1.00  0.00     0.000 HD 
HETATM    5  C   UNL     1      -6.001   8.815  64.485  1.00  0.00    -0.065 A  
HETATM    6  C   UNL     1      -6.825   7.672  64.520  1.00  0.00    -0.055 A  
HETATM    7  C   UNL     1      -8.074   7.724  65.130  1.00  0.00    -0.137 A  
HETATM    8  C   UNL     1      -8.447   8.929  65.694  1.00  0.00    -0.171 A  
HETATM    9  C   UNL     1      -7.645  10.074  65.655  1.00  0.00    -0.137 A  
HETATM   10  C   UNL     1      -8.328  11.184  66.387  1.00  0.00    -0.167 C  
HETATM   11  N   UNL     1      -9.603  10.588  66.765  1.00  0.00    -0.166 N  
HETATM   12  O   UNL     1     -10.572   8.462  66.667  1.00  0.00    -0.262 OA 
HETATM   13  C   UNL     1      -9.675   9.247  66.428  1.00  0.00    -0.258 C  
ENDROOT
BRANCH  11  14
HETATM   14  C   UNL     1     -10.589  11.234  67.621  1.00  0.00    -0.213 C  
HETATM   15  C   UNL     1     -10.630  12.747  67.440  1.00  0.00    -0.241 C  
HETATM   16  C   UNL     1     -11.830  13.299  68.198  1.00  0.00    -0.388 C  
HETATM   17  C   UNL     1     -11.805  12.889  69.653  1.00  0.00    -0.320 C  
HETATM   18  O   UNL     1     -12.287  13.591  70.538  1.00  0.00    -0.339 OA 
HETATM   19  N   UNL     1     -11.234  11.675  69.947  1.00  0.00    -0.486 N  
HETATM   20  C   UNL     1     -10.414  10.938  69.119  1.00  0.00    -0.221 C  
HETATM   21  H   UNL     1     -11.435  11.281  70.866  1.00  0.00     0.000 HD 
HETATM   22  O   UNL     1      -9.610  10.138  69.586  1.00  0.00    -0.225 OA 
ENDBRANCH  11  14
TORSDOF 1
ENDMDL
MODEL      119
REMARK 921   NORMALIZED FREE ENERGY PREDICTED BY IDOCK:   -4.12 KCAL/MOL
REMARK 922        TOTAL FREE ENERGY PREDICTED BY IDOCK:   -4.70 KCAL/MOL
REMARK 923 INTER-LIGAND FREE ENERGY PREDICTED BY IDOCK:   -4.34 KCAL/MOL
REMARK 924 INTRA-LIGAND FREE ENERGY PREDICTED BY IDOCK:   -0.36 KCAL/MOL
REMARK 927      BINDING AFFINITY PREDICTED BY RF-SCORE:    0.00 PKD
ROOT
HETATM    1  N   UNL     1      -9.323  11.188  68.811  1.00  0.00    -0.270 NA 
HETATM    2  C   UNL     1      -8.081  11.726  68.473  1.00  0.00    -0.140 A  
HETATM    3  H1  UNL     1     -10.100  11.807  69.044  1.00  0.00     0.000 HD 
HETATM    4  H2  UNL     1      -9.192  10.532  69.581  1.00  0.00     0.000 HD 
HETATM    5  C   UNL     1      -7.010  10.873  68.152  1.00  0.00    -0.069 A  
HETATM    6  C   UNL     1      -5.781  11.369  67.674  1.00  0.00    -0.050 A  
HETATM    7  C   UNL     1      -5.608  12.732  67.457  1.00  0.00    -0.104 A  
HETATM    8  C   UNL     1      -6.688  13.550  67.722  1.00  0.00    -0.173 A  
HETATM    9  C   UNL     1      -7.910  13.075  68.210  1.00  0.00    -0.143 A  
HETATM   10  C   UNL     1      -8.867  14.214  68.350  1.00  0.00    -0.187 C  
HETATM   11  N   UNL     1      -8.057  15.367  67.977  1.00  0.00    -0.137 N  
HETATM   12  O   UNL     1      -5.916  15.719  67.105  1.00  0.00    -0.328 OA 
HETATM   13  C   UNL     1      -6.794  15.001  67.543  1.00  0.00    -0.168 C  
ENDROOT
BRANCH  11  14
HETATM   14  C   UNL     1      -8.575  16.720  67.826  1.00  0.00    -0.198 C  
HETATM   15  C   UNL     1      -9.550  17.107  68.932  1.00  0.00    -0.237 C  
HETATM   16  C   UNL     1      -9.856  18.595  68.817  1.00  0.00    -0.422 C  
HETATM   17  C   UNL     1     -10.370  18.951  67.440  1.00  0.00    -0.427 C  
HETATM   18  O   UNL     1     -11.158  19.874  67.255  1.00  0.00    -0.288 OA 
HETATM   19  N   UNL     1      -9.899  18.205  66.388  1.00  0.00    -0.349 N  
HETATM   20  C   UNL     1      -9.259  16.986  66.475  1.00  0.00    -0.271 C  
HETATM   21  H   UNL     1     -10.034  18.588  65.453  1.00  0.00     0.000 HD 
HETATM   22  O   UNL     1      -9.280  16.200  65.533  1.00  0.00    -0.377 OA 
ENDBRANCH  11  14
TORSDOF 1
ENDMDL
MODEL      120
REMARK 921   NORMALIZED FREE ENERGY PREDICTED BY IDOCK:   -4.10 KCAL/MOL
REMARK 922        TOTAL FREE ENERGY PREDICTED BY IDOCK:   -4.68 KCAL/MOL
REMARK 923 INTER-LIGAND FREE ENERGY PREDICTED BY IDOCK:   -4.74 KCAL/MOL
REMARK 924 INTRA-LIGAND FREE ENERGY PREDICTED BY IDOCK:    0.06 KCAL/MOL
REMARK 927      BINDING AFFINITY PREDICTED BY RF-SCORE:    0.00 PKD
ROOT
HETATM    1  N   UNL     1      -6.383  17.810  68.241  1.00  0.00    -0.185 NA 
HETATM    2  C   UNL     1      -7.733  18.099  68.044  1.00  0.00    -0.255 A  
HETATM    3  H1  UNL     1      -6.111  16.964  68.742  1.00  0.00     0.000 HD 
HETATM    4  H2  UNL     1      -5.944  18.610  68.696  1.00  0.00     0.000 HD 
HETATM    5  C   UNL     1      -8.108  19.264  67.353  1.00  0.00    -0.306 A  
HETATM    6  C   UNL     1      -9.450  19.528  67.011  1.00  0.00    -0.426 A  
HETATM    7  C   UNL     1     -10.447  18.606  67.310  1.00  0.00    -0.468 A  
HETATM    8  C   UNL     1     -10.054  17.440  67.938  1.00  0.00    -0.326 A  
HETATM    9  C   UNL     1      -8.729  17.170  68.295  1.00  0.00    -0.241 A  
HETATM   10  C   UNL     1      -8.649  15.814  68.918  1.00  0.00    -0.220 C  
HETATM   11  N   UNL     1     -10.042  15.387  68.950  1.00  0.00    -0.210 N  
HETATM   12  O   UNL     1     -12.077  16.194  68.128  1.00  0.00     0.109 OA 
HETATM   13  C   UNL     1     -10.881  16.293  68.324  1.00  0.00    -0.340 C  
ENDROOT
BRANCH  11  14
HETATM   14  C   UNL     1     -10.485  14.060  69.354  1.00  0.00     0.071 C  
HETATM   15  C   UNL     1     -11.077  13.257  68.201  1.00  0.00    -0.286 C  
HETATM   16  C   UNL     1     -11.297  11.823  68.666  1.00  0.00    -0.327 C  
HETATM   17  C   UNL     1     -12.153  11.767  69.911  1.00  0.00    -0.287 C  
HETATM   18  O   UNL     1     -12.893  10.818  70.153  1.00  0.00    -0.265 OA 
HETATM   19  N   UNL     1     -12.051  12.824  70.782  1.00  0.00    -0.491 N  
HETATM   20  C   UNL     1     -11.501  14.058  70.507  1.00  0.00     0.004 C  
HETATM   21  H   UNL     1     -12.418  12.682  71.723  1.00  0.00     0.000 HD 
HETATM   22  O   UNL     1     -11.843  15.051  71.142  1.00  0.00    -0.291 OA 
ENDBRANCH  11  14
TORSDOF 1
ENDMDL
MODEL      121
REMARK 921   NORMALIZED FREE ENERGY PREDICTED BY IDOCK:   -4.08 KCAL/MOL
REMARK 922        TOTAL FREE ENERGY PREDICTED BY IDOCK:   -4.67 KCAL/MOL
REMARK 923 INTER-LIGAND FREE ENERGY PREDICTED BY IDOCK:   -5.56 KCAL/MOL
REMARK 924 INTRA-LIGAND FREE ENERGY PREDICTED BY IDOCK:    0.90 KCAL/MOL
REMARK 927      BINDING AFFINITY PREDICTED BY RF-SCORE:    0.00 PKD
ROOT
HETATM    1  N   UNL     1      -9.073  10.523  64.287  1.00  0.00    -0.212 NA 
HETATM    2  C   UNL     1      -9.693  10.527  65.536  1.00  0.00    -0.242 A  
HETATM    3  H1  UNL     1      -8.901  11.403  63.799  1.00  0.00     0.000 HD 
HETATM    4  H2  UNL     1      -9.599   9.908  63.666  1.00  0.00     0.000 HD 
HETATM    5  C   UNL     1      -9.929   9.315  66.207  1.00  0.00    -0.357 A  
HETATM    6  C   UNL     1     -10.427   9.278  67.525  1.00  0.00    -0.338 A  
HETATM    7  C   UNL     1     -10.656  10.458  68.225  1.00  0.00    -0.245 A  
HETATM    8  C   UNL     1     -10.364  11.640  67.572  1.00  0.00    -0.220 A  
HETATM    9  C   UNL     1      -9.882  11.693  66.260  1.00  0.00    -0.245 A  
HETATM   10  C   UNL     1      -9.639  13.117  65.877  1.00  0.00    -0.108 C  
HETATM   11  N   UNL     1     -10.097  13.852  67.049  1.00  0.00    -0.252 N  
HETATM   12  O   UNL     1     -10.827  13.314  69.204  1.00  0.00    -0.206 OA 
HETATM   13  C   UNL     1     -10.468  13.009  68.083  1.00  0.00    -0.245 C  
ENDROOT
BRANCH  11  14
HETATM   14  C   UNL     1      -9.948  15.290  67.226  1.00  0.00    -0.226 C  
HETATM   15  C   UNL     1     -10.881  15.856  68.290  1.00  0.00    -0.315 C  
HETATM   16  C   UNL     1     -10.496  17.304  68.560  1.00  0.00    -0.375 C  
HETATM   17  C   UNL     1     -10.498  18.125  67.290  1.00  0.00    -0.393 C  
HETATM   18  O   UNL     1     -10.760  19.325  67.288  1.00  0.00    -0.455 OA 
HETATM   19  N   UNL     1     -10.171  17.473  66.127  1.00  0.00    -0.353 N  
HETATM   20  C   UNL     1     -10.143  16.107  65.939  1.00  0.00    -0.354 C  
HETATM   21  H   UNL     1      -9.925  18.053  65.326  1.00  0.00     0.000 HD 
HETATM   22  O   UNL     1     -10.289  15.627  64.819  1.00  0.00    -0.422 OA 
ENDBRANCH  11  14
TORSDOF 1
ENDMDL
MODEL      122
REMARK 921   NORMALIZED FREE ENERGY PREDICTED BY IDOCK:   -4.07 KCAL/MOL
REMARK 922        TOTAL FREE ENERGY PREDICTED BY IDOCK:   -4.66 KCAL/MOL
REMARK 923 INTER-LIGAND FREE ENERGY PREDICTED BY IDOCK:   -4.72 KCAL/MOL
REMARK 924 INTRA-LIGAND FREE ENERGY PREDICTED BY IDOCK:    0.06 KCAL/MOL
REMARK 927      BINDING AFFINITY PREDICTED BY RF-SCORE:    0.00 PKD
ROOT
HETATM    1  N   UNL     1     -13.062  12.592  70.887  1.00  0.00     0.029 NA 
HETATM    2  C   UNL     1     -12.466  11.333  70.953  1.00  0.00    -0.394 A  
HETATM    3  H1  UNL     1     -12.756  13.264  70.182  1.00  0.00     0.000 HD 
HETATM    4  H2  UNL     1     -12.990  13.032  71.805  1.00  0.00     0.000 HD 
HETATM    5  C   UNL     1     -12.887  10.407  71.924  1.00  0.00    -0.519 A  
HETATM    6  C   UNL     1     -12.414   9.080  71.943  1.00  0.00    -0.454 A  
HETATM    7  C   UNL     1     -11.542   8.630  70.957  1.00  0.00    -0.325 A  
HETATM    8  C   UNL     1     -11.183   9.535  69.977  1.00  0.00    -0.243 A  
HETATM    9  C   UNL     1     -11.634  10.859  69.953  1.00  0.00    -0.410 A  
HETATM   10  C   UNL     1     -11.088  11.548  68.745  1.00  0.00    -0.233 C  
HETATM   11  N   UNL     1     -10.237  10.528  68.145  1.00  0.00    -0.156 N  
HETATM   12  O   UNL     1      -9.792   8.263  68.519  1.00  0.00    -0.166 OA 
HETATM   13  C   UNL     1     -10.323   9.317  68.811  1.00  0.00    -0.211 C  
ENDROOT
BRANCH  11  14
HETATM   14  C   UNL     1      -9.572  10.668  66.856  1.00  0.00    -0.171 C  
HETATM   15  C   UNL     1      -9.827   9.486  65.927  1.00  0.00    -0.360 C  
HETATM   16  C   UNL     1      -9.287   9.826  64.544  1.00  0.00    -0.298 C  
HETATM   17  C   UNL     1      -7.828  10.217  64.598  1.00  0.00    -0.123 C  
HETATM   18  O   UNL     1      -7.060  10.007  63.663  1.00  0.00    -0.124 OA 
HETATM   19  N   UNL     1      -7.394  10.844  65.740  1.00  0.00    -0.338 N  
HETATM   20  C   UNL     1      -8.053  10.880  66.951  1.00  0.00    -0.137 C  
HETATM   21  H   UNL     1      -6.500  11.330  65.688  1.00  0.00     0.000 HD 
HETATM   22  O   UNL     1      -7.432  11.047  67.996  1.00  0.00    -0.086 OA 
ENDBRANCH  11  14
TORSDOF 1
ENDMDL
MODEL      123
REMARK 921   NORMALIZED FREE ENERGY PREDICTED BY IDOCK:   -4.05 KCAL/MOL
REMARK 922        TOTAL FREE ENERGY PREDICTED BY IDOCK:   -4.63 KCAL/MOL
REMARK 923 INTER-LIGAND FREE ENERGY PREDICTED BY IDOCK:   -4.65 KCAL/MOL
REMARK 924 INTRA-LIGAND FREE ENERGY PREDICTED BY IDOCK:    0.02 KCAL/MOL
REMARK 927      BINDING AFFINITY PREDICTED BY RF-SCORE:    0.00 PKD
ROOT
HETATM    1  N   UNL     1      -9.823   3.993  68.655  1.00  0.00    -0.059 NA 
HETATM    2  C   UNL     1      -9.072   4.719  69.580  1.00  0.00    -0.103 A  
HETATM    3  H1  UNL     1     -10.794   4.248  68.474  1.00  0.00     0.000 HD 
HETATM    4  H2  UNL     1      -9.791   3.007  68.917  1.00  0.00     0.000 HD 
HETATM    5  C   UNL     1      -7.734   4.368  69.829  1.00  0.00    -0.054 A  
HETATM    6  C   UNL     1      -6.899   5.153  70.649  1.00  0.00    -0.044 A  
HETATM    7  C   UNL     1      -7.368   6.339  71.202  1.00  0.00    -0.080 A  
HETATM    8  C   UNL     1      -8.667   6.700  70.900  1.00  0.00    -0.138 A  
HETATM    9  C   UNL     1      -9.512   5.925  70.100  1.00  0.00    -0.190 A  
HETATM   10  C   UNL     1     -10.826   6.620  69.946  1.00  0.00    -0.278 C  
HETATM   11  N   UNL     1     -10.671   7.800  70.787  1.00  0.00    -0.223 N  
HETATM   12  O   UNL     1      -8.933   8.805  71.987  1.00  0.00    -0.304 OA 
HETATM   13  C   UNL     1      -9.393   7.906  71.308  1.00  0.00    -0.146 C  
ENDROOT
BRANCH  11  14
HETATM   14  C   UNL     1     -11.644   8.881  70.873  1.00  0.00    -0.283 C  
HETATM   15  C   UNL     1     -11.040  10.247  70.568  1.00  0.00    -0.381 C  
HETATM   16  C   UNL     1     -12.166  11.267  70.460  1.00  0.00    -0.474 C  
HETATM   17  C   UNL     1     -13.027  11.277  71.704  1.00  0.00    -0.432 C  
HETATM   18  O   UNL     1     -13.599  12.292  72.094  1.00  0.00    -0.461 OA 
HETATM   19  N   UNL     1     -13.163  10.088  72.376  1.00  0.00    -0.554 N  
HETATM   20  C   UNL     1     -12.367   8.971  72.226  1.00  0.00    -0.332 C  
HETATM   21  H   UNL     1     -13.925  10.023  73.050  1.00  0.00     0.000 HD 
HETATM   22  O   UNL     1     -12.258   8.155  73.136  1.00  0.00    -0.118 OA 
ENDBRANCH  11  14
TORSDOF 1
ENDMDL
MODEL      124
REMARK 921   NORMALIZED FREE ENERGY PREDICTED BY IDOCK:   -4.02 KCAL/MOL
REMARK 922        TOTAL FREE ENERGY PREDICTED BY IDOCK:   -4.60 KCAL/MOL
REMARK 923 INTER-LIGAND FREE ENERGY PREDICTED BY IDOCK:   -4.26 KCAL/MOL
REMARK 924 INTRA-LIGAND FREE ENERGY PREDICTED BY IDOCK:   -0.34 KCAL/MOL
REMARK 927      BINDING AFFINITY PREDICTED BY RF-SCORE:    0.00 PKD
ROOT
HETATM    1  N   UNL     1     -11.199   6.007  66.432  1.00  0.00    -0.722 NA 
HETATM    2  C   UNL     1      -9.864   6.404  66.504  1.00  0.00    -0.116 A  
HETATM    3  H1  UNL     1     -11.940   6.660  66.688  1.00  0.00     0.000 HD 
HETATM    4  H2  UNL     1     -11.314   5.156  66.983  1.00  0.00     0.000 HD 
HETATM    5  C   UNL     1      -8.844   5.504  66.150  1.00  0.00    -0.139 A  
HETATM    6  C   UNL     1      -7.494   5.900  66.075  1.00  0.00    -0.085 A  
HETATM    7  C   UNL     1      -7.135   7.224  66.306  1.00  0.00    -0.077 A  
HETATM    8  C   UNL     1      -8.156   8.108  66.596  1.00  0.00    -0.103 A  
HETATM    9  C   UNL     1      -9.499   7.727  66.686  1.00  0.00    -0.263 A  
HETATM   10  C   UNL     1     -10.338   8.929  66.976  1.00  0.00    -0.269 C  
HETATM   11  N   UNL     1      -9.350   9.990  67.117  1.00  0.00    -0.148 N  
HETATM   12  O   UNL     1      -7.043  10.206  66.801  1.00  0.00    -0.088 OA 
HETATM   13  C   UNL     1      -8.067   9.551  66.836  1.00  0.00    -0.109 C  
ENDROOT
BRANCH  11  14
HETATM   14  C   UNL     1      -9.677  11.401  67.278  1.00  0.00    -0.185 C  
HETATM   15  C   UNL     1     -10.939  11.624  68.104  1.00  0.00    -0.275 C  
HETATM   16  C   UNL     1     -11.069  13.112  68.405  1.00  0.00    -0.298 C  
HETATM   17  C   UNL     1     -11.050  13.939  67.140  1.00  0.00    -0.300 C  
HETATM   18  O   UNL     1     -11.652  15.005  67.047  1.00  0.00    -0.331 OA 
HETATM   19  N   UNL     1     -10.305  13.455  66.092  1.00  0.00    -0.289 N  
HETATM   20  C   UNL     1      -9.832  12.167  65.955  1.00  0.00    -0.243 C  
HETATM   21  H   UNL     1     -10.081  14.110  65.344  1.00  0.00     0.000 HD 
HETATM   22  O   UNL     1      -9.589  11.705  64.844  1.00  0.00    -0.224 OA 
ENDBRANCH  11  14
TORSDOF 1
ENDMDL
MODEL      125
REMARK 921   NORMALIZED FREE ENERGY PREDICTED BY IDOCK:   -4.00 KCAL/MOL
REMARK 922        TOTAL FREE ENERGY PREDICTED BY IDOCK:   -4.58 KCAL/MOL
REMARK 923 INTER-LIGAND FREE ENERGY PREDICTED BY IDOCK:   -4.23 KCAL/MOL
REMARK 924 INTRA-LIGAND FREE ENERGY PREDICTED BY IDOCK:   -0.35 KCAL/MOL
REMARK 927      BINDING AFFINITY PREDICTED BY RF-SCORE:    0.00 PKD
ROOT
HETATM    1  N   UNL     1      -8.725  15.792  65.836  1.00  0.00    -0.301 NA 
HETATM    2  C   UNL     1      -9.932  15.106  65.974  1.00  0.00    -0.311 A  
HETATM    3  H1  UNL     1      -7.889  15.456  66.315  1.00  0.00     0.000 HD 
HETATM    4  H2  UNL     1      -8.876  16.767  66.095  1.00  0.00     0.000 HD 
HETATM    5  C   UNL     1     -11.082  15.569  65.313  1.00  0.00    -0.344 A  
HETATM    6  C   UNL     1     -12.286  14.837  65.312  1.00  0.00    -0.120 A  
HETATM    7  C   UNL     1     -12.355  13.594  65.934  1.00  0.00    -0.516 A  
HETATM    8  C   UNL     1     -11.200  13.127  66.529  1.00  0.00    -0.339 A  
HETATM    9  C   UNL     1     -10.001  13.848  66.550  1.00  0.00    -0.288 A  
HETATM   10  C   UNL     1      -8.947  13.043  67.238  1.00  0.00    -0.212 C  
HETATM   11  N   UNL     1      -9.674  11.854  67.665  1.00  0.00    -0.181 N  
HETATM   12  O   UNL     1     -11.815  10.972  67.339  1.00  0.00    -0.523 OA 
HETATM   13  C   UNL     1     -10.981  11.847  67.209  1.00  0.00    -0.268 C  
ENDROOT
BRANCH  11  14
HETATM   14  C   UNL     1      -9.052  10.687  68.277  1.00  0.00    -0.153 C  
HETATM   15  C   UNL     1      -7.907  11.050  69.215  1.00  0.00    -0.056 C  
HETATM   16  C   UNL     1      -7.477   9.799  69.970  1.00  0.00    -0.158 C  
HETATM   17  C   UNL     1      -7.117   8.676  69.024  1.00  0.00    -0.065 C  
HETATM   18  O   UNL     1      -6.275   7.828  69.306  1.00  0.00    -0.033 OA 
HETATM   19  N   UNL     1      -7.794   8.629  67.830  1.00  0.00    -0.102 N  
HETATM   20  C   UNL     1      -8.531   9.651  67.269  1.00  0.00    -0.132 C  
HETATM   21  H   UNL     1      -7.747   7.754  67.307  1.00  0.00     0.000 HD 
HETATM   22  O   UNL     1      -8.711   9.699  66.056  1.00  0.00    -0.132 OA 
ENDBRANCH  11  14
TORSDOF 1
ENDMDL
MODEL      126
REMARK 921   NORMALIZED FREE ENERGY PREDICTED BY IDOCK:   -4.00 KCAL/MOL
REMARK 922        TOTAL FREE ENERGY PREDICTED BY IDOCK:   -4.58 KCAL/MOL
REMARK 923 INTER-LIGAND FREE ENERGY PREDICTED BY IDOCK:   -4.61 KCAL/MOL
REMARK 924 INTRA-LIGAND FREE ENERGY PREDICTED BY IDOCK:    0.03 KCAL/MOL
REMARK 927      BINDING AFFINITY PREDICTED BY RF-SCORE:    0.00 PKD
ROOT
HETATM    1  N   UNL     1      -8.295   7.745  64.241  1.00  0.00    -0.363 NA 
HETATM    2  C   UNL     1      -8.887   8.862  64.831  1.00  0.00    -0.117 A  
HETATM    3  H1  UNL     1      -7.952   6.982  64.824  1.00  0.00     0.000 HD 
HETATM    4  H2  UNL     1      -7.532   8.062  63.643  1.00  0.00     0.000 HD 
HETATM    5  C   UNL     1      -9.360   9.913  64.027  1.00  0.00    -0.280 A  
HETATM    6  C   UNL     1     -10.085  10.995  64.566  1.00  0.00    -0.380 A  
HETATM    7  C   UNL     1     -10.399  11.027  65.920  1.00  0.00    -0.315 A  
HETATM    8  C   UNL     1      -9.977   9.958  66.687  1.00  0.00    -0.277 A  
HETATM    9  C   UNL     1      -9.246   8.884  66.169  1.00  0.00    -0.273 A  
HETATM   10  C   UNL     1      -8.986   7.890  67.254  1.00  0.00    -0.127 C  
HETATM   11  N   UNL     1      -9.562   8.532  68.428  1.00  0.00    -0.145 N  
HETATM   12  O   UNL     1     -10.836  10.445  68.856  1.00  0.00    -0.209 OA 
HETATM   13  C   UNL     1     -10.206   9.716  68.114  1.00  0.00    -0.190 C  
ENDROOT
BRANCH  11  14
HETATM   14  C   UNL     1      -9.680   7.899  69.735  1.00  0.00    -0.176 C  
HETATM   15  C   UNL     1     -11.129   7.679  70.157  1.00  0.00    -0.229 C  
HETATM   16  C   UNL     1     -11.148   6.818  71.413  1.00  0.00    -0.293 C  
HETATM   17  C   UNL     1     -10.308   7.424  72.515  1.00  0.00    -0.227 C  
HETATM   18  O   UNL     1     -10.574   7.262  73.702  1.00  0.00    -0.375 OA 
HETATM   19  N   UNL     1      -9.211   8.154  72.130  1.00  0.00    -0.172 N  
HETATM   20  C   UNL     1      -8.964   8.651  70.867  1.00  0.00    -0.187 C  
HETATM   21  H   UNL     1      -8.511   8.347  72.846  1.00  0.00     0.000 HD 
HETATM   22  O   UNL     1      -8.242   9.631  70.712  1.00  0.00    -0.273 OA 
ENDBRANCH  11  14
TORSDOF 1
ENDMDL
MODEL      127
REMARK 921   NORMALIZED FREE ENERGY PREDICTED BY IDOCK:   -4.00 KCAL/MOL
REMARK 922        TOTAL FREE ENERGY PREDICTED BY IDOCK:   -4.58 KCAL/MOL
REMARK 923 INTER-LIGAND FREE ENERGY PREDICTED BY IDOCK:   -4.26 KCAL/MOL
REMARK 924 INTRA-LIGAND FREE ENERGY PREDICTED BY IDOCK:   -0.32 KCAL/MOL
REMARK 927      BINDING AFFINITY PREDICTED BY RF-SCORE:    0.00 PKD
ROOT
HETATM    1  N   UNL     1     -11.189   4.786  65.431  1.00  0.00    -0.970 NA 
HETATM    2  C   UNL     1      -9.884   5.081  65.825  1.00  0.00    -0.129 A  
HETATM    3  H1  UNL     1     -11.969   5.323  65.810  1.00  0.00     0.000 HD 
HETATM    4  H2  UNL     1     -11.364   3.796  65.606  1.00  0.00     0.000 HD 
HETATM    5  C   UNL     1      -8.809   4.340  65.303  1.00  0.00    -0.131 A  
HETATM    6  C   UNL     1      -7.468   4.688  65.564  1.00  0.00    -0.081 A  
HETATM    7  C   UNL     1      -7.168   5.818  66.317  1.00  0.00    -0.077 A  
HETATM    8  C   UNL     1      -8.235   6.568  66.774  1.00  0.00    -0.110 A  
HETATM    9  C   UNL     1      -9.570   6.228  66.534  1.00  0.00    -0.183 A  
HETATM   10  C   UNL     1     -10.463   7.266  67.134  1.00  0.00    -0.324 C  
HETATM   11  N   UNL     1      -9.522   8.164  67.791  1.00  0.00    -0.140 N  
HETATM   12  O   UNL     1      -7.198   8.399  67.892  1.00  0.00    -0.087 OA 
HETATM   13  C   UNL     1      -8.205   7.815  67.544  1.00  0.00    -0.124 C  
ENDROOT
BRANCH  11  14
HETATM   14  C   UNL     1      -9.893   9.425  68.419  1.00  0.00    -0.160 C  
HETATM   15  C   UNL     1     -11.019   9.271  69.435  1.00  0.00    -0.138 C  
HETATM   16  C   UNL     1     -11.178  10.582  70.193  1.00  0.00    -0.389 C  
HETATM   17  C   UNL     1     -11.400  11.745  69.251  1.00  0.00    -0.286 C  
HETATM   18  O   UNL     1     -12.064  12.727  69.571  1.00  0.00    -0.280 OA 
HETATM   19  N   UNL     1     -10.805  11.667  68.017  1.00  0.00    -0.203 N  
HETATM   20  C   UNL     1     -10.293  10.529  67.429  1.00  0.00    -0.224 C  
HETATM   21  H   UNL     1     -10.735  12.532  67.483  1.00  0.00     0.000 HD 
HETATM   22  O   UNL     1     -10.203  10.442  66.208  1.00  0.00    -0.225 OA 
ENDBRANCH  11  14
TORSDOF 1
ENDMDL
MODEL      128
REMARK 921   NORMALIZED FREE ENERGY PREDICTED BY IDOCK:   -4.00 KCAL/MOL
REMARK 922        TOTAL FREE ENERGY PREDICTED BY IDOCK:   -4.58 KCAL/MOL
REMARK 923 INTER-LIGAND FREE ENERGY PREDICTED BY IDOCK:   -4.65 KCAL/MOL
REMARK 924 INTRA-LIGAND FREE ENERGY PREDICTED BY IDOCK:    0.07 KCAL/MOL
REMARK 927      BINDING AFFINITY PREDICTED BY RF-SCORE:    0.00 PKD
ROOT
HETATM    1  N   UNL     1      -6.692  17.750  67.849  1.00  0.00    -0.188 NA 
HETATM    2  C   UNL     1      -8.011  17.692  67.398  1.00  0.00    -0.206 A  
HETATM    3  H1  UNL     1      -6.231  16.906  68.186  1.00  0.00     0.000 HD 
HETATM    4  H2  UNL     1      -6.631  18.464  68.575  1.00  0.00     0.000 HD 
HETATM    5  C   UNL     1      -8.646  18.856  66.932  1.00  0.00    -0.300 A  
HETATM    6  C   UNL     1      -9.925  18.821  66.342  1.00  0.00    -0.426 A  
HETATM    7  C   UNL     1     -10.583  17.609  66.156  1.00  0.00    -0.220 A  
HETATM    8  C   UNL     1      -9.920  16.468  66.567  1.00  0.00    -0.297 A  
HETATM    9  C   UNL     1      -8.656  16.489  67.166  1.00  0.00    -0.208 A  
HETATM   10  C   UNL     1      -8.218  15.088  67.450  1.00  0.00    -0.194 C  
HETATM   11  N   UNL     1      -9.369  14.297  67.033  1.00  0.00    -0.231 N  
HETATM   12  O   UNL     1     -11.399  14.705  65.948  1.00  0.00    -0.334 OA 
HETATM   13  C   UNL     1     -10.356  15.074  66.453  1.00  0.00    -0.287 C  
ENDROOT
BRANCH  11  14
HETATM   14  C   UNL     1      -9.390  12.841  66.988  1.00  0.00    -0.229 C  
HETATM   15  C   UNL     1      -9.892  12.297  65.655  1.00  0.00    -0.247 C  
HETATM   16  C   UNL     1      -9.665  10.791  65.624  1.00  0.00    -0.287 C  
HETATM   17  C   UNL     1     -10.309  10.107  66.809  1.00  0.00    -0.222 C  
HETATM   18  O   UNL     1     -10.735   8.958  66.747  1.00  0.00    -0.198 OA 
HETATM   19  N   UNL     1     -10.379  10.824  67.977  1.00  0.00    -0.175 N  
HETATM   20  C   UNL     1     -10.214  12.187  68.109  1.00  0.00    -0.203 C  
HETATM   21  H   UNL     1     -10.572  10.299  68.830  1.00  0.00     0.000 HD 
HETATM   22  O   UNL     1     -10.721  12.791  69.049  1.00  0.00    -0.197 OA 
ENDBRANCH  11  14
TORSDOF 1
ENDMDL
MODEL      129
REMARK 921   NORMALIZED FREE ENERGY PREDICTED BY IDOCK:   -3.98 KCAL/MOL
REMARK 922        TOTAL FREE ENERGY PREDICTED BY IDOCK:   -4.55 KCAL/MOL
REMARK 923 INTER-LIGAND FREE ENERGY PREDICTED BY IDOCK:   -4.19 KCAL/MOL
REMARK 924 INTRA-LIGAND FREE ENERGY PREDICTED BY IDOCK:   -0.36 KCAL/MOL
REMARK 927      BINDING AFFINITY PREDICTED BY RF-SCORE:    0.00 PKD
ROOT
HETATM    1  N   UNL     1      -7.225   8.951  72.625  1.00  0.00    -0.334 NA 
HETATM    2  C   UNL     1      -8.353   8.150  72.446  1.00  0.00    -0.170 A  
HETATM    3  H1  UNL     1      -6.643   9.198  71.824  1.00  0.00     0.000 HD 
HETATM    4  H2  UNL     1      -6.632   8.521  73.334  1.00  0.00     0.000 HD 
HETATM    5  C   UNL     1      -9.155   7.810  73.549  1.00  0.00    -0.342 A  
HETATM    6  C   UNL     1     -10.374   7.120  73.399  1.00  0.00    -0.391 A  
HETATM    7  C   UNL     1     -10.848   6.795  72.133  1.00  0.00    -0.257 A  
HETATM    8  C   UNL     1     -10.077   7.187  71.056  1.00  0.00    -0.199 A  
HETATM    9  C   UNL     1      -8.858   7.860  71.189  1.00  0.00    -0.150 A  
HETATM   10  C   UNL     1      -8.307   8.166  69.834  1.00  0.00    -0.123 C  
HETATM   11  N   UNL     1      -9.275   7.541  68.941  1.00  0.00    -0.143 N  
HETATM   12  O   UNL     1     -11.353   6.492  69.166  1.00  0.00    -0.320 OA 
HETATM   13  C   UNL     1     -10.356   7.014  69.627  1.00  0.00    -0.209 C  
ENDROOT
BRANCH  11  14
HETATM   14  C   UNL     1      -9.256   7.669  67.490  1.00  0.00    -0.132 C  
HETATM   15  C   UNL     1      -7.848   7.602  66.909  1.00  0.00    -0.111 C  
HETATM   16  C   UNL     1      -7.948   7.517  65.392  1.00  0.00    -0.124 C  
HETATM   17  C   UNL     1      -8.757   8.661  64.823  1.00  0.00    -0.063 C  
HETATM   18  O   UNL     1      -8.542   9.120  63.705  1.00  0.00    -0.200 OA 
HETATM   19  N   UNL     1      -9.767   9.158  65.608  1.00  0.00    -0.447 N  
HETATM   20  C   UNL     1      -9.929   8.945  66.962  1.00  0.00    -0.233 C  
HETATM   21  H   UNL     1     -10.466   9.740  65.147  1.00  0.00     0.000 HD 
HETATM   22  O   UNL     1     -10.548   9.749  67.651  1.00  0.00    -0.242 OA 
ENDBRANCH  11  14
TORSDOF 1
ENDMDL
MODEL      130
REMARK 921   NORMALIZED FREE ENERGY PREDICTED BY IDOCK:   -3.96 KCAL/MOL
REMARK 922        TOTAL FREE ENERGY PREDICTED BY IDOCK:   -4.53 KCAL/MOL
REMARK 923 INTER-LIGAND FREE ENERGY PREDICTED BY IDOCK:   -4.55 KCAL/MOL
REMARK 924 INTRA-LIGAND FREE ENERGY PREDICTED BY IDOCK:    0.02 KCAL/MOL
REMARK 927      BINDING AFFINITY PREDICTED BY RF-SCORE:    0.00 PKD
ROOT
HETATM    1  N   UNL     1     -10.513  13.225  67.088  1.00  0.00    -0.247 NA 
HETATM    2  C   UNL     1     -10.844  12.567  68.272  1.00  0.00    -0.234 A  
HETATM    3  H1  UNL     1      -9.989  12.736  66.362  1.00  0.00     0.000 HD 
HETATM    4  H2  UNL     1     -10.015  14.083  67.323  1.00  0.00     0.000 HD 
HETATM    5  C   UNL     1     -11.568  13.242  69.271  1.00  0.00    -0.370 A  
HETATM    6  C   UNL     1     -12.042  12.581  70.422  1.00  0.00    -0.380 A  
HETATM    7  C   UNL     1     -11.846  11.213  70.579  1.00  0.00    -0.448 A  
HETATM    8  C   UNL     1     -11.184  10.554  69.561  1.00  0.00    -0.329 A  
HETATM    9  C   UNL     1     -10.696  11.198  68.420  1.00  0.00    -0.234 A  
HETATM   10  C   UNL     1     -10.070  10.192  67.510  1.00  0.00    -0.201 C  
HETATM   11  N   UNL     1     -10.179   8.953  68.270  1.00  0.00    -0.195 N  
HETATM   12  O   UNL     1     -11.200   8.276  70.262  1.00  0.00    -0.249 OA 
HETATM   13  C   UNL     1     -10.884   9.124  69.449  1.00  0.00    -0.151 C  
ENDROOT
BRANCH  11  14
HETATM   14  C   UNL     1      -9.823   7.639  67.753  1.00  0.00    -0.158 C  
HETATM   15  C   UNL     1     -11.019   6.698  67.655  1.00  0.00    -0.392 C  
HETATM   16  C   UNL     1     -10.596   5.445  66.900  1.00  0.00    -0.320 C  
HETATM   17  C   UNL     1      -9.393   4.790  67.542  1.00  0.00    -0.138 C  
HETATM   18  O   UNL     1      -9.206   3.577  67.493  1.00  0.00    -0.156 OA 
HETATM   19  N   UNL     1      -8.497   5.618  68.172  1.00  0.00    -0.099 N  
HETATM   20  C   UNL     1      -8.721   6.925  68.550  1.00  0.00    -0.125 C  
HETATM   21  H   UNL     1      -7.578   5.229  68.380  1.00  0.00     0.000 HD 
HETATM   22  O   UNL     1      -8.082   7.428  69.469  1.00  0.00    -0.124 OA 
ENDBRANCH  11  14
TORSDOF 1
ENDMDL
MODEL      131
REMARK 921   NORMALIZED FREE ENERGY PREDICTED BY IDOCK:   -3.95 KCAL/MOL
REMARK 922        TOTAL FREE ENERGY PREDICTED BY IDOCK:   -4.52 KCAL/MOL
REMARK 923 INTER-LIGAND FREE ENERGY PREDICTED BY IDOCK:   -4.53 KCAL/MOL
REMARK 924 INTRA-LIGAND FREE ENERGY PREDICTED BY IDOCK:    0.01 KCAL/MOL
REMARK 927      BINDING AFFINITY PREDICTED BY RF-SCORE:    0.00 PKD
ROOT
HETATM    1  N   UNL     1     -10.320  13.318  63.865  1.00  0.00    -0.689 NA 
HETATM    2  C   UNL     1     -10.139  13.209  65.244  1.00  0.00    -0.235 A  
HETATM    3  H1  UNL     1     -10.173  12.505  63.266  1.00  0.00     0.000 HD 
HETATM    4  H2  UNL     1      -9.735  14.081  63.522  1.00  0.00     0.000 HD 
HETATM    5  C   UNL     1     -10.341  14.329  66.069  1.00  0.00    -0.318 A  
HETATM    6  C   UNL     1     -10.305  14.235  67.475  1.00  0.00    -0.248 A  
HETATM    7  C   UNL     1     -10.114  13.005  68.094  1.00  0.00    -0.237 A  
HETATM    8  C   UNL     1      -9.975  11.904  67.270  1.00  0.00    -0.200 A  
HETATM    9  C   UNL     1      -9.996  11.984  65.873  1.00  0.00    -0.260 A  
HETATM   10  C   UNL     1      -9.857  10.613  65.295  1.00  0.00    -0.275 C  
HETATM   11  N   UNL     1      -9.679   9.778  66.476  1.00  0.00    -0.195 N  
HETATM   12  O   UNL     1      -9.779  10.081  68.792  1.00  0.00    -0.159 OA 
HETATM   13  C   UNL     1      -9.808  10.499  67.651  1.00  0.00    -0.166 C  
ENDROOT
BRANCH  11  14
HETATM   14  C   UNL     1      -9.630   8.322  66.452  1.00  0.00    -0.230 C  
HETATM   15  C   UNL     1     -10.717   7.679  67.306  1.00  0.00    -0.344 C  
HETATM   16  C   UNL     1     -10.726   6.179  67.039  1.00  0.00    -0.423 C  
HETATM   17  C   UNL     1      -9.364   5.565  67.273  1.00  0.00    -0.114 C  
HETATM   18  O   UNL     1      -9.227   4.406  67.653  1.00  0.00    -0.126 OA 
HETATM   19  N   UNL     1      -8.272   6.359  67.021  1.00  0.00    -0.112 N  
HETATM   20  C   UNL     1      -8.277   7.731  66.879  1.00  0.00    -0.116 C  
HETATM   21  H   UNL     1      -7.372   5.890  66.931  1.00  0.00     0.000 HD 
HETATM   22  O   UNL     1      -7.266   8.387  67.107  1.00  0.00    -0.081 OA 
ENDBRANCH  11  14
TORSDOF 1
ENDMDL
MODEL      132
REMARK 921   NORMALIZED FREE ENERGY PREDICTED BY IDOCK:   -3.95 KCAL/MOL
REMARK 922        TOTAL FREE ENERGY PREDICTED BY IDOCK:   -4.52 KCAL/MOL
REMARK 923 INTER-LIGAND FREE ENERGY PREDICTED BY IDOCK:   -4.23 KCAL/MOL
REMARK 924 INTRA-LIGAND FREE ENERGY PREDICTED BY IDOCK:   -0.30 KCAL/MOL
REMARK 927      BINDING AFFINITY PREDICTED BY RF-SCORE:    0.00 PKD
ROOT
HETATM    1  N   UNL     1      -6.062   5.818  70.959  1.00  0.00    -0.032 NA 
HETATM    2  C   UNL     1      -6.427   6.395  69.743  1.00  0.00    -0.047 A  
HETATM    3  H1  UNL     1      -6.618   5.999  71.796  1.00  0.00     0.000 HD 
HETATM    4  H2  UNL     1      -5.093   6.064  71.156  1.00  0.00     0.000 HD 
HETATM    5  C   UNL     1      -5.662   6.146  68.590  1.00  0.00    -0.012 A  
HETATM    6  C   UNL     1      -6.066   6.594  67.317  1.00  0.00    -0.028 A  
HETATM    7  C   UNL     1      -7.275   7.263  67.157  1.00  0.00    -0.092 A  
HETATM    8  C   UNL     1      -8.042   7.450  68.290  1.00  0.00    -0.125 A  
HETATM    9  C   UNL     1      -7.648   7.022  69.563  1.00  0.00    -0.098 A  
HETATM   10  C   UNL     1      -8.721   7.348  70.551  1.00  0.00    -0.147 C  
HETATM   11  N   UNL     1      -9.704   8.058  69.742  1.00  0.00    -0.175 N  
HETATM   12  O   UNL     1     -10.003   8.529  67.471  1.00  0.00    -0.171 OA 
HETATM   13  C   UNL     1      -9.362   8.077  68.401  1.00  0.00    -0.138 C  
ENDROOT
BRANCH  11  14
HETATM   14  C   UNL     1     -11.014   8.477  70.223  1.00  0.00    -0.235 C  
HETATM   15  C   UNL     1     -10.935   9.347  71.472  1.00  0.00    -0.429 C  
HETATM   16  C   UNL     1     -12.318   9.915  71.760  1.00  0.00    -0.456 C  
HETATM   17  C   UNL     1     -13.355   8.821  71.880  1.00  0.00    -0.389 C  
HETATM   18  O   UNL     1     -14.341   8.931  72.603  1.00  0.00    -0.613 OA 
HETATM   19  N   UNL     1     -13.158   7.693  71.123  1.00  0.00    -0.559 N  
HETATM   20  C   UNL     1     -11.980   7.317  70.510  1.00  0.00    -0.160 C  
HETATM   21  H   UNL     1     -13.958   7.073  71.001  1.00  0.00     0.000 HD 
HETATM   22  O   UNL     1     -11.756   6.138  70.255  1.00  0.00    -0.319 OA 
ENDBRANCH  11  14
TORSDOF 1
ENDMDL
MODEL      133
REMARK 921   NORMALIZED FREE ENERGY PREDICTED BY IDOCK:   -3.95 KCAL/MOL
REMARK 922        TOTAL FREE ENERGY PREDICTED BY IDOCK:   -4.52 KCAL/MOL
REMARK 923 INTER-LIGAND FREE ENERGY PREDICTED BY IDOCK:   -4.56 KCAL/MOL
REMARK 924 INTRA-LIGAND FREE ENERGY PREDICTED BY IDOCK:    0.04 KCAL/MOL
REMARK 927      BINDING AFFINITY PREDICTED BY RF-SCORE:    0.00 PKD
ROOT
HETATM    1  N   UNL     1     -11.611  11.621  63.135  1.00  0.00    -0.861 NA 
HETATM    2  C   UNL     1     -11.402  12.673  64.027  1.00  0.00    -0.407 A  
HETATM    3  H1  UNL     1     -11.011  10.797  63.169  1.00  0.00     0.000 HD 
HETATM    4  H2  UNL     1     -11.594  11.994  62.186  1.00  0.00     0.000 HD 
HETATM    5  C   UNL     1     -12.229  13.808  63.980  1.00  0.00    -0.429 A  
HETATM    6  C   UNL     1     -12.144  14.832  64.945  1.00  0.00    -0.335 A  
HETATM    7  C   UNL     1     -11.259  14.721  66.013  1.00  0.00    -0.341 A  
HETATM    8  C   UNL     1     -10.495  13.573  66.076  1.00  0.00    -0.299 A  
HETATM    9  C   UNL     1     -10.558  12.555  65.119  1.00  0.00    -0.322 A  
HETATM   10  C   UNL     1      -9.633  11.448  65.508  1.00  0.00    -0.228 C  
HETATM   11  N   UNL     1      -8.994  11.966  66.712  1.00  0.00    -0.192 N  
HETATM   12  O   UNL     1      -9.255  13.832  68.095  1.00  0.00    -0.188 OA 
HETATM   13  C   UNL     1      -9.526  13.182  67.104  1.00  0.00    -0.239 C  
ENDROOT
BRANCH  11  14
HETATM   14  C   UNL     1      -8.090  11.197  67.557  1.00  0.00    -0.119 C  
HETATM   15  C   UNL     1      -6.668  11.146  67.009  1.00  0.00    -0.115 C  
HETATM   16  C   UNL     1      -5.760  10.524  68.061  1.00  0.00    -0.040 C  
HETATM   17  C   UNL     1      -6.263   9.165  68.496  1.00  0.00    -0.049 C  
HETATM   18  O   UNL     1      -5.503   8.276  68.869  1.00  0.00    -0.033 OA 
HETATM   19  N   UNL     1      -7.622   8.971  68.477  1.00  0.00    -0.092 N  
HETATM   20  C   UNL     1      -8.549   9.755  67.822  1.00  0.00    -0.125 C  
HETATM   21  H   UNL     1      -7.981   8.171  68.997  1.00  0.00     0.000 HD 
HETATM   22  O   UNL     1      -9.631   9.288  67.479  1.00  0.00    -0.142 OA 
ENDBRANCH  11  14
TORSDOF 1
ENDMDL
MODEL      134
REMARK 921   NORMALIZED FREE ENERGY PREDICTED BY IDOCK:   -3.94 KCAL/MOL
REMARK 922        TOTAL FREE ENERGY PREDICTED BY IDOCK:   -4.52 KCAL/MOL
REMARK 923 INTER-LIGAND FREE ENERGY PREDICTED BY IDOCK:   -4.17 KCAL/MOL
REMARK 924 INTRA-LIGAND FREE ENERGY PREDICTED BY IDOCK:   -0.35 KCAL/MOL
REMARK 927      BINDING AFFINITY PREDICTED BY RF-SCORE:    0.00 PKD
ROOT
HETATM    1  N   UNL     1     -11.236   5.450  72.389  1.00  0.00    -0.238 NA 
HETATM    2  C   UNL     1     -11.340   6.690  71.759  1.00  0.00    -0.279 A  
HETATM    3  H1  UNL     1     -11.081   4.607  71.834  1.00  0.00     0.000 HD 
HETATM    4  H2  UNL     1     -12.066   5.308  72.965  1.00  0.00     0.000 HD 
HETATM    5  C   UNL     1     -11.553   7.850  72.524  1.00  0.00    -0.443 A  
HETATM    6  C   UNL     1     -11.530   9.136  71.949  1.00  0.00    -0.423 A  
HETATM    7  C   UNL     1     -11.242   9.298  70.598  1.00  0.00    -0.333 A  
HETATM    8  C   UNL     1     -10.978   8.153  69.872  1.00  0.00    -0.168 A  
HETATM    9  C   UNL     1     -11.011   6.869  70.426  1.00  0.00    -0.315 A  
HETATM   10  C   UNL     1     -10.642   5.866  69.381  1.00  0.00    -0.309 C  
HETATM   11  N   UNL     1     -10.480   6.686  68.187  1.00  0.00    -0.193 N  
HETATM   12  O   UNL     1     -10.461   8.972  67.695  1.00  0.00    -0.245 OA 
HETATM   13  C   UNL     1     -10.608   8.037  68.459  1.00  0.00    -0.103 C  
ENDROOT
BRANCH  11  14
HETATM   14  C   UNL     1      -9.988   6.188  66.909  1.00  0.00    -0.168 C  
HETATM   15  C   UNL     1     -10.477   4.778  66.597  1.00  0.00    -0.216 C  
HETATM   16  C   UNL     1     -10.104   4.437  65.160  1.00  0.00    -0.193 C  
HETATM   17  C   UNL     1      -8.621   4.605  64.917  1.00  0.00    -0.140 C  
HETATM   18  O   UNL     1      -8.012   3.921  64.098  1.00  0.00    -0.084 OA 
HETATM   19  N   UNL     1      -7.978   5.577  65.641  1.00  0.00    -0.105 N  
HETATM   20  C   UNL     1      -8.458   6.201  66.774  1.00  0.00    -0.111 C  
HETATM   21  H   UNL     1      -7.058   5.867  65.311  1.00  0.00     0.000 HD 
HETATM   22  O   UNL     1      -7.686   6.694  67.591  1.00  0.00    -0.103 OA 
ENDBRANCH  11  14
TORSDOF 1
ENDMDL
MODEL      135
REMARK 921   NORMALIZED FREE ENERGY PREDICTED BY IDOCK:   -3.91 KCAL/MOL
REMARK 922        TOTAL FREE ENERGY PREDICTED BY IDOCK:   -4.48 KCAL/MOL
REMARK 923 INTER-LIGAND FREE ENERGY PREDICTED BY IDOCK:   -4.14 KCAL/MOL
REMARK 924 INTRA-LIGAND FREE ENERGY PREDICTED BY IDOCK:   -0.34 KCAL/MOL
REMARK 927      BINDING AFFINITY PREDICTED BY RF-SCORE:    0.00 PKD
ROOT
HETATM    1  N   UNL     1      -9.806   3.464  67.359  1.00  0.00    -0.257 NA 
HETATM    2  C   UNL     1      -9.169   3.483  68.599  1.00  0.00    -0.165 A  
HETATM    3  H1  UNL     1     -10.608   4.071  67.188  1.00  0.00     0.000 HD 
HETATM    4  H2  UNL     1     -10.079   2.504  67.150  1.00  0.00     0.000 HD 
HETATM    5  C   UNL     1      -8.064   2.647  68.834  1.00  0.00    -0.066 A  
HETATM    6  C   UNL     1      -7.307   2.728  70.020  1.00  0.00    -0.043 A  
HETATM    7  C   UNL     1      -7.607   3.686  70.982  1.00  0.00    -0.047 A  
HETATM    8  C   UNL     1      -8.660   4.539  70.711  1.00  0.00    -0.115 A  
HETATM    9  C   UNL     1      -9.429   4.461  69.545  1.00  0.00    -0.251 A  
HETATM   10  C   UNL     1     -10.454   5.548  69.553  1.00  0.00    -0.297 C  
HETATM   11  N   UNL     1     -10.245   6.184  70.847  1.00  0.00    -0.195 N  
HETATM   12  O   UNL     1      -8.689   6.012  72.584  1.00  0.00    -0.122 OA 
HETATM   13  C   UNL     1      -9.158   5.654  71.521  1.00  0.00    -0.140 C  
ENDROOT
BRANCH  11  14
HETATM   14  C   UNL     1     -10.922   7.398  71.284  1.00  0.00    -0.242 C  
HETATM   15  C   UNL     1     -12.432   7.338  71.084  1.00  0.00    -0.373 C  
HETATM   16  C   UNL     1     -13.065   8.541  71.771  1.00  0.00    -0.383 C  
HETATM   17  C   UNL     1     -12.465   9.840  71.281  1.00  0.00    -0.367 C  
HETATM   18  O   UNL     1     -13.111  10.883  71.240  1.00  0.00    -0.374 OA 
HETATM   19  N   UNL     1     -11.147   9.810  70.898  1.00  0.00    -0.334 N  
HETATM   20  C   UNL     1     -10.404   8.682  70.619  1.00  0.00    -0.202 C  
HETATM   21  H   UNL     1     -10.672  10.708  70.812  1.00  0.00     0.000 HD 
HETATM   22  O   UNL     1      -9.429   8.744  69.876  1.00  0.00    -0.163 OA 
ENDBRANCH  11  14
TORSDOF 1
ENDMDL
MODEL      136
REMARK 921   NORMALIZED FREE ENERGY PREDICTED BY IDOCK:   -3.90 KCAL/MOL
REMARK 922        TOTAL FREE ENERGY PREDICTED BY IDOCK:   -4.48 KCAL/MOL
REMARK 923 INTER-LIGAND FREE ENERGY PREDICTED BY IDOCK:   -4.84 KCAL/MOL
REMARK 924 INTRA-LIGAND FREE ENERGY PREDICTED BY IDOCK:    0.37 KCAL/MOL
REMARK 927      BINDING AFFINITY PREDICTED BY RF-SCORE:    0.00 PKD
ROOT
HETATM    1  N   UNL     1      -6.733  18.933  68.492  1.00  0.00    -0.247 NA 
HETATM    2  C   UNL     1      -7.960  18.891  67.830  1.00  0.00    -0.251 A  
HETATM    3  H1  UNL     1      -6.324  18.075  68.862  1.00  0.00     0.000 HD 
HETATM    4  H2  UNL     1      -6.799  19.612  69.251  1.00  0.00     0.000 HD 
HETATM    5  C   UNL     1      -8.523  20.074  67.321  1.00  0.00    -0.390 A  
HETATM    6  C   UNL     1      -9.689  20.063  66.528  1.00  0.00    -0.564 A  
HETATM    7  C   UNL     1     -10.294  18.860  66.183  1.00  0.00    -0.517 A  
HETATM    8  C   UNL     1      -9.695  17.703  66.643  1.00  0.00    -0.304 A  
HETATM    9  C   UNL     1      -8.546  17.699  67.441  1.00  0.00    -0.229 A  
HETATM   10  C   UNL     1      -8.145  16.288  67.728  1.00  0.00    -0.149 C  
HETATM   11  N   UNL     1      -9.204  15.513  67.093  1.00  0.00    -0.207 N  
HETATM   12  O   UNL     1     -11.035  15.966  65.711  1.00  0.00    -0.278 OA 
HETATM   13  C   UNL     1     -10.092  16.314  66.395  1.00  0.00    -0.305 C  
ENDROOT
BRANCH  11  14
HETATM   14  C   UNL     1      -9.203  14.061  66.978  1.00  0.00    -0.254 C  
HETATM   15  C   UNL     1     -10.155  13.389  67.960  1.00  0.00    -0.241 C  
HETATM   16  C   UNL     1     -10.252  11.909  67.613  1.00  0.00    -0.215 C  
HETATM   17  C   UNL     1      -8.889  11.254  67.586  1.00  0.00    -0.138 C  
HETATM   18  O   UNL     1      -8.727  10.071  67.871  1.00  0.00    -0.124 OA 
HETATM   19  N   UNL     1      -7.830  12.039  67.204  1.00  0.00    -0.168 N  
HETATM   20  C   UNL     1      -7.817  13.417  67.143  1.00  0.00    -0.019 C  
HETATM   21  H   UNL     1      -6.971  11.559  66.941  1.00  0.00     0.000 HD 
HETATM   22  O   UNL     1      -6.763  14.037  67.239  1.00  0.00    -0.244 OA 
ENDBRANCH  11  14
TORSDOF 1
ENDMDL
MODEL      137
REMARK 921   NORMALIZED FREE ENERGY PREDICTED BY IDOCK:   -3.89 KCAL/MOL
REMARK 922        TOTAL FREE ENERGY PREDICTED BY IDOCK:   -4.46 KCAL/MOL
REMARK 923 INTER-LIGAND FREE ENERGY PREDICTED BY IDOCK:   -4.23 KCAL/MOL
REMARK 924 INTRA-LIGAND FREE ENERGY PREDICTED BY IDOCK:   -0.24 KCAL/MOL
REMARK 927      BINDING AFFINITY PREDICTED BY RF-SCORE:    0.00 PKD
ROOT
HETATM    1  N   UNL     1      -6.106  16.620  69.790  1.00  0.00    -0.221 NA 
HETATM    2  C   UNL     1      -6.036  15.230  69.699  1.00  0.00    -0.123 A  
HETATM    3  H1  UNL     1      -6.743  17.140  69.186  1.00  0.00     0.000 HD 
HETATM    4  H2  UNL     1      -5.167  17.000  69.672  1.00  0.00     0.000 HD 
HETATM    5  C   UNL     1      -5.159  14.515  70.532  1.00  0.00    -0.108 A  
HETATM    6  C   UNL     1      -5.151  13.106  70.572  1.00  0.00    -0.109 A  
HETATM    7  C   UNL     1      -6.058  12.376  69.812  1.00  0.00    -0.137 A  
HETATM    8  C   UNL     1      -6.952  13.094  69.042  1.00  0.00    -0.063 A  
HETATM    9  C   UNL     1      -6.963  14.492  68.982  1.00  0.00    -0.121 A  
HETATM   10  C   UNL     1      -8.074  14.943  68.090  1.00  0.00    -0.137 C  
HETATM   11  N   UNL     1      -8.627  13.687  67.599  1.00  0.00    -0.172 N  
HETATM   12  O   UNL     1      -8.313  11.413  68.042  1.00  0.00    -0.130 OA 
HETATM   13  C   UNL     1      -8.031  12.586  68.190  1.00  0.00    -0.157 C  
ENDROOT
BRANCH  11  14
HETATM   14  C   UNL     1      -9.830  13.583  66.784  1.00  0.00    -0.267 C  
HETATM   15  C   UNL     1     -10.079  14.824  65.935  1.00  0.00    -0.343 C  
HETATM   16  C   UNL     1     -11.215  14.533  64.963  1.00  0.00    -0.384 C  
HETATM   17  C   UNL     1     -12.458  14.065  65.685  1.00  0.00    -0.504 C  
HETATM   18  O   UNL     1     -13.586  14.287  65.254  1.00  0.00    -0.394 OA 
HETATM   19  N   UNL     1     -12.273  13.357  66.846  1.00  0.00    -0.336 N  
HETATM   20  C   UNL     1     -11.109  13.290  67.584  1.00  0.00    -0.269 C  
HETATM   21  H   UNL     1     -13.072  12.829  67.197  1.00  0.00     0.000 HD 
HETATM   22  O   UNL     1     -11.143  13.035  68.784  1.00  0.00    -0.249 OA 
ENDBRANCH  11  14
TORSDOF 1
ENDMDL
MODEL      138
REMARK 921   NORMALIZED FREE ENERGY PREDICTED BY IDOCK:   -3.85 KCAL/MOL
REMARK 922        TOTAL FREE ENERGY PREDICTED BY IDOCK:   -4.42 KCAL/MOL
REMARK 923 INTER-LIGAND FREE ENERGY PREDICTED BY IDOCK:   -4.06 KCAL/MOL
REMARK 924 INTRA-LIGAND FREE ENERGY PREDICTED BY IDOCK:   -0.36 KCAL/MOL
REMARK 927      BINDING AFFINITY PREDICTED BY RF-SCORE:    0.00 PKD
ROOT
HETATM    1  N   UNL     1      -9.218  15.218  65.925  1.00  0.00    -0.441 NA 
HETATM    2  C   UNL     1      -8.355  14.795  66.936  1.00  0.00    -0.151 A  
HETATM    3  H1  UNL     1      -9.711  14.531  65.355  1.00  0.00     0.000 HD 
HETATM    4  H2  UNL     1      -8.705  15.844  65.304  1.00  0.00     0.000 HD 
HETATM    5  C   UNL     1      -7.676  15.742  67.722  1.00  0.00    -0.159 A  
HETATM    6  C   UNL     1      -6.903  15.367  68.839  1.00  0.00    -0.124 A  
HETATM    7  C   UNL     1      -6.831  14.034  69.229  1.00  0.00    -0.105 A  
HETATM    8  C   UNL     1      -7.551  13.122  68.482  1.00  0.00    -0.122 A  
HETATM    9  C   UNL     1      -8.311  13.478  67.363  1.00  0.00    -0.199 A  
HETATM   10  C   UNL     1      -8.988  12.263  66.814  1.00  0.00    -0.209 C  
HETATM   11  N   UNL     1      -8.481  11.196  67.668  1.00  0.00    -0.121 N  
HETATM   12  O   UNL     1      -7.176  11.053  69.602  1.00  0.00    -0.129 OA 
HETATM   13  C   UNL     1      -7.687  11.678  68.694  1.00  0.00    -0.134 C  
ENDROOT
BRANCH  11  14
HETATM   14  C   UNL     1      -8.947   9.816  67.621  1.00  0.00    -0.128 C  
HETATM   15  C   UNL     1      -9.062   9.279  66.199  1.00  0.00    -0.224 C  
HETATM   16  C   UNL     1      -9.332   7.781  66.262  1.00  0.00    -0.210 C  
HETATM   17  C   UNL     1     -10.553   7.472  67.099  1.00  0.00    -0.345 C  
HETATM   18  O   UNL     1     -11.268   6.499  66.877  1.00  0.00    -0.387 OA 
HETATM   19  N   UNL     1     -10.820   8.320  68.145  1.00  0.00    -0.453 N  
HETATM   20  C   UNL     1     -10.290   9.581  68.328  1.00  0.00    -0.207 C  
HETATM   21  H   UNL     1     -11.473   7.988  68.854  1.00  0.00     0.000 HD 
HETATM   22  O   UNL     1     -10.890  10.420  68.992  1.00  0.00    -0.207 OA 
ENDBRANCH  11  14
TORSDOF 1
ENDMDL
MODEL      139
REMARK 921   NORMALIZED FREE ENERGY PREDICTED BY IDOCK:   -3.83 KCAL/MOL
REMARK 922        TOTAL FREE ENERGY PREDICTED BY IDOCK:   -4.40 KCAL/MOL
REMARK 923 INTER-LIGAND FREE ENERGY PREDICTED BY IDOCK:   -4.42 KCAL/MOL
REMARK 924 INTRA-LIGAND FREE ENERGY PREDICTED BY IDOCK:    0.03 KCAL/MOL
REMARK 927      BINDING AFFINITY PREDICTED BY RF-SCORE:    0.00 PKD
ROOT
HETATM    1  N   UNL     1     -11.543   5.273  73.278  1.00  0.00    -0.521 NA 
HETATM    2  C   UNL     1     -10.800   6.297  72.692  1.00  0.00    -0.242 A  
HETATM    3  H1  UNL     1     -11.912   4.517  72.701  1.00  0.00     0.000 HD 
HETATM    4  H2  UNL     1     -12.315   5.690  73.797  1.00  0.00     0.000 HD 
HETATM    5  C   UNL     1     -10.290   7.338  73.488  1.00  0.00    -0.412 A  
HETATM    6  C   UNL     1      -9.423   8.319  72.965  1.00  0.00    -0.298 A  
HETATM    7  C   UNL     1      -9.002   8.253  71.641  1.00  0.00    -0.235 A  
HETATM    8  C   UNL     1      -9.465   7.192  70.889  1.00  0.00    -0.160 A  
HETATM    9  C   UNL     1     -10.337   6.219  71.389  1.00  0.00    -0.251 A  
HETATM   10  C   UNL     1     -10.607   5.201  70.329  1.00  0.00    -0.160 C  
HETATM   11  N   UNL     1      -9.881   5.727  69.180  1.00  0.00    -0.152 N  
HETATM   12  O   UNL     1      -8.396   7.487  68.780  1.00  0.00    -0.127 OA 
HETATM   13  C   UNL     1      -9.151   6.859  69.496  1.00  0.00    -0.142 C  
ENDROOT
BRANCH  11  14
HETATM   14  C   UNL     1      -9.723   5.021  67.916  1.00  0.00    -0.153 C  
HETATM   15  C   UNL     1      -8.264   4.869  67.501  1.00  0.00    -0.105 C  
HETATM   16  C   UNL     1      -8.191   3.933  66.302  1.00  0.00    -0.104 C  
HETATM   17  C   UNL     1      -9.070   4.411  65.168  1.00  0.00    -0.148 C  
HETATM   18  O   UNL     1      -8.796   4.192  63.992  1.00  0.00    -0.115 OA 
HETATM   19  N   UNL     1     -10.212   5.091  65.512  1.00  0.00    -0.422 N  
HETATM   20  C   UNL     1     -10.489   5.650  66.742  1.00  0.00    -0.291 C  
HETATM   21  H   UNL     1     -10.924   5.191  64.790  1.00  0.00     0.000 HD 
HETATM   22  O   UNL     1     -11.274   6.589  66.840  1.00  0.00    -0.387 OA 
ENDBRANCH  11  14
TORSDOF 1
ENDMDL
MODEL      140
REMARK 921   NORMALIZED FREE ENERGY PREDICTED BY IDOCK:   -3.82 KCAL/MOL
REMARK 922        TOTAL FREE ENERGY PREDICTED BY IDOCK:   -4.39 KCAL/MOL
REMARK 923 INTER-LIGAND FREE ENERGY PREDICTED BY IDOCK:   -4.53 KCAL/MOL
REMARK 924 INTRA-LIGAND FREE ENERGY PREDICTED BY IDOCK:    0.14 KCAL/MOL
REMARK 927      BINDING AFFINITY PREDICTED BY RF-SCORE:    0.00 PKD
ROOT
HETATM    1  N   UNL     1     -12.069  14.399  69.061  1.00  0.00    -0.488 NA 
HETATM    2  C   UNL     1     -12.023  13.471  68.021  1.00  0.00    -0.337 A  
HETATM    3  H1  UNL     1     -11.790  14.124  70.003  1.00  0.00     0.000 HD 
HETATM    4  H2  UNL     1     -13.010  14.790  69.105  1.00  0.00     0.000 HD 
HETATM    5  C   UNL     1     -12.407  13.852  66.724  1.00  0.00    -0.370 A  
HETATM    6  C   UNL     1     -12.249  12.992  65.618  1.00  0.00    -0.521 A  
HETATM    7  C   UNL     1     -11.655  11.744  65.776  1.00  0.00    -0.194 A  
HETATM    8  C   UNL     1     -11.231  11.408  67.047  1.00  0.00    -0.350 A  
HETATM    9  C   UNL     1     -11.393  12.245  68.156  1.00  0.00    -0.349 A  
HETATM   10  C   UNL     1     -10.793  11.596  69.361  1.00  0.00    -0.096 C  
HETATM   11  N   UNL     1     -10.356  10.303  68.850  1.00  0.00    -0.192 N  
HETATM   12  O   UNL     1     -10.222   9.269  66.757  1.00  0.00    -0.242 OA 
HETATM   13  C   UNL     1     -10.543  10.190  67.483  1.00  0.00    -0.273 C  
ENDROOT
BRANCH  11  14
HETATM   14  C   UNL     1      -9.582   9.336  69.617  1.00  0.00    -0.183 C  
HETATM   15  C   UNL     1      -8.424   8.743  68.824  1.00  0.00    -0.129 C  
HETATM   16  C   UNL     1      -7.550   7.928  69.769  1.00  0.00    -0.090 C  
HETATM   17  C   UNL     1      -8.353   6.875  70.499  1.00  0.00    -0.129 C  
HETATM   18  O   UNL     1      -7.860   5.808  70.856  1.00  0.00    -0.100 OA 
HETATM   19  N   UNL     1      -9.666   7.172  70.770  1.00  0.00    -0.172 N  
HETATM   20  C   UNL     1     -10.412   8.176  70.189  1.00  0.00    -0.225 C  
HETATM   21  H   UNL     1     -10.135   6.595  71.468  1.00  0.00     0.000 HD 
HETATM   22  O   UNL     1     -11.635   8.095  70.135  1.00  0.00    -0.090 OA 
ENDBRANCH  11  14
TORSDOF 1
ENDMDL
MODEL      141
REMARK 921   NORMALIZED FREE ENERGY PREDICTED BY IDOCK:   -3.78 KCAL/MOL
REMARK 922        TOTAL FREE ENERGY PREDICTED BY IDOCK:   -4.35 KCAL/MOL
REMARK 923 INTER-LIGAND FREE ENERGY PREDICTED BY IDOCK:   -4.95 KCAL/MOL
REMARK 924 INTRA-LIGAND FREE ENERGY PREDICTED BY IDOCK:    0.61 KCAL/MOL
REMARK 927      BINDING AFFINITY PREDICTED BY RF-SCORE:    0.00 PKD
ROOT
HETATM    1  N   UNL     1     -11.561  13.194  69.027  1.00  0.00    -0.292 NA 
HETATM    2  C   UNL     1     -11.711  13.072  67.646  1.00  0.00    -0.366 A  
HETATM    3  H1  UNL     1     -11.122  12.444  69.561  1.00  0.00     0.000 HD 
HETATM    4  H2  UNL     1     -12.475  13.389  69.435  1.00  0.00     0.000 HD 
HETATM    5  C   UNL     1     -12.315  14.106  66.910  1.00  0.00    -0.293 A  
HETATM    6  C   UNL     1     -12.365  14.088  65.502  1.00  0.00    -0.503 A  
HETATM    7  C   UNL     1     -11.766  13.055  64.789  1.00  0.00    -0.389 A  
HETATM    8  C   UNL     1     -11.126  12.075  65.525  1.00  0.00    -0.361 A  
HETATM    9  C   UNL     1     -11.080  12.073  66.923  1.00  0.00    -0.352 A  
HETATM   10  C   UNL     1     -10.282  10.899  67.392  1.00  0.00    -0.201 C  
HETATM   11  N   UNL     1      -9.957  10.210  66.150  1.00  0.00    -0.233 N  
HETATM   12  O   UNL     1     -10.208  10.634  63.864  1.00  0.00    -0.337 OA 
HETATM   13  C   UNL     1     -10.385  10.910  65.035  1.00  0.00    -0.288 C  
ENDROOT
BRANCH  11  14
HETATM   14  C   UNL     1      -9.070   9.058  66.058  1.00  0.00    -0.208 C  
HETATM   15  C   UNL     1      -8.571   8.806  64.640  1.00  0.00    -0.140 C  
HETATM   16  C   UNL     1      -7.486   7.738  64.685  1.00  0.00    -0.095 C  
HETATM   17  C   UNL     1      -7.975   6.477  65.360  1.00  0.00    -0.120 C  
HETATM   18  O   UNL     1      -7.548   5.366  65.058  1.00  0.00    -0.075 OA 
HETATM   19  N   UNL     1      -8.913   6.627  66.352  1.00  0.00    -0.146 N  
HETATM   20  C   UNL     1      -9.678   7.750  66.588  1.00  0.00    -0.222 C  
HETATM   21  H   UNL     1      -9.057   5.832  66.974  1.00  0.00     0.000 HD 
HETATM   22  O   UNL     1     -10.760   7.660  67.159  1.00  0.00    -0.332 OA 
ENDBRANCH  11  14
TORSDOF 1
ENDMDL
MODEL      142
REMARK 921   NORMALIZED FREE ENERGY PREDICTED BY IDOCK:   -3.77 KCAL/MOL
REMARK 922        TOTAL FREE ENERGY PREDICTED BY IDOCK:   -4.33 KCAL/MOL
REMARK 923 INTER-LIGAND FREE ENERGY PREDICTED BY IDOCK:   -3.97 KCAL/MOL
REMARK 924 INTRA-LIGAND FREE ENERGY PREDICTED BY IDOCK:   -0.36 KCAL/MOL
REMARK 927      BINDING AFFINITY PREDICTED BY RF-SCORE:    0.00 PKD
ROOT
HETATM    1  N   UNL     1     -13.381  15.024  72.084  1.00  0.00    -0.353 NA 
HETATM    2  C   UNL     1     -12.584  14.236  71.254  1.00  0.00    -0.364 A  
HETATM    3  H1  UNL     1     -13.201  16.025  72.164  1.00  0.00     0.000 HD 
HETATM    4  H2  UNL     1     -13.372  14.619  73.020  1.00  0.00     0.000 HD 
HETATM    5  C   UNL     1     -12.833  12.857  71.144  1.00  0.00    -0.326 A  
HETATM    6  C   UNL     1     -12.145  12.047  70.218  1.00  0.00    -0.395 A  
HETATM    7  C   UNL     1     -11.222  12.608  69.341  1.00  0.00    -0.205 A  
HETATM    8  C   UNL     1     -11.032  13.974  69.423  1.00  0.00    -0.194 A  
HETATM    9  C   UNL     1     -11.697  14.788  70.345  1.00  0.00    -0.350 A  
HETATM   10  C   UNL     1     -11.289  16.211  70.138  1.00  0.00    -0.340 C  
HETATM   11  N   UNL     1     -10.288  16.112  69.083  1.00  0.00    -0.241 N  
HETATM   12  O   UNL     1      -9.467  14.429  67.683  1.00  0.00    -0.206 OA 
HETATM   13  C   UNL     1     -10.163  14.821  68.600  1.00  0.00    -0.236 C  
ENDROOT
BRANCH  11  14
HETATM   14  C   UNL     1      -9.672  17.257  68.426  1.00  0.00    -0.293 C  
HETATM   15  C   UNL     1      -9.216  18.329  69.409  1.00  0.00     0.346 C  
HETATM   16  C   UNL     1      -8.392  19.365  68.657  1.00  0.00    -0.397 C  
HETATM   17  C   UNL     1      -9.157  19.940  67.486  1.00  0.00    -0.340 C  
HETATM   18  O   UNL     1      -8.977  21.088  67.088  1.00  0.00    -0.169 OA 
HETATM   19  N   UNL     1     -10.055  19.109  66.863  1.00  0.00    -0.347 N  
HETATM   20  C   UNL     1     -10.560  17.929  67.368  1.00  0.00    -0.360 C  
HETATM   21  H   UNL     1     -10.380  19.392  65.939  1.00  0.00     0.000 HD 
HETATM   22  O   UNL     1     -11.646  17.501  66.988  1.00  0.00     0.801 OA 
ENDBRANCH  11  14
TORSDOF 1
ENDMDL
MODEL      143
REMARK 921   NORMALIZED FREE ENERGY PREDICTED BY IDOCK:   -3.76 KCAL/MOL
REMARK 922        TOTAL FREE ENERGY PREDICTED BY IDOCK:   -4.33 KCAL/MOL
REMARK 923 INTER-LIGAND FREE ENERGY PREDICTED BY IDOCK:   -4.35 KCAL/MOL
REMARK 924 INTRA-LIGAND FREE ENERGY PREDICTED BY IDOCK:    0.03 KCAL/MOL
REMARK 927      BINDING AFFINITY PREDICTED BY RF-SCORE:    0.00 PKD
ROOT
HETATM    1  N   UNL     1      -6.767  16.512  68.075  1.00  0.00    -0.132 NA 
HETATM    2  C   UNL     1      -6.853  15.132  68.258  1.00  0.00    -0.117 A  
HETATM    3  H1  UNL     1      -7.268  16.956  67.305  1.00  0.00     0.000 HD 
HETATM    4  H2  UNL     1      -5.782  16.768  68.010  1.00  0.00     0.000 HD 
HETATM    5  C   UNL     1      -6.163  14.520  69.320  1.00  0.00    -0.112 A  
HETATM    6  C   UNL     1      -6.328  13.155  69.626  1.00  0.00    -0.086 A  
HETATM    7  C   UNL     1      -7.227  12.375  68.907  1.00  0.00    -0.061 A  
HETATM    8  C   UNL     1      -7.940  13.004  67.904  1.00  0.00    -0.157 A  
HETATM    9  C   UNL     1      -7.778  14.355  67.580  1.00  0.00    -0.198 A  
HETATM   10  C   UNL     1      -8.723  14.720  66.481  1.00  0.00    -0.125 C  
HETATM   11  N   UNL     1      -9.364  13.449  66.169  1.00  0.00    -0.129 N  
HETATM   12  O   UNL     1      -9.374  11.292  67.072  1.00  0.00    -0.169 OA 
HETATM   13  C   UNL     1      -8.971  12.439  67.030  1.00  0.00    -0.209 C  
ENDROOT
BRANCH  11  14
HETATM   14  C   UNL     1     -10.475  13.297  65.239  1.00  0.00    -0.313 C  
HETATM   15  C   UNL     1     -11.759  12.838  65.920  1.00  0.00    -0.464 C  
HETATM   16  C   UNL     1     -12.904  12.928  64.920  1.00  0.00    -0.370 C  
HETATM   17  C   UNL     1     -12.603  12.146  63.660  1.00  0.00    -0.504 C  
HETATM   18  O   UNL     1     -13.489  11.621  62.991  1.00  0.00    -0.237 OA 
HETATM   19  N   UNL     1     -11.287  12.063  63.279  1.00  0.00    -0.695 N  
HETATM   20  C   UNL     1     -10.191  12.344  64.068  1.00  0.00    -0.375 C  
HETATM   21  H   UNL     1     -11.102  11.767  62.322  1.00  0.00     0.000 HD 
HETATM   22  O   UNL     1      -9.101  11.832  63.829  1.00  0.00     0.096 OA 
ENDBRANCH  11  14
TORSDOF 1
ENDMDL
MODEL      144
REMARK 921   NORMALIZED FREE ENERGY PREDICTED BY IDOCK:   -3.75 KCAL/MOL
REMARK 922        TOTAL FREE ENERGY PREDICTED BY IDOCK:   -4.32 KCAL/MOL
REMARK 923 INTER-LIGAND FREE ENERGY PREDICTED BY IDOCK:   -3.95 KCAL/MOL
REMARK 924 INTRA-LIGAND FREE ENERGY PREDICTED BY IDOCK:   -0.37 KCAL/MOL
REMARK 927      BINDING AFFINITY PREDICTED BY RF-SCORE:    0.00 PKD
ROOT
HETATM    1  N   UNL     1     -10.833   8.337  72.240  1.00  0.00    -0.314 NA 
HETATM    2  C   UNL     1     -11.351   9.220  71.292  1.00  0.00    -0.353 A  
HETATM    3  H1  UNL     1     -10.230   7.569  71.946  1.00  0.00     0.000 HD 
HETATM    4  H2  UNL     1     -11.608   7.951  72.778  1.00  0.00     0.000 HD 
HETATM    5  C   UNL     1     -12.182  10.278  71.698  1.00  0.00    -0.384 A  
HETATM    6  C   UNL     1     -12.616  11.272  70.797  1.00  0.00    -0.425 A  
HETATM    7  C   UNL     1     -12.187  11.259  69.474  1.00  0.00    -0.325 A  
HETATM    8  C   UNL     1     -11.325  10.245  69.105  1.00  0.00    -0.244 A  
HETATM    9  C   UNL     1     -10.896   9.244  69.984  1.00  0.00    -0.264 A  
HETATM   10  C   UNL     1      -9.945   8.334  69.275  1.00  0.00    -0.192 C  
HETATM   11  N   UNL     1      -9.942   8.861  67.917  1.00  0.00    -0.170 N  
HETATM   12  O   UNL     1     -10.831  10.728  66.824  1.00  0.00    -0.249 OA 
HETATM   13  C   UNL     1     -10.692  10.019  67.802  1.00  0.00    -0.280 C  
ENDROOT
BRANCH  11  14
HETATM   14  C   UNL     1      -9.060   8.392  66.856  1.00  0.00    -0.148 C  
HETATM   15  C   UNL     1      -8.924   6.873  66.829  1.00  0.00    -0.141 C  
HETATM   16  C   UNL     1      -8.176   6.472  65.564  1.00  0.00    -0.138 C  
HETATM   17  C   UNL     1      -6.842   7.176  65.460  1.00  0.00    -0.052 C  
HETATM   18  O   UNL     1      -5.876   6.666  64.899  1.00  0.00    -0.029 OA 
HETATM   19  N   UNL     1      -6.759   8.433  66.005  1.00  0.00    -0.060 N  
HETATM   20  C   UNL     1      -7.648   8.995  66.898  1.00  0.00    -0.094 C  
HETATM   21  H   UNL     1      -5.964   9.006  65.724  1.00  0.00     0.000 HD 
HETATM   22  O   UNL     1      -7.289   9.888  67.659  1.00  0.00    -0.088 OA 
ENDBRANCH  11  14
TORSDOF 1
ENDMDL
MODEL      145
REMARK 921   NORMALIZED FREE ENERGY PREDICTED BY IDOCK:   -3.73 KCAL/MOL
REMARK 922        TOTAL FREE ENERGY PREDICTED BY IDOCK:   -4.29 KCAL/MOL
REMARK 923 INTER-LIGAND FREE ENERGY PREDICTED BY IDOCK:   -5.13 KCAL/MOL
REMARK 924 INTRA-LIGAND FREE ENERGY PREDICTED BY IDOCK:    0.84 KCAL/MOL
REMARK 927      BINDING AFFINITY PREDICTED BY RF-SCORE:    0.00 PKD
ROOT
HETATM    1  N   UNL     1     -10.353  14.253  66.874  1.00  0.00    -0.267 NA 
HETATM    2  C   UNL     1     -10.514  13.011  66.260  1.00  0.00    -0.276 A  
HETATM    3  H1  UNL     1     -10.433  14.336  67.888  1.00  0.00     0.000 HD 
HETATM    4  H2  UNL     1     -11.002  14.912  66.444  1.00  0.00     0.000 HD 
HETATM    5  C   UNL     1     -10.403  12.898  64.864  1.00  0.00    -0.329 A  
HETATM    6  C   UNL     1     -10.422  11.648  64.214  1.00  0.00    -0.383 A  
HETATM    7  C   UNL     1     -10.504  10.472  64.952  1.00  0.00    -0.214 A  
HETATM    8  C   UNL     1     -10.554  10.597  66.326  1.00  0.00    -0.229 A  
HETATM    9  C   UNL     1     -10.549  11.831  66.985  1.00  0.00    -0.267 A  
HETATM   10  C   UNL     1     -10.575  11.607  68.462  1.00  0.00    -0.215 C  
HETATM   11  N   UNL     1     -10.674  10.157  68.569  1.00  0.00    -0.218 N  
HETATM   12  O   UNL     1     -10.585   8.342  67.097  1.00  0.00    -0.311 OA 
HETATM   13  C   UNL     1     -10.599   9.535  67.335  1.00  0.00    -0.271 C  
ENDROOT
BRANCH  11  14
HETATM   14  C   UNL     1     -10.600   9.419  69.824  1.00  0.00    -0.231 C  
HETATM   15  C   UNL     1     -10.781   7.917  69.639  1.00  0.00    -0.218 C  
HETATM   16  C   UNL     1     -10.464   7.220  70.955  1.00  0.00    -0.226 C  
HETATM   17  C   UNL     1     -11.299   7.770  72.090  1.00  0.00    -0.302 C  
HETATM   18  O   UNL     1     -11.635   7.079  73.048  1.00  0.00    -0.126 OA 
HETATM   19  N   UNL     1     -11.652   9.095  72.016  1.00  0.00    -0.349 N  
HETATM   20  C   UNL     1     -11.598   9.891  70.891  1.00  0.00    -0.373 C  
HETATM   21  H   UNL     1     -11.987   9.531  72.874  1.00  0.00     0.000 HD 
HETATM   22  O   UNL     1     -12.324  10.875  70.787  1.00  0.00    -0.326 OA 
ENDBRANCH  11  14
TORSDOF 1
ENDMDL
MODEL      146
REMARK 921   NORMALIZED FREE ENERGY PREDICTED BY IDOCK:   -3.72 KCAL/MOL
REMARK 922        TOTAL FREE ENERGY PREDICTED BY IDOCK:   -4.29 KCAL/MOL
REMARK 923 INTER-LIGAND FREE ENERGY PREDICTED BY IDOCK:   -4.21 KCAL/MOL
REMARK 924 INTRA-LIGAND FREE ENERGY PREDICTED BY IDOCK:   -0.08 KCAL/MOL
REMARK 927      BINDING AFFINITY PREDICTED BY RF-SCORE:    0.00 PKD
ROOT
HETATM    1  N   UNL     1     -10.078   5.389  67.491  1.00  0.00    -0.167 NA 
HETATM    2  C   UNL     1      -9.600   5.577  68.788  1.00  0.00    -0.135 A  
HETATM    3  H1  UNL     1     -10.682   6.091  67.063  1.00  0.00     0.000 HD 
HETATM    4  H2  UNL     1     -10.551   4.486  67.449  1.00  0.00     0.000 HD 
HETATM    5  C   UNL     1      -8.768   4.610  69.377  1.00  0.00    -0.111 A  
HETATM    6  C   UNL     1      -8.153   4.818  70.628  1.00  0.00    -0.081 A  
HETATM    7  C   UNL     1      -8.317   6.024  71.301  1.00  0.00    -0.124 A  
HETATM    8  C   UNL     1      -9.091   6.987  70.682  1.00  0.00    -0.158 A  
HETATM    9  C   UNL     1      -9.718   6.789  69.447  1.00  0.00    -0.155 A  
HETATM   10  C   UNL     1     -10.441   8.036  69.052  1.00  0.00    -0.199 C  
HETATM   11  N   UNL     1     -10.231   8.911  70.198  1.00  0.00    -0.188 N  
HETATM   12  O   UNL     1      -8.972   8.847  72.167  1.00  0.00    -0.381 OA 
HETATM   13  C   UNL     1      -9.390   8.346  71.141  1.00  0.00    -0.177 C  
ENDROOT
BRANCH  11  14
HETATM   14  C   UNL     1     -10.635  10.310  70.248  1.00  0.00    -0.204 C  
HETATM   15  C   UNL     1     -12.144  10.485  70.383  1.00  0.00    -0.418 C  
HETATM   16  C   UNL     1     -12.443  11.954  70.653  1.00  0.00    -0.347 C  
HETATM   17  C   UNL     1     -11.849  12.847  69.588  1.00  0.00    -0.320 C  
HETATM   18  O   UNL     1     -12.364  13.915  69.268  1.00  0.00    -0.323 OA 
HETATM   19  N   UNL     1     -10.683  12.422  69.000  1.00  0.00    -0.394 N  
HETATM   20  C   UNL     1     -10.166  11.145  69.046  1.00  0.00    -0.176 C  
HETATM   21  H   UNL     1     -10.149  13.117  68.479  1.00  0.00     0.000 HD 
HETATM   22  O   UNL     1      -9.412  10.743  68.165  1.00  0.00    -0.150 OA 
ENDBRANCH  11  14
TORSDOF 1
ENDMDL
MODEL      147
REMARK 921   NORMALIZED FREE ENERGY PREDICTED BY IDOCK:   -3.71 KCAL/MOL
REMARK 922        TOTAL FREE ENERGY PREDICTED BY IDOCK:   -4.27 KCAL/MOL
REMARK 923 INTER-LIGAND FREE ENERGY PREDICTED BY IDOCK:   -4.24 KCAL/MOL
REMARK 924 INTRA-LIGAND FREE ENERGY PREDICTED BY IDOCK:   -0.03 KCAL/MOL
REMARK 927      BINDING AFFINITY PREDICTED BY RF-SCORE:    0.00 PKD
ROOT
HETATM    1  N   UNL     1     -12.584   9.354  71.988  1.00  0.00    -0.383 NA 
HETATM    2  C   UNL     1     -11.876   8.486  71.156  1.00  0.00    -0.284 A  
HETATM    3  H1  UNL     1     -12.332  10.342  72.026  1.00  0.00     0.000 HD 
HETATM    4  H2  UNL     1     -12.565   8.979  72.936  1.00  0.00     0.000 HD 
HETATM    5  C   UNL     1     -12.223   7.125  71.103  1.00  0.00    -0.405 A  
HETATM    6  C   UNL     1     -11.630   6.240  70.181  1.00  0.00    -0.385 A  
HETATM    7  C   UNL     1     -10.707   6.707  69.251  1.00  0.00    -0.307 A  
HETATM    8  C   UNL     1     -10.419   8.058  69.278  1.00  0.00    -0.221 A  
HETATM    9  C   UNL     1     -10.990   8.946  70.196  1.00  0.00    -0.245 A  
HETATM   10  C   UNL     1     -10.494  10.329  69.924  1.00  0.00    -0.256 C  
HETATM   11  N   UNL     1      -9.545  10.126  68.837  1.00  0.00    -0.175 N  
HETATM   12  O   UNL     1      -8.898   8.346  67.466  1.00  0.00    -0.134 OA 
HETATM   13  C   UNL     1      -9.528   8.815  68.395  1.00  0.00    -0.141 C  
ENDROOT
BRANCH  11  14
HETATM   14  C   UNL     1      -8.878  11.204  68.118  1.00  0.00    -0.148 C  
HETATM   15  C   UNL     1      -7.741  11.832  68.916  1.00  0.00    -0.041 C  
HETATM   16  C   UNL     1      -6.970  12.780  68.006  1.00  0.00    -0.107 C  
HETATM   17  C   UNL     1      -7.880  13.812  67.380  1.00  0.00    -0.153 C  
HETATM   18  O   UNL     1      -7.486  14.938  67.087  1.00  0.00    -0.195 OA 
HETATM   19  N   UNL     1      -9.174  13.430  67.129  1.00  0.00    -0.231 N  
HETATM   20  C   UNL     1      -9.817  12.330  67.659  1.00  0.00    -0.196 C  
HETATM   21  H   UNL     1      -9.713  14.014  66.490  1.00  0.00     0.000 HD 
HETATM   22  O   UNL     1     -11.040  12.308  67.756  1.00  0.00    -0.228 OA 
ENDBRANCH  11  14
TORSDOF 1
ENDMDL
MODEL      148
REMARK 921   NORMALIZED FREE ENERGY PREDICTED BY IDOCK:   -3.71 KCAL/MOL
REMARK 922        TOTAL FREE ENERGY PREDICTED BY IDOCK:   -4.27 KCAL/MOL
REMARK 923 INTER-LIGAND FREE ENERGY PREDICTED BY IDOCK:   -4.99 KCAL/MOL
REMARK 924 INTRA-LIGAND FREE ENERGY PREDICTED BY IDOCK:    0.72 KCAL/MOL
REMARK 927      BINDING AFFINITY PREDICTED BY RF-SCORE:    0.00 PKD
ROOT
HETATM    1  N   UNL     1     -13.545  13.865  71.761  1.00  0.00    -0.379 NA 
HETATM    2  C   UNL     1     -12.609  14.408  70.881  1.00  0.00    -0.352 A  
HETATM    3  H1  UNL     1     -13.854  12.899  71.645  1.00  0.00     0.000 HD 
HETATM    4  H2  UNL     1     -14.367  14.468  71.771  1.00  0.00     0.000 HD 
HETATM    5  C   UNL     1     -12.184  15.738  71.041  1.00  0.00    -0.466 A  
HETATM    6  C   UNL     1     -11.144  16.286  70.264  1.00  0.00    -0.340 A  
HETATM    7  C   UNL     1     -10.467  15.500  69.337  1.00  0.00    -0.253 A  
HETATM    8  C   UNL     1     -10.859  14.179  69.233  1.00  0.00    -0.219 A  
HETATM    9  C   UNL     1     -11.898  13.625  69.987  1.00  0.00    -0.378 A  
HETATM   10  C   UNL     1     -12.034  12.174  69.656  1.00  0.00    -0.284 C  
HETATM   11  N   UNL     1     -11.043  11.987  68.603  1.00  0.00    -0.233 N  
HETATM   12  O   UNL     1      -9.356  13.273  67.620  1.00  0.00    -0.196 OA 
HETATM   13  C   UNL     1     -10.295  13.130  68.379  1.00  0.00    -0.253 C  
ENDROOT
BRANCH  11  14
HETATM   14  C   UNL     1     -10.692  10.696  68.027  1.00  0.00    -0.233 C  
HETATM   15  C   UNL     1      -9.475  10.062  68.692  1.00  0.00    -0.156 C  
HETATM   16  C   UNL     1      -9.327   8.634  68.184  1.00  0.00    -0.145 C  
HETATM   17  C   UNL     1      -9.253   8.587  66.674  1.00  0.00    -0.177 C  
HETATM   18  O   UNL     1      -8.622   7.719  66.077  1.00  0.00    -0.137 OA 
HETATM   19  N   UNL     1      -9.947   9.553  65.987  1.00  0.00    -0.289 N  
HETATM   20  C   UNL     1     -10.442  10.729  66.512  1.00  0.00    -0.240 C  
HETATM   21  H   UNL     1     -10.111   9.385  64.995  1.00  0.00     0.000 HD 
HETATM   22  O   UNL     1     -10.630  11.704  65.791  1.00  0.00    -0.256 OA 
ENDBRANCH  11  14
TORSDOF 1
ENDMDL
MODEL      149
REMARK 921   NORMALIZED FREE ENERGY PREDICTED BY IDOCK:   -3.69 KCAL/MOL
REMARK 922        TOTAL FREE ENERGY PREDICTED BY IDOCK:   -4.25 KCAL/MOL
REMARK 923 INTER-LIGAND FREE ENERGY PREDICTED BY IDOCK:   -3.89 KCAL/MOL
REMARK 924 INTRA-LIGAND FREE ENERGY PREDICTED BY IDOCK:   -0.36 KCAL/MOL
REMARK 927      BINDING AFFINITY PREDICTED BY RF-SCORE:    0.00 PKD
ROOT
HETATM    1  N   UNL     1     -11.326   3.007  64.003  1.00  0.00    -0.463 NA 
HETATM    2  C   UNL     1     -10.027   3.503  64.122  1.00  0.00    -0.188 A  
HETATM    3  H1  UNL     1     -11.996   3.149  64.759  1.00  0.00     0.000 HD 
HETATM    4  H2  UNL     1     -11.273   2.009  63.801  1.00  0.00     0.000 HD 
HETATM    5  C   UNL     1      -9.104   3.308  63.080  1.00  0.00    -0.092 A  
HETATM    6  C   UNL     1      -7.827   3.906  63.095  1.00  0.00    -0.074 A  
HETATM    7  C   UNL     1      -7.460   4.756  64.133  1.00  0.00    -0.063 A  
HETATM    8  C   UNL     1      -8.400   4.983  65.119  1.00  0.00    -0.138 A  
HETATM    9  C   UNL     1      -9.666   4.387  65.125  1.00  0.00    -0.186 A  
HETATM   10  C   UNL     1     -10.440   4.875  66.306  1.00  0.00    -0.304 C  
HETATM   11  N   UNL     1      -9.478   5.725  66.997  1.00  0.00    -0.120 N  
HETATM   12  O   UNL     1      -7.332   6.548  66.565  1.00  0.00    -0.075 OA 
HETATM   13  C   UNL     1      -8.295   5.858  66.290  1.00  0.00    -0.117 C  
ENDROOT
BRANCH  11  14
HETATM   14  C   UNL     1      -9.795   6.549  68.156  1.00  0.00    -0.131 C  
HETATM   15  C   UNL     1     -10.631   5.811  69.195  1.00  0.00    -0.365 C  
HETATM   16  C   UNL     1     -10.715   6.666  70.453  1.00  0.00    -0.297 C  
HETATM   17  C   UNL     1     -11.252   8.047  70.150  1.00  0.00    -0.144 C  
HETATM   18  O   UNL     1     -11.902   8.689  70.971  1.00  0.00    -0.286 OA 
HETATM   19  N   UNL     1     -10.963   8.569  68.914  1.00  0.00    -0.429 N  
HETATM   20  C   UNL     1     -10.511   7.865  67.817  1.00  0.00    -0.212 C  
HETATM   21  H   UNL     1     -11.096   9.573  68.794  1.00  0.00     0.000 HD 
HETATM   22  O   UNL     1     -10.707   8.285  66.681  1.00  0.00    -0.202 OA 
ENDBRANCH  11  14
TORSDOF 1
ENDMDL
MODEL      150
REMARK 921   NORMALIZED FREE ENERGY PREDICTED BY IDOCK:   -3.60 KCAL/MOL
REMARK 922        TOTAL FREE ENERGY PREDICTED BY IDOCK:   -4.15 KCAL/MOL
REMARK 923 INTER-LIGAND FREE ENERGY PREDICTED BY IDOCK:   -4.16 KCAL/MOL
REMARK 924 INTRA-LIGAND FREE ENERGY PREDICTED BY IDOCK:    0.01 KCAL/MOL
REMARK 927      BINDING AFFINITY PREDICTED BY RF-SCORE:    0.00 PKD
ROOT
HETATM    1  N   UNL     1      -8.626   8.184  64.172  1.00  0.00    -0.389 NA 
HETATM    2  C   UNL     1      -7.956   7.708  65.299  1.00  0.00    -0.129 A  
HETATM    3  H1  UNL     1      -9.612   8.440  64.235  1.00  0.00     0.000 HD 
HETATM    4  H2  UNL     1      -8.517   7.505  63.420  1.00  0.00     0.000 HD 
HETATM    5  C   UNL     1      -6.598   7.357  65.212  1.00  0.00    -0.044 A  
HETATM    6  C   UNL     1      -5.846   7.002  66.350  1.00  0.00    -0.034 A  
HETATM    7  C   UNL     1      -6.423   7.037  67.614  1.00  0.00    -0.051 A  
HETATM    8  C   UNL     1      -7.742   7.440  67.690  1.00  0.00    -0.112 A  
HETATM    9  C   UNL     1      -8.505   7.783  66.568  1.00  0.00    -0.132 A  
HETATM   10  C   UNL     1      -9.870   8.205  67.006  1.00  0.00    -0.232 C  
HETATM   11  N   UNL     1      -9.829   7.996  68.447  1.00  0.00    -0.166 N  
HETATM   12  O   UNL     1      -8.204   7.423  70.028  1.00  0.00    -0.126 OA 
HETATM   13  C   UNL     1      -8.574   7.608  68.884  1.00  0.00    -0.129 C  
ENDROOT
BRANCH  11  14
HETATM   14  C   UNL     1     -10.891   8.388  69.364  1.00  0.00    -0.082 C  
HETATM   15  C   UNL     1     -10.434   9.411  70.397  1.00  0.00    -0.311 C  
HETATM   16  C   UNL     1     -11.653   9.922  71.154  1.00  0.00    -0.468 C  
HETATM   17  C   UNL     1     -12.440   8.787  71.770  1.00  0.00    -0.350 C  
HETATM   18  O   UNL     1     -13.080   8.925  72.809  1.00  0.00    -0.377 OA 
HETATM   19  N   UNL     1     -12.428   7.588  71.102  1.00  0.00    -0.460 N  
HETATM   20  C   UNL     1     -11.543   7.215  70.113  1.00  0.00    -0.168 C  
HETATM   21  H   UNL     1     -13.142   6.908  71.361  1.00  0.00     0.000 HD 
HETATM   22  O   UNL     1     -11.308   6.029  69.899  1.00  0.00    -0.400 OA 
ENDBRANCH  11  14
TORSDOF 1
ENDMDL
MODEL      151
REMARK 921   NORMALIZED FREE ENERGY PREDICTED BY IDOCK:   -3.58 KCAL/MOL
REMARK 922        TOTAL FREE ENERGY PREDICTED BY IDOCK:   -4.13 KCAL/MOL
REMARK 923 INTER-LIGAND FREE ENERGY PREDICTED BY IDOCK:   -4.15 KCAL/MOL
REMARK 924 INTRA-LIGAND FREE ENERGY PREDICTED BY IDOCK:    0.02 KCAL/MOL
REMARK 927      BINDING AFFINITY PREDICTED BY RF-SCORE:    0.00 PKD
ROOT
HETATM    1  N   UNL     1     -12.684  12.379  70.334  1.00  0.00     0.018 NA 
HETATM    2  C   UNL     1     -11.582  11.743  69.764  1.00  0.00    -0.299 A  
HETATM    3  H1  UNL     1     -13.278  11.878  70.995  1.00  0.00     0.000 HD 
HETATM    4  H2  UNL     1     -13.272  12.741  69.583  1.00  0.00     0.000 HD 
HETATM    5  C   UNL     1     -10.765  12.434  68.853  1.00  0.00    -0.202 A  
HETATM    6  C   UNL     1      -9.567  11.881  68.358  1.00  0.00    -0.196 A  
HETATM    7  C   UNL     1      -9.130  10.637  68.801  1.00  0.00    -0.170 A  
HETATM    8  C   UNL     1      -9.915   9.995  69.740  1.00  0.00    -0.276 A  
HETATM    9  C   UNL     1     -11.113  10.526  70.230  1.00  0.00    -0.359 A  
HETATM   10  C   UNL     1     -11.686   9.598  71.253  1.00  0.00    -0.382 C  
HETATM   11  N   UNL     1     -10.755   8.477  71.233  1.00  0.00    -0.227 N  
HETATM   12  O   UNL     1      -8.700   8.003  70.223  1.00  0.00    -0.131 OA 
HETATM   13  C   UNL     1      -9.673   8.710  70.402  1.00  0.00    -0.176 C  
ENDROOT
BRANCH  11  14
HETATM   14  C   UNL     1     -10.803   7.353  72.159  1.00  0.00    -0.235 C  
HETATM   15  C   UNL     1      -9.571   7.268  73.051  1.00  0.00    -0.219 C  
HETATM   16  C   UNL     1      -9.815   6.214  74.123  1.00  0.00    -0.246 C  
HETATM   17  C   UNL     1     -10.186   4.880  73.517  1.00  0.00    -0.184 C  
HETATM   18  O   UNL     1      -9.905   3.815  74.060  1.00  0.00    -0.106 OA 
HETATM   19  N   UNL     1     -10.876   4.907  72.330  1.00  0.00    -0.177 N  
HETATM   20  C   UNL     1     -10.997   5.988  71.482  1.00  0.00    -0.277 C  
HETATM   21  H   UNL     1     -11.344   4.046  72.049  1.00  0.00     0.000 HD 
HETATM   22  O   UNL     1     -11.219   5.822  70.287  1.00  0.00    -0.304 OA 
ENDBRANCH  11  14
TORSDOF 1
ENDMDL
MODEL      152
REMARK 921   NORMALIZED FREE ENERGY PREDICTED BY IDOCK:   -3.57 KCAL/MOL
REMARK 922        TOTAL FREE ENERGY PREDICTED BY IDOCK:   -4.12 KCAL/MOL
REMARK 923 INTER-LIGAND FREE ENERGY PREDICTED BY IDOCK:   -4.12 KCAL/MOL
REMARK 924 INTRA-LIGAND FREE ENERGY PREDICTED BY IDOCK:    0.00 KCAL/MOL
REMARK 927      BINDING AFFINITY PREDICTED BY RF-SCORE:    0.00 PKD
ROOT
HETATM    1  N   UNL     1      -7.125   5.460  73.007  1.00  0.00    -0.087 NA 
HETATM    2  C   UNL     1      -8.508   5.276  73.000  1.00  0.00    -0.111 A  
HETATM    3  H1  UNL     1      -6.669   5.930  72.225  1.00  0.00     0.000 HD 
HETATM    4  H2  UNL     1      -6.679   4.553  73.144  1.00  0.00     0.000 HD 
HETATM    5  C   UNL     1      -9.136   4.630  74.078  1.00  0.00    -0.108 A  
HETATM    6  C   UNL     1     -10.539   4.542  74.180  1.00  0.00    -0.335 A  
HETATM    7  C   UNL     1     -11.353   5.145  73.226  1.00  0.00    -0.361 A  
HETATM    8  C   UNL     1     -10.720   5.826  72.204  1.00  0.00    -0.282 A  
HETATM    9  C   UNL     1      -9.330   5.910  72.083  1.00  0.00    -0.155 A  
HETATM   10  C   UNL     1      -8.983   6.746  70.893  1.00  0.00    -0.150 C  
HETATM   11  N   UNL     1     -10.288   7.053  70.321  1.00  0.00    -0.200 N  
HETATM   12  O   UNL     1     -12.522   6.732  70.933  1.00  0.00    -0.364 OA 
HETATM   13  C   UNL     1     -11.327   6.580  71.103  1.00  0.00    -0.314 C  
ENDROOT
BRANCH  11  14
HETATM   14  C   UNL     1     -10.500   7.963  69.203  1.00  0.00    -0.209 C  
HETATM   15  C   UNL     1     -10.173   7.332  67.855  1.00  0.00    -0.237 C  
HETATM   16  C   UNL     1     -10.638   8.271  66.749  1.00  0.00    -0.226 C  
HETATM   17  C   UNL     1     -10.039   9.651  66.904  1.00  0.00    -0.227 C  
HETATM   18  O   UNL     1      -9.804  10.373  65.939  1.00  0.00    -0.208 OA 
HETATM   19  N   UNL     1      -9.784  10.077  68.184  1.00  0.00    -0.139 N  
HETATM   20  C   UNL     1      -9.723   9.284  69.311  1.00  0.00    -0.169 C  
HETATM   21  H   UNL     1      -9.625  11.076  68.314  1.00  0.00     0.000 HD 
HETATM   22  O   UNL     1      -9.070   9.637  70.288  1.00  0.00    -0.235 OA 
ENDBRANCH  11  14
TORSDOF 1
ENDMDL
MODEL      153
REMARK 921   NORMALIZED FREE ENERGY PREDICTED BY IDOCK:   -3.56 KCAL/MOL
REMARK 922        TOTAL FREE ENERGY PREDICTED BY IDOCK:   -4.12 KCAL/MOL
REMARK 923 INTER-LIGAND FREE ENERGY PREDICTED BY IDOCK:   -3.94 KCAL/MOL
REMARK 924 INTRA-LIGAND FREE ENERGY PREDICTED BY IDOCK:   -0.17 KCAL/MOL
REMARK 927      BINDING AFFINITY PREDICTED BY RF-SCORE:    0.00 PKD
ROOT
HETATM    1  N   UNL     1     -11.815   5.910  71.876  1.00  0.00    -0.175 NA 
HETATM    2  C   UNL     1     -10.755   6.708  72.306  1.00  0.00    -0.221 A  
HETATM    3  H1  UNL     1     -12.228   6.064  70.955  1.00  0.00     0.000 HD 
HETATM    4  H2  UNL     1     -12.557   5.956  72.574  1.00  0.00     0.000 HD 
HETATM    5  C   UNL     1     -10.186   6.495  73.574  1.00  0.00    -0.281 A  
HETATM    6  C   UNL     1      -9.030   7.182  73.997  1.00  0.00    -0.246 A  
HETATM    7  C   UNL     1      -8.383   8.065  73.139  1.00  0.00    -0.253 A  
HETATM    8  C   UNL     1      -8.921   8.219  71.876  1.00  0.00    -0.249 A  
HETATM    9  C   UNL     1     -10.075   7.555  71.447  1.00  0.00    -0.201 A  
HETATM   10  C   UNL     1     -10.358   7.917  70.025  1.00  0.00    -0.221 C  
HETATM   11  N   UNL     1      -9.317   8.893  69.725  1.00  0.00    -0.161 N  
HETATM   12  O   UNL     1      -7.416   9.724  70.803  1.00  0.00    -0.295 OA 
HETATM   13  C   UNL     1      -8.422   9.042  70.770  1.00  0.00    -0.200 C  
ENDROOT
BRANCH  11  14
HETATM   14  C   UNL     1      -9.080   9.459  68.404  1.00  0.00    -0.128 C  
HETATM   15  C   UNL     1     -10.229  10.336  67.921  1.00  0.00    -0.217 C  
HETATM   16  C   UNL     1      -9.796  11.055  66.650  1.00  0.00    -0.235 C  
HETATM   17  C   UNL     1      -9.325  10.081  65.593  1.00  0.00    -0.204 C  
HETATM   18  O   UNL     1      -9.448  10.310  64.393  1.00  0.00    -0.255 OA 
HETATM   19  N   UNL     1      -8.729   8.926  66.035  1.00  0.00    -0.150 N  
HETATM   20  C   UNL     1      -8.787   8.416  67.315  1.00  0.00    -0.130 C  
HETATM   21  H   UNL     1      -8.191   8.395  65.351  1.00  0.00     0.000 HD 
HETATM   22  O   UNL     1      -8.634   7.215  67.516  1.00  0.00    -0.121 OA 
ENDBRANCH  11  14
TORSDOF 1
ENDMDL
MODEL      154
REMARK 921   NORMALIZED FREE ENERGY PREDICTED BY IDOCK:   -3.56 KCAL/MOL
REMARK 922        TOTAL FREE ENERGY PREDICTED BY IDOCK:   -4.12 KCAL/MOL
REMARK 923 INTER-LIGAND FREE ENERGY PREDICTED BY IDOCK:   -4.98 KCAL/MOL
REMARK 924 INTRA-LIGAND FREE ENERGY PREDICTED BY IDOCK:    0.87 KCAL/MOL
REMARK 927      BINDING AFFINITY PREDICTED BY RF-SCORE:    0.00 PKD
ROOT
HETATM    1  N   UNL     1     -13.033  14.169  65.248  1.00  0.00    -0.735 NA 
HETATM    2  C   UNL     1     -12.108  13.820  66.232  1.00  0.00    -0.446 A  
HETATM    3  H1  UNL     1     -12.973  13.748  64.320  1.00  0.00     0.000 HD 
HETATM    4  H2  UNL     1     -13.027  15.183  65.143  1.00  0.00     0.000 HD 
HETATM    5  C   UNL     1     -12.191  14.399  67.510  1.00  0.00    -0.210 A  
HETATM    6  C   UNL     1     -11.367  13.979  68.573  1.00  0.00    -0.308 A  
HETATM    7  C   UNL     1     -10.469  12.931  68.397  1.00  0.00    -0.260 A  
HETATM    8  C   UNL     1     -10.440  12.334  67.151  1.00  0.00    -0.238 A  
HETATM    9  C   UNL     1     -11.243  12.749  66.083  1.00  0.00    -0.336 A  
HETATM   10  C   UNL     1     -10.989  11.871  64.901  1.00  0.00    -0.313 C  
HETATM   11  N   UNL     1      -9.929  10.988  65.372  1.00  0.00    -0.245 N  
HETATM   12  O   UNL     1      -8.848  10.579  67.404  1.00  0.00    -0.132 OA 
HETATM   13  C   UNL     1      -9.632  11.195  66.708  1.00  0.00    -0.191 C  
ENDROOT
BRANCH  11  14
HETATM   14  C   UNL     1      -9.414   9.851  64.622  1.00  0.00    -0.278 C  
HETATM   15  C   UNL     1      -8.192   9.215  65.275  1.00  0.00    -0.135 C  
HETATM   16  C   UNL     1      -7.870   7.915  64.550  1.00  0.00    -0.134 C  
HETATM   17  C   UNL     1      -7.685   8.137  63.066  1.00  0.00    -0.135 C  
HETATM   18  O   UNL     1      -6.932   7.442  62.390  1.00  0.00    -0.068 OA 
HETATM   19  N   UNL     1      -8.419   9.146  62.492  1.00  0.00    -0.195 N  
HETATM   20  C   UNL     1      -9.062  10.167  63.160  1.00  0.00    -0.277 C  
HETATM   21  H   UNL     1      -8.496   9.140  61.476  1.00  0.00     0.000 HD 
HETATM   22  O   UNL     1      -9.293  11.233  62.598  1.00  0.00    -0.348 OA 
ENDBRANCH  11  14
TORSDOF 1
ENDMDL
MODEL      155
REMARK 921   NORMALIZED FREE ENERGY PREDICTED BY IDOCK:   -3.56 KCAL/MOL
REMARK 922        TOTAL FREE ENERGY PREDICTED BY IDOCK:   -4.11 KCAL/MOL
REMARK 923 INTER-LIGAND FREE ENERGY PREDICTED BY IDOCK:   -4.46 KCAL/MOL
REMARK 924 INTRA-LIGAND FREE ENERGY PREDICTED BY IDOCK:    0.35 KCAL/MOL
REMARK 927      BINDING AFFINITY PREDICTED BY RF-SCORE:    0.00 PKD
ROOT
HETATM    1  N   UNL     1     -10.227  18.816  65.831  1.00  0.00    -0.562 NA 
HETATM    2  C   UNL     1      -9.157  18.970  66.713  1.00  0.00    -0.320 A  
HETATM    3  H1  UNL     1     -10.517  17.883  65.539  1.00  0.00     0.000 HD 
HETATM    4  H2  UNL     1     -10.039  19.372  64.996  1.00  0.00     0.000 HD 
HETATM    5  C   UNL     1      -8.758  20.257  67.115  1.00  0.00    -0.429 A  
HETATM    6  C   UNL     1      -7.776  20.457  68.106  1.00  0.00    -0.091 A  
HETATM    7  C   UNL     1      -7.202  19.370  68.757  1.00  0.00    -0.390 A  
HETATM    8  C   UNL     1      -7.646  18.114  68.391  1.00  0.00    -0.290 A  
HETATM    9  C   UNL     1      -8.610  17.900  67.401  1.00  0.00    -0.239 A  
HETATM   10  C   UNL     1      -8.885  16.436  67.283  1.00  0.00    -0.188 C  
HETATM   11  N   UNL     1      -7.943  15.851  68.229  1.00  0.00    -0.136 N  
HETATM   12  O   UNL     1      -6.448  16.649  69.839  1.00  0.00    -0.191 OA 
HETATM   13  C   UNL     1      -7.249  16.815  68.939  1.00  0.00    -0.225 C  
ENDROOT
BRANCH  11  14
HETATM   14  C   UNL     1      -7.906  14.438  68.582  1.00  0.00    -0.140 C  
HETATM   15  C   UNL     1      -6.770  13.686  67.898  1.00  0.00    -0.156 C  
HETATM   16  C   UNL     1      -6.675  12.290  68.498  1.00  0.00    -0.076 C  
HETATM   17  C   UNL     1      -7.994  11.556  68.409  1.00  0.00    -0.143 C  
HETATM   18  O   UNL     1      -8.056  10.334  68.302  1.00  0.00    -0.103 OA 
HETATM   19  N   UNL     1      -9.135  12.317  68.473  1.00  0.00    -0.354 N  
HETATM   20  C   UNL     1      -9.214  13.683  68.301  1.00  0.00    -0.198 C  
HETATM   21  H   UNL     1     -10.007  11.826  68.668  1.00  0.00     0.000 HD 
HETATM   22  O   UNL     1     -10.260  14.207  67.929  1.00  0.00    -0.229 OA 
ENDBRANCH  11  14
TORSDOF 1
ENDMDL
MODEL      156
REMARK 921   NORMALIZED FREE ENERGY PREDICTED BY IDOCK:   -3.56 KCAL/MOL
REMARK 922        TOTAL FREE ENERGY PREDICTED BY IDOCK:   -4.11 KCAL/MOL
REMARK 923 INTER-LIGAND FREE ENERGY PREDICTED BY IDOCK:   -4.12 KCAL/MOL
REMARK 924 INTRA-LIGAND FREE ENERGY PREDICTED BY IDOCK:    0.01 KCAL/MOL
REMARK 927      BINDING AFFINITY PREDICTED BY RF-SCORE:    0.00 PKD
ROOT
HETATM    1  N   UNL     1      -8.285  13.261  68.930  1.00  0.00    -0.351 NA 
HETATM    2  C   UNL     1      -9.183  12.564  68.122  1.00  0.00    -0.209 A  
HETATM    3  H1  UNL     1      -7.920  12.828  69.779  1.00  0.00     0.000 HD 
HETATM    4  H2  UNL     1      -8.703  14.157  69.179  1.00  0.00     0.000 HD 
HETATM    5  C   UNL     1      -9.684  13.160  66.952  1.00  0.00    -0.243 A  
HETATM    6  C   UNL     1     -10.484  12.448  66.037  1.00  0.00    -0.281 A  
HETATM    7  C   UNL     1     -10.762  11.101  66.244  1.00  0.00    -0.298 A  
HETATM    8  C   UNL     1     -10.214  10.514  67.368  1.00  0.00    -0.253 A  
HETATM    9  C   UNL     1      -9.430  11.212  68.293  1.00  0.00    -0.182 A  
HETATM   10  C   UNL     1      -8.970  10.274  69.362  1.00  0.00    -0.176 C  
HETATM   11  N   UNL     1      -9.624   9.023  69.001  1.00  0.00    -0.158 N  
HETATM   12  O   UNL     1     -10.896   8.236  67.203  1.00  0.00    -0.244 OA 
HETATM   13  C   UNL     1     -10.309   9.117  67.802  1.00  0.00    -0.245 C  
ENDROOT
BRANCH  11  14
HETATM   14  C   UNL     1      -9.388   7.751  69.670  1.00  0.00    -0.153 C  
HETATM   15  C   UNL     1      -8.904   6.662  68.718  1.00  0.00    -0.126 C  
HETATM   16  C   UNL     1      -8.472   5.453  69.536  1.00  0.00    -0.100 C  
HETATM   17  C   UNL     1      -9.580   4.975  70.449  1.00  0.00    -0.193 C  
HETATM   18  O   UNL     1      -9.700   3.796  70.768  1.00  0.00    -0.174 OA 
HETATM   19  N   UNL     1     -10.443   5.928  70.930  1.00  0.00    -0.232 N  
HETATM   20  C   UNL     1     -10.603   7.207  70.437  1.00  0.00    -0.224 C  
HETATM   21  H   UNL     1     -11.021   5.667  71.728  1.00  0.00     0.000 HD 
HETATM   22  O   UNL     1     -11.657   7.813  70.602  1.00  0.00    -0.281 OA 
ENDBRANCH  11  14
TORSDOF 1
ENDMDL
MODEL      157
REMARK 921   NORMALIZED FREE ENERGY PREDICTED BY IDOCK:   -3.54 KCAL/MOL
REMARK 922        TOTAL FREE ENERGY PREDICTED BY IDOCK:   -4.09 KCAL/MOL
REMARK 923 INTER-LIGAND FREE ENERGY PREDICTED BY IDOCK:   -3.74 KCAL/MOL
REMARK 924 INTRA-LIGAND FREE ENERGY PREDICTED BY IDOCK:   -0.35 KCAL/MOL
REMARK 927      BINDING AFFINITY PREDICTED BY RF-SCORE:    0.00 PKD
ROOT
HETATM    1  N   UNL     1      -8.898   3.765  71.541  1.00  0.00    -0.096 NA 
HETATM    2  C   UNL     1      -9.856   4.687  71.121  1.00  0.00    -0.191 A  
HETATM    3  H1  UNL     1      -8.408   3.189  70.856  1.00  0.00     0.000 HD 
HETATM    4  H2  UNL     1      -9.323   3.150  72.235  1.00  0.00     0.000 HD 
HETATM    5  C   UNL     1     -10.530   5.480  72.065  1.00  0.00    -0.277 A  
HETATM    6  C   UNL     1     -11.404   6.516  71.680  1.00  0.00    -0.332 A  
HETATM    7  C   UNL     1     -11.589   6.818  70.335  1.00  0.00    -0.422 A  
HETATM    8  C   UNL     1     -10.876   6.066  69.421  1.00  0.00    -0.433 A  
HETATM    9  C   UNL     1     -10.015   5.027  69.787  1.00  0.00    -0.319 A  
HETATM   10  C   UNL     1      -9.380   4.452  68.563  1.00  0.00    -0.145 C  
HETATM   11  N   UNL     1     -10.014   5.201  67.485  1.00  0.00    -0.169 N  
HETATM   12  O   UNL     1     -11.463   7.028  67.321  1.00  0.00    -0.079 OA 
HETATM   13  C   UNL     1     -10.848   6.197  67.961  1.00  0.00    -0.313 C  
ENDROOT
BRANCH  11  14
HETATM   14  C   UNL     1      -9.634   5.101  66.082  1.00  0.00    -0.164 C  
HETATM   15  C   UNL     1      -9.261   3.681  65.670  1.00  0.00    -0.156 C  
HETATM   16  C   UNL     1      -9.102   3.637  64.156  1.00  0.00    -0.123 C  
HETATM   17  C   UNL     1      -8.104   4.664  63.671  1.00  0.00    -0.101 C  
HETATM   18  O   UNL     1      -7.420   4.486  62.667  1.00  0.00    -0.049 OA 
HETATM   19  N   UNL     1      -8.008   5.826  64.395  1.00  0.00    -0.121 N  
HETATM   20  C   UNL     1      -8.485   6.034  65.672  1.00  0.00    -0.151 C  
HETATM   21  H   UNL     1      -7.538   6.612  63.946  1.00  0.00     0.000 HD 
HETATM   22  O   UNL     1      -7.985   6.891  66.395  1.00  0.00    -0.101 OA 
ENDBRANCH  11  14
TORSDOF 1
ENDMDL
MODEL      158
REMARK 921   NORMALIZED FREE ENERGY PREDICTED BY IDOCK:   -3.54 KCAL/MOL
REMARK 922        TOTAL FREE ENERGY PREDICTED BY IDOCK:   -4.09 KCAL/MOL
REMARK 923 INTER-LIGAND FREE ENERGY PREDICTED BY IDOCK:   -3.83 KCAL/MOL
REMARK 924 INTRA-LIGAND FREE ENERGY PREDICTED BY IDOCK:   -0.26 KCAL/MOL
REMARK 927      BINDING AFFINITY PREDICTED BY RF-SCORE:    0.00 PKD
ROOT
HETATM    1  N   UNL     1      -6.710   7.540  72.216  1.00  0.00    -0.054 NA 
HETATM    2  C   UNL     1      -7.521   6.609  71.567  1.00  0.00    -0.088 A  
HETATM    3  H1  UNL     1      -6.705   8.514  71.909  1.00  0.00     0.000 HD 
HETATM    4  H2  UNL     1      -5.751   7.195  72.207  1.00  0.00     0.000 HD 
HETATM    5  C   UNL     1      -7.527   5.268  71.991  1.00  0.00    -0.097 A  
HETATM    6  C   UNL     1      -8.427   4.324  71.459  1.00  0.00    -0.106 A  
HETATM    7  C   UNL     1      -9.380   4.708  70.521  1.00  0.00    -0.222 A  
HETATM    8  C   UNL     1      -9.398   6.041  70.158  1.00  0.00    -0.172 A  
HETATM    9  C   UNL     1      -8.503   6.988  70.668  1.00  0.00    -0.139 A  
HETATM   10  C   UNL     1      -8.823   8.332  70.098  1.00  0.00    -0.141 C  
HETATM   11  N   UNL     1      -9.912   8.042  69.174  1.00  0.00    -0.183 N  
HETATM   12  O   UNL     1     -11.233   6.187  68.644  1.00  0.00    -0.356 OA 
HETATM   13  C   UNL     1     -10.313   6.719  69.236  1.00  0.00    -0.200 C  
ENDROOT
BRANCH  11  14
HETATM   14  C   UNL     1     -10.671   9.058  68.456  1.00  0.00    -0.095 C  
HETATM   15  C   UNL     1      -9.796   9.926  67.558  1.00  0.00    -0.209 C  
HETATM   16  C   UNL     1     -10.696  10.794  66.689  1.00  0.00    -0.268 C  
HETATM   17  C   UNL     1     -11.658  11.609  67.526  1.00  0.00    -0.272 C  
HETATM   18  O   UNL     1     -12.066  12.710  67.165  1.00  0.00    -0.466 OA 
HETATM   19  N   UNL     1     -12.078  11.053  68.708  1.00  0.00    -0.412 N  
HETATM   20  C   UNL     1     -11.493   9.988  69.362  1.00  0.00    -0.083 C  
HETATM   21  H   UNL     1     -12.901  11.466  69.145  1.00  0.00     0.000 HD 
HETATM   22  O   UNL     1     -11.628   9.848  70.573  1.00  0.00    -0.272 OA 
ENDBRANCH  11  14
TORSDOF 1
ENDMDL
MODEL      159
REMARK 921   NORMALIZED FREE ENERGY PREDICTED BY IDOCK:   -3.52 KCAL/MOL
REMARK 922        TOTAL FREE ENERGY PREDICTED BY IDOCK:   -4.07 KCAL/MOL
REMARK 923 INTER-LIGAND FREE ENERGY PREDICTED BY IDOCK:   -3.77 KCAL/MOL
REMARK 924 INTRA-LIGAND FREE ENERGY PREDICTED BY IDOCK:   -0.29 KCAL/MOL
REMARK 927      BINDING AFFINITY PREDICTED BY RF-SCORE:    0.00 PKD
ROOT
HETATM    1  N   UNL     1      -6.214  11.224  66.940  1.00  0.00    -0.109 NA 
HETATM    2  C   UNL     1      -7.024  10.318  66.255  1.00  0.00    -0.115 A  
HETATM    3  H1  UNL     1      -6.543  11.647  67.809  1.00  0.00     0.000 HD 
HETATM    4  H2  UNL     1      -5.949  11.970  66.298  1.00  0.00     0.000 HD 
HETATM    5  C   UNL     1      -6.570   9.736  65.059  1.00  0.00    -0.099 A  
HETATM    6  C   UNL     1      -7.293   8.717  64.406  1.00  0.00    -0.103 A  
HETATM    7  C   UNL     1      -8.467   8.219  64.961  1.00  0.00    -0.141 A  
HETATM    8  C   UNL     1      -8.869   8.762  66.166  1.00  0.00    -0.201 A  
HETATM    9  C   UNL     1      -8.170   9.782  66.820  1.00  0.00    -0.120 A  
HETATM   10  C   UNL     1      -8.853  10.107  68.108  1.00  0.00    -0.126 C  
HETATM   11  N   UNL     1     -10.027   9.243  68.081  1.00  0.00    -0.170 N  
HETATM   12  O   UNL     1     -10.828   7.522  66.716  1.00  0.00    -0.292 OA 
HETATM   13  C   UNL     1     -10.029   8.398  66.985  1.00  0.00    -0.253 C  
ENDROOT
BRANCH  11  14
HETATM   14  C   UNL     1     -10.960   9.091  69.189  1.00  0.00    -0.001 C  
HETATM   15  C   UNL     1     -11.098  10.358  70.025  1.00  0.00    -0.379 C  
HETATM   16  C   UNL     1     -12.248  10.175  71.006  1.00  0.00    -0.474 C  
HETATM   17  C   UNL     1     -12.062   8.937  71.855  1.00  0.00    -0.373 C  
HETATM   18  O   UNL     1     -12.494   8.861  73.002  1.00  0.00    -0.156 OA 
HETATM   19  N   UNL     1     -11.402   7.881  71.278  1.00  0.00    -0.256 N  
HETATM   20  C   UNL     1     -10.627   7.929  70.138  1.00  0.00    -0.237 C  
HETATM   21  H   UNL     1     -11.493   6.975  71.735  1.00  0.00     0.000 HD 
HETATM   22  O   UNL     1      -9.739   7.103  69.950  1.00  0.00    -0.170 OA 
ENDBRANCH  11  14
TORSDOF 1
ENDMDL
MODEL      160
REMARK 921   NORMALIZED FREE ENERGY PREDICTED BY IDOCK:   -3.48 KCAL/MOL
REMARK 922        TOTAL FREE ENERGY PREDICTED BY IDOCK:   -4.03 KCAL/MOL
REMARK 923 INTER-LIGAND FREE ENERGY PREDICTED BY IDOCK:   -3.67 KCAL/MOL
REMARK 924 INTRA-LIGAND FREE ENERGY PREDICTED BY IDOCK:   -0.36 KCAL/MOL
REMARK 927      BINDING AFFINITY PREDICTED BY RF-SCORE:    0.00 PKD
ROOT
HETATM    1  N   UNL     1      -9.923   2.884  64.836  1.00  0.00    -0.365 NA 
HETATM    2  C   UNL     1      -9.178   4.043  65.054  1.00  0.00    -0.151 A  
HETATM    3  H1  UNL     1     -10.265   2.341  65.629  1.00  0.00     0.000 HD 
HETATM    4  H2  UNL     1      -9.388   2.265  64.228  1.00  0.00     0.000 HD 
HETATM    5  C   UNL     1      -8.707   4.791  63.961  1.00  0.00    -0.138 A  
HETATM    6  C   UNL     1      -8.070   6.037  64.130  1.00  0.00    -0.095 A  
HETATM    7  C   UNL     1      -7.930   6.590  65.399  1.00  0.00    -0.120 A  
HETATM    8  C   UNL     1      -8.449   5.869  66.457  1.00  0.00    -0.113 A  
HETATM    9  C   UNL     1      -9.073   4.626  66.306  1.00  0.00    -0.122 A  
HETATM   10  C   UNL     1      -9.549   4.143  67.638  1.00  0.00    -0.163 C  
HETATM   11  N   UNL     1      -9.072   5.177  68.548  1.00  0.00    -0.109 N  
HETATM   12  O   UNL     1      -8.046   7.268  68.344  1.00  0.00    -0.121 OA 
HETATM   13  C   UNL     1      -8.479   6.232  67.876  1.00  0.00    -0.117 C  
ENDROOT
BRANCH  11  14
HETATM   14  C   UNL     1      -9.396   5.234  69.967  1.00  0.00    -0.152 C  
HETATM   15  C   UNL     1      -9.364   3.866  70.637  1.00  0.00    -0.225 C  
HETATM   16  C   UNL     1      -9.490   4.055  72.143  1.00  0.00    -0.192 C  
HETATM   17  C   UNL     1     -10.727   4.849  72.502  1.00  0.00    -0.196 C  
HETATM   18  O   UNL     1     -11.327   4.679  73.560  1.00  0.00    -0.321 OA 
HETATM   19  N   UNL     1     -11.144   5.792  71.596  1.00  0.00    -0.254 N  
HETATM   20  C   UNL     1     -10.753   5.885  70.277  1.00  0.00    -0.313 C  
HETATM   21  H   UNL     1     -11.806   6.492  71.931  1.00  0.00     0.000 HD 
HETATM   22  O   UNL     1     -11.475   6.432  69.448  1.00  0.00    -0.401 OA 
ENDBRANCH  11  14
TORSDOF 1
ENDMDL
MODEL      161
REMARK 921   NORMALIZED FREE ENERGY PREDICTED BY IDOCK:   -3.40 KCAL/MOL
REMARK 922        TOTAL FREE ENERGY PREDICTED BY IDOCK:   -3.94 KCAL/MOL
REMARK 923 INTER-LIGAND FREE ENERGY PREDICTED BY IDOCK:   -3.68 KCAL/MOL
REMARK 924 INTRA-LIGAND FREE ENERGY PREDICTED BY IDOCK:   -0.26 KCAL/MOL
REMARK 927      BINDING AFFINITY PREDICTED BY RF-SCORE:    0.00 PKD
ROOT
HETATM    1  N   UNL     1      -5.422   7.696  66.009  1.00  0.00    -0.028 NA 
HETATM    2  C   UNL     1      -6.548   6.878  65.921  1.00  0.00    -0.051 A  
HETATM    3  H1  UNL     1      -5.521   8.670  66.298  1.00  0.00     0.000 HD 
HETATM    4  H2  UNL     1      -4.934   7.674  65.114  1.00  0.00     0.000 HD 
HETATM    5  C   UNL     1      -6.411   5.537  65.523  1.00  0.00    -0.040 A  
HETATM    6  C   UNL     1      -7.496   4.638  65.550  1.00  0.00    -0.081 A  
HETATM    7  C   UNL     1      -8.738   5.046  66.024  1.00  0.00    -0.127 A  
HETATM    8  C   UNL     1      -8.841   6.351  66.465  1.00  0.00    -0.140 A  
HETATM    9  C   UNL     1      -7.777   7.259  66.432  1.00  0.00    -0.093 A  
HETATM   10  C   UNL     1      -8.217   8.563  67.015  1.00  0.00    -0.107 C  
HETATM   11  N   UNL     1      -9.628   8.332  67.300  1.00  0.00    -0.156 N  
HETATM   12  O   UNL     1     -11.088   6.506  67.245  1.00  0.00    -0.378 OA 
HETATM   13  C   UNL     1     -10.006   7.024  67.047  1.00  0.00    -0.210 C  
ENDROOT
BRANCH  11  14
HETATM   14  C   UNL     1     -10.487   9.273  68.006  1.00  0.00    -0.223 C  
HETATM   15  C   UNL     1     -10.574  10.629  67.315  1.00  0.00    -0.313 C  
HETATM   16  C   UNL     1     -11.658  11.456  67.993  1.00  0.00    -0.357 C  
HETATM   17  C   UNL     1     -11.415  11.577  69.481  1.00  0.00    -0.311 C  
HETATM   18  O   UNL     1     -11.773  12.561  70.123  1.00  0.00    -0.280 OA 
HETATM   19  N   UNL     1     -10.792  10.521  70.097  1.00  0.00    -0.422 N  
HETATM   20  C   UNL     1     -10.092   9.510  69.471  1.00  0.00    -0.206 C  
HETATM   21  H   UNL     1     -10.851  10.479  71.114  1.00  0.00     0.000 HD 
HETATM   22  O   UNL     1      -9.217   8.892  70.071  1.00  0.00    -0.159 OA 
ENDBRANCH  11  14
TORSDOF 1
ENDMDL
MODEL      162
REMARK 921   NORMALIZED FREE ENERGY PREDICTED BY IDOCK:   -3.37 KCAL/MOL
REMARK 922        TOTAL FREE ENERGY PREDICTED BY IDOCK:   -3.91 KCAL/MOL
REMARK 923 INTER-LIGAND FREE ENERGY PREDICTED BY IDOCK:   -4.21 KCAL/MOL
REMARK 924 INTRA-LIGAND FREE ENERGY PREDICTED BY IDOCK:    0.30 KCAL/MOL
REMARK 927      BINDING AFFINITY PREDICTED BY RF-SCORE:    0.00 PKD
ROOT
HETATM    1  N   UNL     1     -11.392   6.395  66.767  1.00  0.00    -0.769 NA 
HETATM    2  C   UNL     1     -10.564   6.959  67.737  1.00  0.00    -0.244 A  
HETATM    3  H1  UNL     1     -11.944   6.997  66.155  1.00  0.00     0.000 HD 
HETATM    4  H2  UNL     1     -12.021   5.735  67.223  1.00  0.00     0.000 HD 
HETATM    5  C   UNL     1      -9.804   6.130  68.580  1.00  0.00    -0.157 A  
HETATM    6  C   UNL     1      -8.853   6.653  69.480  1.00  0.00    -0.139 A  
HETATM    7  C   UNL     1      -8.604   8.021  69.524  1.00  0.00    -0.136 A  
HETATM    8  C   UNL     1      -9.318   8.816  68.649  1.00  0.00    -0.141 A  
HETATM    9  C   UNL     1     -10.273   8.313  67.760  1.00  0.00    -0.282 A  
HETATM   10  C   UNL     1     -10.826   9.432  66.938  1.00  0.00     0.015 C  
HETATM   11  N   UNL     1     -10.160  10.604  67.494  1.00  0.00    -0.178 N  
HETATM   12  O   UNL     1      -8.463  11.004  69.052  1.00  0.00    -0.147 OA 
HETATM   13  C   UNL     1      -9.223  10.266  68.456  1.00  0.00    -0.144 C  
ENDROOT
BRANCH  11  14
HETATM   14  C   UNL     1     -10.266  11.947  66.941  1.00  0.00    -0.208 C  
HETATM   15  C   UNL     1      -8.971  12.742  67.066  1.00  0.00    -0.221 C  
HETATM   16  C   UNL     1      -9.108  14.031  66.267  1.00  0.00    -0.047 C  
HETATM   17  C   UNL     1     -10.321  14.826  66.699  1.00  0.00    -0.273 C  
HETATM   18  O   UNL     1     -10.355  16.052  66.636  1.00  0.00    -0.286 OA 
HETATM   19  N   UNL     1     -11.402  14.112  67.152  1.00  0.00    -0.317 N  
HETATM   20  C   UNL     1     -11.400  12.790  67.544  1.00  0.00    -0.312 C  
HETATM   21  H   UNL     1     -12.293  14.606  67.202  1.00  0.00     0.000 HD 
HETATM   22  O   UNL     1     -12.243  12.370  68.331  1.00  0.00    -0.231 OA 
ENDBRANCH  11  14
TORSDOF 1
ENDMDL
MODEL      163
REMARK 921   NORMALIZED FREE ENERGY PREDICTED BY IDOCK:   -3.29 KCAL/MOL
REMARK 922        TOTAL FREE ENERGY PREDICTED BY IDOCK:   -3.83 KCAL/MOL
REMARK 923 INTER-LIGAND FREE ENERGY PREDICTED BY IDOCK:   -3.47 KCAL/MOL
REMARK 924 INTRA-LIGAND FREE ENERGY PREDICTED BY IDOCK:   -0.36 KCAL/MOL
REMARK 927      BINDING AFFINITY PREDICTED BY RF-SCORE:    0.00 PKD
ROOT
HETATM    1  N   UNL     1     -10.833   4.337  63.923  1.00  0.00    -0.459 NA 
HETATM    2  C   UNL     1      -9.946   3.600  64.707  1.00  0.00    -0.160 A  
HETATM    3  H1  UNL     1     -11.453   5.020  64.359  1.00  0.00     0.000 HD 
HETATM    4  H2  UNL     1     -11.402   3.687  63.380  1.00  0.00     0.000 HD 
HETATM    5  C   UNL     1      -9.093   2.659  64.105  1.00  0.00    -0.112 A  
HETATM    6  C   UNL     1      -8.089   1.990  64.834  1.00  0.00    -0.078 A  
HETATM    7  C   UNL     1      -7.880   2.284  66.178  1.00  0.00    -0.076 A  
HETATM    8  C   UNL     1      -8.689   3.253  66.740  1.00  0.00    -0.132 A  
HETATM    9  C   UNL     1      -9.698   3.915  66.032  1.00  0.00    -0.172 A  
HETATM   10  C   UNL     1     -10.352   4.921  66.923  1.00  0.00    -0.186 C  
HETATM   11  N   UNL     1      -9.681   4.710  68.200  1.00  0.00    -0.152 N  
HETATM   12  O   UNL     1      -7.875   3.442  68.972  1.00  0.00    -0.051 OA 
HETATM   13  C   UNL     1      -8.658   3.783  68.106  1.00  0.00    -0.097 C  
ENDROOT
BRANCH  11  14
HETATM   14  C   UNL     1      -9.875   5.546  69.377  1.00  0.00    -0.177 C  
HETATM   15  C   UNL     1     -11.322   5.994  69.553  1.00  0.00    -0.306 C  
HETATM   16  C   UNL     1     -11.465   6.662  70.914  1.00  0.00    -0.401 C  
HETATM   17  C   UNL     1     -10.481   7.799  71.081  1.00  0.00    -0.208 C  
HETATM   18  O   UNL     1     -10.730   8.781  71.775  1.00  0.00    -0.290 OA 
HETATM   19  N   UNL     1      -9.276   7.677  70.436  1.00  0.00    -0.156 N  
HETATM   20  C   UNL     1      -8.982   6.796  69.416  1.00  0.00    -0.137 C  
HETATM   21  H   UNL     1      -8.526   8.297  70.739  1.00  0.00     0.000 HD 
HETATM   22  O   UNL     1      -8.086   7.043  68.615  1.00  0.00    -0.118 OA 
ENDBRANCH  11  14
TORSDOF 1
ENDMDL
MODEL      164
REMARK 921   NORMALIZED FREE ENERGY PREDICTED BY IDOCK:   -3.28 KCAL/MOL
REMARK 922        TOTAL FREE ENERGY PREDICTED BY IDOCK:   -3.81 KCAL/MOL
REMARK 923 INTER-LIGAND FREE ENERGY PREDICTED BY IDOCK:   -3.93 KCAL/MOL
REMARK 924 INTRA-LIGAND FREE ENERGY PREDICTED BY IDOCK:    0.12 KCAL/MOL
REMARK 927      BINDING AFFINITY PREDICTED BY RF-SCORE:    0.00 PKD
ROOT
HETATM    1  N   UNL     1      -6.827   6.842  71.054  1.00  0.00    -0.057 NA 
HETATM    2  C   UNL     1      -7.416   6.675  69.802  1.00  0.00    -0.092 A  
HETATM    3  H1  UNL     1      -6.985   7.701  71.582  1.00  0.00     0.000 HD 
HETATM    4  H2  UNL     1      -5.821   6.704  70.959  1.00  0.00     0.000 HD 
HETATM    5  C   UNL     1      -7.198   5.492  69.075  1.00  0.00    -0.069 A  
HETATM    6  C   UNL     1      -7.879   5.220  67.871  1.00  0.00    -0.092 A  
HETATM    7  C   UNL     1      -8.836   6.107  67.388  1.00  0.00    -0.106 A  
HETATM    8  C   UNL     1      -9.081   7.237  68.144  1.00  0.00    -0.134 A  
HETATM    9  C   UNL     1      -8.403   7.526  69.333  1.00  0.00    -0.132 A  
HETATM   10  C   UNL     1      -8.935   8.798  69.911  1.00  0.00    -0.152 C  
HETATM   11  N   UNL     1      -9.902   9.231  68.911  1.00  0.00    -0.161 N  
HETATM   12  O   UNL     1     -10.828   8.340  66.957  1.00  0.00    -0.245 OA 
HETATM   13  C   UNL     1     -10.055   8.303  67.895  1.00  0.00    -0.202 C  
ENDROOT
BRANCH  11  14
HETATM   14  C   UNL     1     -10.796  10.369  69.073  1.00  0.00    -0.234 C  
HETATM   15  C   UNL     1     -10.161  11.686  68.642  1.00  0.00    -0.215 C  
HETATM   16  C   UNL     1     -11.234  12.768  68.633  1.00  0.00    -0.322 C  
HETATM   17  C   UNL     1     -11.931  12.870  69.971  1.00  0.00    -0.309 C  
HETATM   18  O   UNL     1     -12.393  13.928  70.388  1.00  0.00    -0.332 OA 
HETATM   19  N   UNL     1     -12.048  11.713  70.701  1.00  0.00    -0.401 N  
HETATM   20  C   UNL     1     -11.339  10.547  70.499  1.00  0.00    -0.314 C  
HETATM   21  H   UNL     1     -12.722  11.715  71.465  1.00  0.00     0.000 HD 
HETATM   22  O   UNL     1     -11.163   9.755  71.420  1.00  0.00    -0.366 OA 
ENDBRANCH  11  14
TORSDOF 1
ENDMDL
MODEL      165
REMARK 921   NORMALIZED FREE ENERGY PREDICTED BY IDOCK:   -3.25 KCAL/MOL
REMARK 922        TOTAL FREE ENERGY PREDICTED BY IDOCK:   -3.79 KCAL/MOL
REMARK 923 INTER-LIGAND FREE ENERGY PREDICTED BY IDOCK:   -3.47 KCAL/MOL
REMARK 924 INTRA-LIGAND FREE ENERGY PREDICTED BY IDOCK:   -0.32 KCAL/MOL
REMARK 927      BINDING AFFINITY PREDICTED BY RF-SCORE:    0.00 PKD
ROOT
HETATM    1  N   UNL     1     -10.849   6.304  73.818  1.00  0.00    -0.434 NA 
HETATM    2  C   UNL     1      -9.728   7.003  73.372  1.00  0.00    -0.218 A  
HETATM    3  H1  UNL     1     -11.515   5.925  73.144  1.00  0.00     0.000 HD 
HETATM    4  H2  UNL     1     -11.358   6.894  74.476  1.00  0.00     0.000 HD 
HETATM    5  C   UNL     1      -8.811   7.524  74.301  1.00  0.00    -0.247 A  
HETATM    6  C   UNL     1      -7.597   8.117  73.897  1.00  0.00    -0.229 A  
HETATM    7  C   UNL     1      -7.247   8.158  72.552  1.00  0.00    -0.123 A  
HETATM    8  C   UNL     1      -8.133   7.589  71.657  1.00  0.00    -0.105 A  
HETATM    9  C   UNL     1      -9.346   7.010  72.041  1.00  0.00    -0.149 A  
HETATM   10  C   UNL     1     -10.038   6.460  70.836  1.00  0.00    -0.187 C  
HETATM   11  N   UNL     1      -9.152   6.849  69.746  1.00  0.00    -0.144 N  
HETATM   12  O   UNL     1      -7.039   7.831  69.553  1.00  0.00    -0.060 OA 
HETATM   13  C   UNL     1      -7.996   7.456  70.203  1.00  0.00    -0.112 C  
ENDROOT
BRANCH  11  14
HETATM   14  C   UNL     1      -9.322   6.430  68.361  1.00  0.00    -0.121 C  
HETATM   15  C   UNL     1     -10.786   6.278  67.964  1.00  0.00    -0.409 C  
HETATM   16  C   UNL     1     -10.865   6.063  66.458  1.00  0.00    -0.193 C  
HETATM   17  C   UNL     1     -10.020   4.889  66.019  1.00  0.00    -0.223 C  
HETATM   18  O   UNL     1     -10.314   4.200  65.047  1.00  0.00    -0.235 OA 
HETATM   19  N   UNL     1      -8.885   4.633  66.748  1.00  0.00    -0.111 N  
HETATM   20  C   UNL     1      -8.594   5.125  68.004  1.00  0.00    -0.103 C  
HETATM   21  H   UNL     1      -8.190   4.022  66.321  1.00  0.00     0.000 HD 
HETATM   22  O   UNL     1      -7.827   4.523  68.749  1.00  0.00    -0.070 OA 
ENDBRANCH  11  14
TORSDOF 1
ENDMDL
MODEL      166
REMARK 921   NORMALIZED FREE ENERGY PREDICTED BY IDOCK:   -3.24 KCAL/MOL
REMARK 922        TOTAL FREE ENERGY PREDICTED BY IDOCK:   -3.77 KCAL/MOL
REMARK 923 INTER-LIGAND FREE ENERGY PREDICTED BY IDOCK:   -4.57 KCAL/MOL
REMARK 924 INTRA-LIGAND FREE ENERGY PREDICTED BY IDOCK:    0.80 KCAL/MOL
REMARK 927      BINDING AFFINITY PREDICTED BY RF-SCORE:    0.00 PKD
ROOT
HETATM    1  N   UNL     1     -12.410  12.683  71.618  1.00  0.00    -0.025 NA 
HETATM    2  C   UNL     1     -12.095  12.593  70.262  1.00  0.00    -0.294 A  
HETATM    3  H1  UNL     1     -12.414  11.843  72.198  1.00  0.00     0.000 HD 
HETATM    4  H2  UNL     1     -13.316  13.141  71.710  1.00  0.00     0.000 HD 
HETATM    5  C   UNL     1     -12.090  13.750  69.464  1.00  0.00    -0.386 A  
HETATM    6  C   UNL     1     -11.647  13.730  68.127  1.00  0.00    -0.370 A  
HETATM    7  C   UNL     1     -11.150  12.558  67.567  1.00  0.00    -0.311 A  
HETATM    8  C   UNL     1     -11.108  11.444  68.382  1.00  0.00    -0.296 A  
HETATM    9  C   UNL     1     -11.556  11.445  69.707  1.00  0.00    -0.407 A  
HETATM   10  C   UNL     1     -11.333  10.095  70.308  1.00  0.00    -0.315 C  
HETATM   11  N   UNL     1     -10.801   9.325  69.191  1.00  0.00    -0.181 N  
HETATM   12  O   UNL     1     -10.107   9.776  67.004  1.00  0.00    -0.193 OA 
HETATM   13  C   UNL     1     -10.598  10.106  68.066  1.00  0.00    -0.231 C  
ENDROOT
BRANCH  11  14
HETATM   14  C   UNL     1     -10.295   7.963  69.299  1.00  0.00    -0.220 C  
HETATM   15  C   UNL     1     -10.706   7.084  68.124  1.00  0.00    -0.242 C  
HETATM   16  C   UNL     1      -9.951   5.764  68.212  1.00  0.00    -0.185 C  
HETATM   17  C   UNL     1     -10.170   5.087  69.547  1.00  0.00    -0.216 C  
HETATM   18  O   UNL     1     -10.152   3.866  69.670  1.00  0.00    -0.002 OA 
HETATM   19  N   UNL     1     -10.369   5.904  70.632  1.00  0.00    -0.221 N  
HETATM   20  C   UNL     1     -10.698   7.243  70.595  1.00  0.00    -0.235 C  
HETATM   21  H   UNL     1     -10.264   5.480  71.553  1.00  0.00     0.000 HD 
HETATM   22  O   UNL     1     -11.285   7.768  71.536  1.00  0.00    -0.238 OA 
ENDBRANCH  11  14
TORSDOF 1
ENDMDL
MODEL      167
REMARK 921   NORMALIZED FREE ENERGY PREDICTED BY IDOCK:   -3.21 KCAL/MOL
REMARK 922        TOTAL FREE ENERGY PREDICTED BY IDOCK:   -3.74 KCAL/MOL
REMARK 923 INTER-LIGAND FREE ENERGY PREDICTED BY IDOCK:   -3.47 KCAL/MOL
REMARK 924 INTRA-LIGAND FREE ENERGY PREDICTED BY IDOCK:   -0.27 KCAL/MOL
REMARK 927      BINDING AFFINITY PREDICTED BY RF-SCORE:    0.00 PKD
ROOT
HETATM    1  N   UNL     1     -12.950  10.024  70.300  1.00  0.00    -0.571 NA 
HETATM    2  C   UNL     1     -12.170   8.942  70.709  1.00  0.00    -0.049 A  
HETATM    3  H1  UNL     1     -12.562  10.719  69.660  1.00  0.00     0.000 HD 
HETATM    4  H2  UNL     1     -13.293  10.507  71.130  1.00  0.00     0.000 HD 
HETATM    5  C   UNL     1     -12.704   7.986  71.590  1.00  0.00    -0.347 A  
HETATM    6  C   UNL     1     -12.006   6.808  71.923  1.00  0.00    -0.374 A  
HETATM    7  C   UNL     1     -10.773   6.532  71.342  1.00  0.00    -0.280 A  
HETATM    8  C   UNL     1     -10.288   7.454  70.434  1.00  0.00    -0.215 A  
HETATM    9  C   UNL     1     -10.964   8.634  70.104  1.00  0.00    -0.234 A  
HETATM   10  C   UNL     1     -10.184   9.380  69.070  1.00  0.00    -0.205 C  
HETATM   11  N   UNL     1      -8.989   8.562  68.910  1.00  0.00    -0.145 N  
HETATM   12  O   UNL     1      -8.248   6.482  69.678  1.00  0.00    -0.122 OA 
HETATM   13  C   UNL     1      -9.051   7.394  69.650  1.00  0.00    -0.140 C  
ENDROOT
BRANCH  11  14
HETATM   14  C   UNL     1      -7.960   8.799  67.906  1.00  0.00    -0.107 C  
HETATM   15  C   UNL     1      -7.821  10.271  67.537  1.00  0.00    -0.102 C  
HETATM   16  C   UNL     1      -6.585  10.443  66.664  1.00  0.00    -0.082 C  
HETATM   17  C   UNL     1      -6.633   9.543  65.450  1.00  0.00    -0.077 C  
HETATM   18  O   UNL     1      -6.104   9.852  64.386  1.00  0.00    -0.101 OA 
HETATM   19  N   UNL     1      -7.282   8.341  65.593  1.00  0.00    -0.070 N  
HETATM   20  C   UNL     1      -8.151   7.999  66.608  1.00  0.00    -0.103 C  
HETATM   21  H   UNL     1      -7.105   7.634  64.880  1.00  0.00     0.000 HD 
HETATM   22  O   UNL     1      -9.005   7.135  66.436  1.00  0.00    -0.145 OA 
ENDBRANCH  11  14
TORSDOF 1
ENDMDL
MODEL      168
REMARK 921   NORMALIZED FREE ENERGY PREDICTED BY IDOCK:   -3.19 KCAL/MOL
REMARK 922        TOTAL FREE ENERGY PREDICTED BY IDOCK:   -3.73 KCAL/MOL
REMARK 923 INTER-LIGAND FREE ENERGY PREDICTED BY IDOCK:   -3.77 KCAL/MOL
REMARK 924 INTRA-LIGAND FREE ENERGY PREDICTED BY IDOCK:    0.05 KCAL/MOL
REMARK 927      BINDING AFFINITY PREDICTED BY RF-SCORE:    0.00 PKD
ROOT
HETATM    1  N   UNL     1      -7.386   8.579  64.833  1.00  0.00    -0.084 NA 
HETATM    2  C   UNL     1      -8.501   8.758  65.652  1.00  0.00    -0.160 A  
HETATM    3  H1  UNL     1      -6.855   9.388  64.510  1.00  0.00     0.000 HD 
HETATM    4  H2  UNL     1      -7.667   8.031  64.020  1.00  0.00     0.000 HD 
HETATM    5  C   UNL     1      -9.231   7.643  66.097  1.00  0.00    -0.168 A  
HETATM    6  C   UNL     1     -10.278   7.764  67.032  1.00  0.00    -0.375 A  
HETATM    7  C   UNL     1     -10.590   9.001  67.585  1.00  0.00    -0.298 A  
HETATM    8  C   UNL     1      -9.825  10.078  67.180  1.00  0.00    -0.231 A  
HETATM    9  C   UNL     1      -8.791   9.976  66.243  1.00  0.00    -0.160 A  
HETATM   10  C   UNL     1      -8.150  11.313  66.063  1.00  0.00    -0.009 C  
HETATM   11  N   UNL     1      -8.958  12.179  66.912  1.00  0.00    -0.197 N  
HETATM   12  O   UNL     1     -10.683  11.893  68.465  1.00  0.00    -0.208 OA 
HETATM   13  C   UNL     1      -9.907  11.471  67.628  1.00  0.00    -0.181 C  
ENDROOT
BRANCH  11  14
HETATM   14  C   UNL     1      -8.653  13.578  67.185  1.00  0.00    -0.195 C  
HETATM   15  C   UNL     1      -8.615  13.895  68.675  1.00  0.00    -0.077 C  
HETATM   16  C   UNL     1      -8.072  15.306  68.861  1.00  0.00    -0.180 C  
HETATM   17  C   UNL     1      -8.873  16.318  68.073  1.00  0.00    -0.182 C  
HETATM   18  O   UNL     1      -9.006  17.480  68.446  1.00  0.00    -0.262 OA 
HETATM   19  N   UNL     1      -9.433  15.886  66.896  1.00  0.00    -0.220 N  
HETATM   20  C   UNL     1      -9.609  14.574  66.510  1.00  0.00    -0.293 C  
HETATM   21  H   UNL     1      -9.750  16.604  66.245  1.00  0.00     0.000 HD 
HETATM   22  O   UNL     1     -10.486  14.270  65.707  1.00  0.00    -0.291 OA 
ENDBRANCH  11  14
TORSDOF 1
ENDMDL
MODEL      169
REMARK 921   NORMALIZED FREE ENERGY PREDICTED BY IDOCK:   -3.19 KCAL/MOL
REMARK 922        TOTAL FREE ENERGY PREDICTED BY IDOCK:   -3.72 KCAL/MOL
REMARK 923 INTER-LIGAND FREE ENERGY PREDICTED BY IDOCK:   -3.36 KCAL/MOL
REMARK 924 INTRA-LIGAND FREE ENERGY PREDICTED BY IDOCK:   -0.36 KCAL/MOL
REMARK 927      BINDING AFFINITY PREDICTED BY RF-SCORE:    0.00 PKD
ROOT
HETATM    1  N   UNL     1     -10.007   5.441  66.656  1.00  0.00    -0.175 NA 
HETATM    2  C   UNL     1      -8.983   5.852  65.803  1.00  0.00    -0.120 A  
HETATM    3  H1  UNL     1     -10.488   6.124  67.242  1.00  0.00     0.000 HD 
HETATM    4  H2  UNL     1      -9.650   4.697  67.255  1.00  0.00     0.000 HD 
HETATM    5  C   UNL     1      -8.321   4.911  64.996  1.00  0.00    -0.136 A  
HETATM    6  C   UNL     1      -7.377   5.297  64.023  1.00  0.00    -0.056 A  
HETATM    7  C   UNL     1      -7.107   6.643  63.799  1.00  0.00    -0.056 A  
HETATM    8  C   UNL     1      -7.809   7.557  64.560  1.00  0.00    -0.130 A  
HETATM    9  C   UNL     1      -8.738   7.189  65.539  1.00  0.00    -0.042 A  
HETATM   10  C   UNL     1      -9.337   8.418  66.143  1.00  0.00    -0.201 C  
HETATM   11  N   UNL     1      -8.611   9.494  65.480  1.00  0.00    -0.139 N  
HETATM   12  O   UNL     1      -7.065   9.666  63.734  1.00  0.00    -0.105 OA 
HETATM   13  C   UNL     1      -7.754   9.021  64.501  1.00  0.00    -0.116 C  
ENDROOT
BRANCH  11  14
HETATM   14  C   UNL     1      -8.921  10.909  65.632  1.00  0.00    -0.194 C  
HETATM   15  C   UNL     1      -9.316  11.278  67.058  1.00  0.00    -0.183 C  
HETATM   16  C   UNL     1      -9.399  12.795  67.166  1.00  0.00    -0.216 C  
HETATM   17  C   UNL     1     -10.339  13.375  66.134  1.00  0.00    -0.295 C  
HETATM   18  O   UNL     1     -10.977  14.405  66.337  1.00  0.00    -0.308 OA 
HETATM   19  N   UNL     1     -10.437  12.709  64.938  1.00  0.00    -0.299 N  
HETATM   20  C   UNL     1     -10.020  11.418  64.687  1.00  0.00    -0.268 C  
HETATM   21  H   UNL     1     -10.859  13.216  64.160  1.00  0.00     0.000 HD 
HETATM   22  O   UNL     1     -10.529  10.761  63.785  1.00  0.00    -0.319 OA 
ENDBRANCH  11  14
TORSDOF 1
ENDMDL
MODEL      170
REMARK 921   NORMALIZED FREE ENERGY PREDICTED BY IDOCK:   -3.18 KCAL/MOL
REMARK 922        TOTAL FREE ENERGY PREDICTED BY IDOCK:   -3.71 KCAL/MOL
REMARK 923 INTER-LIGAND FREE ENERGY PREDICTED BY IDOCK:   -3.77 KCAL/MOL
REMARK 924 INTRA-LIGAND FREE ENERGY PREDICTED BY IDOCK:    0.06 KCAL/MOL
REMARK 927      BINDING AFFINITY PREDICTED BY RF-SCORE:    0.00 PKD
ROOT
HETATM    1  N   UNL     1      -9.040   2.551  70.591  1.00  0.00    -0.104 NA 
HETATM    2  C   UNL     1      -9.833   3.216  71.525  1.00  0.00    -0.130 A  
HETATM    3  H1  UNL     1      -8.689   3.049  69.772  1.00  0.00     0.000 HD 
HETATM    4  H2  UNL     1      -9.541   1.721  70.273  1.00  0.00     0.000 HD 
HETATM    5  C   UNL     1     -10.316   2.529  72.652  1.00  0.00    -0.228 A  
HETATM    6  C   UNL     1     -11.004   3.190  73.689  1.00  0.00    -0.327 A  
HETATM    7  C   UNL     1     -11.185   4.569  73.647  1.00  0.00    -0.346 A  
HETATM    8  C   UNL     1     -10.654   5.237  72.561  1.00  0.00    -0.276 A  
HETATM    9  C   UNL     1      -9.980   4.593  71.518  1.00  0.00    -0.265 A  
HETATM   10  C   UNL     1      -9.507   5.609  70.530  1.00  0.00    -0.163 C  
HETATM   11  N   UNL     1     -10.038   6.856  71.065  1.00  0.00    -0.193 N  
HETATM   12  O   UNL     1     -11.141   7.526  73.015  1.00  0.00    -0.360 OA 
HETATM   13  C   UNL     1     -10.661   6.677  72.288  1.00  0.00    -0.214 C  
ENDROOT
BRANCH  11  14
HETATM   14  C   UNL     1      -9.738   8.175  70.525  1.00  0.00    -0.174 C  
HETATM   15  C   UNL     1     -10.603   8.533  69.322  1.00  0.00    -0.193 C  
HETATM   16  C   UNL     1     -10.378   9.999  68.974  1.00  0.00    -0.223 C  
HETATM   17  C   UNL     1      -8.913  10.296  68.744  1.00  0.00    -0.155 C  
HETATM   18  O   UNL     1      -8.538  11.171  67.969  1.00  0.00    -0.130 OA 
HETATM   19  N   UNL     1      -8.008   9.554  69.462  1.00  0.00    -0.099 N  
HETATM   20  C   UNL     1      -8.267   8.374  70.128  1.00  0.00    -0.117 C  
HETATM   21  H   UNL     1      -7.053   9.909  69.508  1.00  0.00     0.000 HD 
HETATM   22  O   UNL     1      -7.367   7.568  70.344  1.00  0.00    -0.070 OA 
ENDBRANCH  11  14
TORSDOF 1
ENDMDL
MODEL      171
REMARK 921   NORMALIZED FREE ENERGY PREDICTED BY IDOCK:   -3.17 KCAL/MOL
REMARK 922        TOTAL FREE ENERGY PREDICTED BY IDOCK:   -3.70 KCAL/MOL
REMARK 923 INTER-LIGAND FREE ENERGY PREDICTED BY IDOCK:   -3.72 KCAL/MOL
REMARK 924 INTRA-LIGAND FREE ENERGY PREDICTED BY IDOCK:    0.02 KCAL/MOL
REMARK 927      BINDING AFFINITY PREDICTED BY RF-SCORE:    0.00 PKD
ROOT
HETATM    1  N   UNL     1      -9.112   2.692  72.423  1.00  0.00    -0.081 NA 
HETATM    2  C   UNL     1      -9.992   3.745  72.176  1.00  0.00    -0.169 A  
HETATM    3  H1  UNL     1      -8.492   2.361  71.683  1.00  0.00     0.000 HD 
HETATM    4  H2  UNL     1      -9.648   1.898  72.773  1.00  0.00     0.000 HD 
HETATM    5  C   UNL     1     -10.845   4.201  73.195  1.00  0.00    -0.285 A  
HETATM    6  C   UNL     1     -11.651   5.346  73.036  1.00  0.00    -0.268 A  
HETATM    7  C   UNL     1     -11.586   6.096  71.866  1.00  0.00    -0.352 A  
HETATM    8  C   UNL     1     -10.699   5.668  70.897  1.00  0.00    -0.313 A  
HETATM    9  C   UNL     1      -9.903   4.526  71.035  1.00  0.00    -0.266 A  
HETATM   10  C   UNL     1      -9.038   4.373  69.826  1.00  0.00    -0.112 C  
HETATM   11  N   UNL     1      -9.473   5.473  68.974  1.00  0.00    -0.124 N  
HETATM   12  O   UNL     1     -10.900   7.313  69.184  1.00  0.00    -0.208 OA 
HETATM   13  C   UNL     1     -10.401   6.286  69.602  1.00  0.00    -0.215 C  
ENDROOT
BRANCH  11  14
HETATM   14  C   UNL     1      -8.835   5.838  67.717  1.00  0.00    -0.105 C  
HETATM   15  C   UNL     1      -8.199   7.224  67.756  1.00  0.00    -0.119 C  
HETATM   16  C   UNL     1      -7.373   7.419  66.492  1.00  0.00    -0.084 C  
HETATM   17  C   UNL     1      -8.201   7.196  65.247  1.00  0.00    -0.128 C  
HETATM   18  O   UNL     1      -7.970   7.785  64.194  1.00  0.00    -0.135 OA 
HETATM   19  N   UNL     1      -9.220   6.280  65.334  1.00  0.00    -0.360 N  
HETATM   20  C   UNL     1      -9.766   5.777  66.496  1.00  0.00    -0.159 C  
HETATM   21  H   UNL     1      -9.611   5.940  64.456  1.00  0.00     0.000 HD 
HETATM   22  O   UNL     1     -10.914   5.345  66.511  1.00  0.00    -0.239 OA 
ENDBRANCH  11  14
TORSDOF 1
ENDMDL
MODEL      172
REMARK 921   NORMALIZED FREE ENERGY PREDICTED BY IDOCK:   -3.14 KCAL/MOL
REMARK 922        TOTAL FREE ENERGY PREDICTED BY IDOCK:   -3.66 KCAL/MOL
REMARK 923 INTER-LIGAND FREE ENERGY PREDICTED BY IDOCK:   -4.52 KCAL/MOL
REMARK 924 INTRA-LIGAND FREE ENERGY PREDICTED BY IDOCK:    0.85 KCAL/MOL
REMARK 927      BINDING AFFINITY PREDICTED BY RF-SCORE:    0.00 PKD
ROOT
HETATM    1  N   UNL     1      -5.617  17.594  70.056  1.00  0.00    -0.237 NA 
HETATM    2  C   UNL     1      -5.827  16.221  69.923  1.00  0.00    -0.187 A  
HETATM    3  H1  UNL     1      -6.124  18.247  69.457  1.00  0.00     0.000 HD 
HETATM    4  H2  UNL     1      -4.619  17.779  69.962  1.00  0.00     0.000 HD 
HETATM    5  C   UNL     1      -5.129  15.322  70.748  1.00  0.00    -0.141 A  
HETATM    6  C   UNL     1      -5.406  13.940  70.745  1.00  0.00    -0.142 A  
HETATM    7  C   UNL     1      -6.427  13.428  69.951  1.00  0.00     0.003 A  
HETATM    8  C   UNL     1      -7.141  14.333  69.190  1.00  0.00    -0.117 A  
HETATM    9  C   UNL     1      -6.869  15.705  69.172  1.00  0.00    -0.159 A  
HETATM   10  C   UNL     1      -7.848  16.394  68.277  1.00  0.00    -0.168 C  
HETATM   11  N   UNL     1      -8.632  15.289  67.741  1.00  0.00    -0.154 N  
HETATM   12  O   UNL     1      -8.793  12.988  68.120  1.00  0.00    -0.186 OA 
HETATM   13  C   UNL     1      -8.282  14.076  68.307  1.00  0.00    -0.153 C  
ENDROOT
BRANCH  11  14
HETATM   14  C   UNL     1      -9.815  15.453  66.906  1.00  0.00    -0.244 C  
HETATM   15  C   UNL     1      -9.976  14.334  65.883  1.00  0.00    -0.340 C  
HETATM   16  C   UNL     1     -11.342  14.467  65.222  1.00  0.00    -0.353 C  
HETATM   17  C   UNL     1     -11.533  15.840  64.616  1.00  0.00    -0.282 C  
HETATM   18  O   UNL     1     -12.233  16.024  63.624  1.00  0.00    -0.743 OA 
HETATM   19  N   UNL     1     -10.903  16.888  65.239  1.00  0.00    -0.219 N  
HETATM   20  C   UNL     1      -9.879  16.793  66.158  1.00  0.00    -0.309 C  
HETATM   21  H   UNL     1     -11.222  17.826  65.000  1.00  0.00     0.000 HD 
HETATM   22  O   UNL     1      -9.092  17.722  66.315  1.00  0.00    -0.388 OA 
ENDBRANCH  11  14
TORSDOF 1
ENDMDL
MODEL      173
REMARK 921   NORMALIZED FREE ENERGY PREDICTED BY IDOCK:   -3.12 KCAL/MOL
REMARK 922        TOTAL FREE ENERGY PREDICTED BY IDOCK:   -3.65 KCAL/MOL
REMARK 923 INTER-LIGAND FREE ENERGY PREDICTED BY IDOCK:   -3.93 KCAL/MOL
REMARK 924 INTRA-LIGAND FREE ENERGY PREDICTED BY IDOCK:    0.28 KCAL/MOL
REMARK 927      BINDING AFFINITY PREDICTED BY RF-SCORE:    0.00 PKD
ROOT
HETATM    1  N   UNL     1     -12.558  12.673  70.203  1.00  0.00     0.011 NA 
HETATM    2  C   UNL     1     -12.448  11.356  70.650  1.00  0.00    -0.327 A  
HETATM    3  H1  UNL     1     -11.888  13.039  69.527  1.00  0.00     0.000 HD 
HETATM    4  H2  UNL     1     -12.568  13.290  71.015  1.00  0.00     0.000 HD 
HETATM    5  C   UNL     1     -13.373  10.852  71.581  1.00  0.00    -0.364 A  
HETATM    6  C   UNL     1     -13.385   9.494  71.958  1.00  0.00    -0.535 A  
HETATM    7  C   UNL     1     -12.501   8.593  71.373  1.00  0.00    -0.337 A  
HETATM    8  C   UNL     1     -11.638   9.093  70.417  1.00  0.00    -0.181 A  
HETATM    9  C   UNL     1     -11.605  10.441  70.043  1.00  0.00    -0.378 A  
HETATM   10  C   UNL     1     -10.588  10.633  68.965  1.00  0.00    -0.219 C  
HETATM   11  N   UNL     1     -10.006   9.304  68.827  1.00  0.00    -0.175 N  
HETATM   12  O   UNL     1     -10.440   7.170  69.679  1.00  0.00    -0.215 OA 
HETATM   13  C   UNL     1     -10.645   8.367  69.620  1.00  0.00    -0.219 C  
ENDROOT
BRANCH  11  14
HETATM   14  C   UNL     1      -9.042   8.933  67.799  1.00  0.00    -0.134 C  
HETATM   15  C   UNL     1      -9.661   8.100  66.682  1.00  0.00    -0.295 C  
HETATM   16  C   UNL     1      -8.644   7.957  65.557  1.00  0.00    -0.139 C  
HETATM   17  C   UNL     1      -7.339   7.380  66.058  1.00  0.00    -0.075 C  
HETATM   18  O   UNL     1      -6.614   6.690  65.346  1.00  0.00    -0.047 OA 
HETATM   19  N   UNL     1      -6.982   7.678  67.349  1.00  0.00    -0.081 N  
HETATM   20  C   UNL     1      -7.813   8.179  68.330  1.00  0.00    -0.122 C  
HETATM   21  H   UNL     1      -6.010   7.514  67.609  1.00  0.00     0.000 HD 
HETATM   22  O   UNL     1      -7.562   7.995  69.517  1.00  0.00    -0.096 OA 
ENDBRANCH  11  14
TORSDOF 1
ENDMDL
MODEL      174
REMARK 921   NORMALIZED FREE ENERGY PREDICTED BY IDOCK:   -3.11 KCAL/MOL
REMARK 922        TOTAL FREE ENERGY PREDICTED BY IDOCK:   -3.64 KCAL/MOL
REMARK 923 INTER-LIGAND FREE ENERGY PREDICTED BY IDOCK:   -3.97 KCAL/MOL
REMARK 924 INTRA-LIGAND FREE ENERGY PREDICTED BY IDOCK:    0.33 KCAL/MOL
REMARK 927      BINDING AFFINITY PREDICTED BY RF-SCORE:    0.00 PKD
ROOT
HETATM    1  N   UNL     1      -6.731   9.353  70.602  1.00  0.00    -0.086 NA 
HETATM    2  C   UNL     1      -8.113   9.253  70.762  1.00  0.00    -0.156 A  
HETATM    3  H1  UNL     1      -6.344   9.967  69.885  1.00  0.00     0.000 HD 
HETATM    4  H2  UNL     1      -6.353   8.417  70.463  1.00  0.00     0.000 HD 
HETATM    5  C   UNL     1      -8.646   8.408  71.750  1.00  0.00    -0.234 A  
HETATM    6  C   UNL     1     -10.025   8.377  72.040  1.00  0.00    -0.354 A  
HETATM    7  C   UNL     1     -10.903   9.230  71.379  1.00  0.00    -0.434 A  
HETATM    8  C   UNL     1     -10.355  10.095  70.451  1.00  0.00    -0.178 A  
HETATM    9  C   UNL     1      -8.991  10.128  70.144  1.00  0.00     0.092 A  
HETATM   10  C   UNL     1      -8.735  11.199  69.134  1.00  0.00     0.070 C  
HETATM   11  N   UNL     1     -10.072  11.703  68.847  1.00  0.00    -0.146 N  
HETATM   12  O   UNL     1     -12.223  11.371  69.701  1.00  0.00    -0.296 OA 
HETATM   13  C   UNL     1     -11.035  11.118  69.652  1.00  0.00    -0.192 C  
ENDROOT
BRANCH  11  14
HETATM   14  C   UNL     1     -10.351  12.860  68.007  1.00  0.00    -0.227 C  
HETATM   15  C   UNL     1      -9.138  13.312  67.202  1.00  0.00    -0.231 C  
HETATM   16  C   UNL     1      -9.582  14.368  66.199  1.00  0.00    -0.309 C  
HETATM   17  C   UNL     1     -10.289  15.519  66.879  1.00  0.00    -0.290 C  
HETATM   18  O   UNL     1     -10.251  16.663  66.436  1.00  0.00    -0.292 OA 
HETATM   19  N   UNL     1     -11.003  15.225  68.015  1.00  0.00    -0.288 N  
HETATM   20  C   UNL     1     -10.896  14.076  68.770  1.00  0.00    -0.263 C  
HETATM   21  H   UNL     1     -11.676  15.923  68.330  1.00  0.00     0.000 HD 
HETATM   22  O   UNL     1     -11.203  14.079  69.958  1.00  0.00    -0.156 OA 
ENDBRANCH  11  14
TORSDOF 1
ENDMDL
MODEL      175
REMARK 921   NORMALIZED FREE ENERGY PREDICTED BY IDOCK:   -3.08 KCAL/MOL
REMARK 922        TOTAL FREE ENERGY PREDICTED BY IDOCK:   -3.60 KCAL/MOL
REMARK 923 INTER-LIGAND FREE ENERGY PREDICTED BY IDOCK:   -3.71 KCAL/MOL
REMARK 924 INTRA-LIGAND FREE ENERGY PREDICTED BY IDOCK:    0.11 KCAL/MOL
REMARK 927      BINDING AFFINITY PREDICTED BY RF-SCORE:    0.00 PKD
ROOT
HETATM    1  N   UNL     1      -9.876  14.960  69.194  1.00  0.00    -0.287 NA 
HETATM    2  C   UNL     1      -8.871  14.267  68.520  1.00  0.00    -0.176 A  
HETATM    3  H1  UNL     1     -10.772  14.507  69.378  1.00  0.00     0.000 HD 
HETATM    4  H2  UNL     1     -10.052  15.835  68.700  1.00  0.00     0.000 HD 
HETATM    5  C   UNL     1      -7.637  14.890  68.267  1.00  0.00    -0.113 A  
HETATM    6  C   UNL     1      -6.547  14.189  67.713  1.00  0.00    -0.188 A  
HETATM    7  C   UNL     1      -6.650  12.828  67.443  1.00  0.00    -0.140 A  
HETATM    8  C   UNL     1      -7.850  12.217  67.752  1.00  0.00    -0.151 A  
HETATM    9  C   UNL     1      -8.944  12.903  68.289  1.00  0.00    -0.175 A  
HETATM   10  C   UNL     1     -10.062  11.942  68.536  1.00  0.00    -0.206 C  
HETATM   11  N   UNL     1      -9.530  10.686  68.021  1.00  0.00    -0.155 N  
HETATM   12  O   UNL     1      -7.475   9.929  67.203  1.00  0.00    -0.091 OA 
HETATM   13  C   UNL     1      -8.213  10.804  67.613  1.00  0.00    -0.115 C  
ENDROOT
BRANCH  11  14
HETATM   14  C   UNL     1     -10.198   9.398  68.149  1.00  0.00    -0.200 C  
HETATM   15  C   UNL     1      -9.487   8.456  69.115  1.00  0.00    -0.155 C  
HETATM   16  C   UNL     1     -10.372   7.240  69.353  1.00  0.00    -0.212 C  
HETATM   17  C   UNL     1     -10.750   6.564  68.054  1.00  0.00    -0.283 C  
HETATM   18  O   UNL     1     -10.958   5.356  67.983  1.00  0.00    -0.012 OA 
HETATM   19  N   UNL     1     -10.873   7.368  66.948  1.00  0.00    -0.557 N  
HETATM   20  C   UNL     1     -10.396   8.656  66.819  1.00  0.00    -0.266 C  
HETATM   21  H   UNL     1     -11.363   6.975  66.145  1.00  0.00     0.000 HD 
HETATM   22  O   UNL     1     -10.144   9.121  65.712  1.00  0.00    -0.229 OA 
ENDBRANCH  11  14
TORSDOF 1
ENDMDL
MODEL      176
REMARK 921   NORMALIZED FREE ENERGY PREDICTED BY IDOCK:   -3.07 KCAL/MOL
REMARK 922        TOTAL FREE ENERGY PREDICTED BY IDOCK:   -3.60 KCAL/MOL
REMARK 923 INTER-LIGAND FREE ENERGY PREDICTED BY IDOCK:   -3.62 KCAL/MOL
REMARK 924 INTRA-LIGAND FREE ENERGY PREDICTED BY IDOCK:    0.02 KCAL/MOL
REMARK 927      BINDING AFFINITY PREDICTED BY RF-SCORE:    0.00 PKD
ROOT
HETATM    1  N   UNL     1     -10.931   3.069  64.179  1.00  0.00    -0.568 NA 
HETATM    2  C   UNL     1      -9.719   3.468  64.742  1.00  0.00    -0.165 A  
HETATM    3  H1  UNL     1     -11.799   3.523  64.464  1.00  0.00     0.000 HD 
HETATM    4  H2  UNL     1     -11.034   2.063  64.313  1.00  0.00     0.000 HD 
HETATM    5  C   UNL     1      -8.523   2.842  64.349  1.00  0.00    -0.090 A  
HETATM    6  C   UNL     1      -7.264   3.301  64.785  1.00  0.00    -0.066 A  
HETATM    7  C   UNL     1      -7.166   4.431  65.590  1.00  0.00    -0.072 A  
HETATM    8  C   UNL     1      -8.347   5.069  65.920  1.00  0.00    -0.116 A  
HETATM    9  C   UNL     1      -9.604   4.618  65.505  1.00  0.00    -0.187 A  
HETATM   10  C   UNL     1     -10.657   5.554  66.003  1.00  0.00     0.024 C  
HETATM   11  N   UNL     1      -9.893   6.513  66.791  1.00  0.00    -0.160 N  
HETATM   12  O   UNL     1      -7.632   6.953  67.192  1.00  0.00    -0.102 OA 
HETATM   13  C   UNL     1      -8.530   6.291  66.708  1.00  0.00    -0.111 C  
ENDROOT
BRANCH  11  14
HETATM   14  C   UNL     1     -10.456   7.717  67.388  1.00  0.00    -0.292 C  
HETATM   15  C   UNL     1      -9.876   8.997  66.797  1.00  0.00    -0.300 C  
HETATM   16  C   UNL     1     -10.679  10.183  67.316  1.00  0.00    -0.316 C  
HETATM   17  C   UNL     1     -10.720  10.208  68.827  1.00  0.00    -0.220 C  
HETATM   18  O   UNL     1     -10.800  11.257  69.461  1.00  0.00    -0.226 OA 
HETATM   19  N   UNL     1     -10.686   8.996  69.470  1.00  0.00    -0.275 N  
HETATM   20  C   UNL     1     -10.310   7.790  68.916  1.00  0.00    -0.213 C  
HETATM   21  H   UNL     1     -10.964   8.985  70.450  1.00  0.00     0.000 HD 
HETATM   22  O   UNL     1      -9.879   6.884  69.623  1.00  0.00    -0.165 OA 
ENDBRANCH  11  14
TORSDOF 1
ENDMDL
MODEL      177
REMARK 921   NORMALIZED FREE ENERGY PREDICTED BY IDOCK:   -3.04 KCAL/MOL
REMARK 922        TOTAL FREE ENERGY PREDICTED BY IDOCK:   -3.57 KCAL/MOL
REMARK 923 INTER-LIGAND FREE ENERGY PREDICTED BY IDOCK:   -3.22 KCAL/MOL
REMARK 924 INTRA-LIGAND FREE ENERGY PREDICTED BY IDOCK:   -0.34 KCAL/MOL
REMARK 927      BINDING AFFINITY PREDICTED BY RF-SCORE:    0.00 PKD
ROOT
HETATM    1  N   UNL     1      -6.476   4.775  72.595  1.00  0.00    -0.040 NA 
HETATM    2  C   UNL     1      -7.794   5.232  72.634  1.00  0.00    -0.099 A  
HETATM    3  H1  UNL     1      -6.116   4.330  71.750  1.00  0.00     0.000 HD 
HETATM    4  H2  UNL     1      -6.331   4.140  73.380  1.00  0.00     0.000 HD 
HETATM    5  C   UNL     1      -8.290   5.844  73.798  1.00  0.00    -0.115 A  
HETATM    6  C   UNL     1      -9.566   6.442  73.839  1.00  0.00    -0.199 A  
HETATM    7  C   UNL     1     -10.360   6.486  72.698  1.00  0.00    -0.214 A  
HETATM    8  C   UNL     1      -9.834   5.931  71.547  1.00  0.00    -0.201 A  
HETATM    9  C   UNL     1      -8.575   5.323  71.494  1.00  0.00    -0.132 A  
HETATM   10  C   UNL     1      -8.302   4.864  70.098  1.00  0.00    -0.080 C  
HETATM   11  N   UNL     1      -9.538   5.195  69.400  1.00  0.00    -0.146 N  
HETATM   12  O   UNL     1     -11.509   6.348  69.904  1.00  0.00    -0.404 OA 
HETATM   13  C   UNL     1     -10.429   5.879  70.209  1.00  0.00    -0.261 C  
ENDROOT
BRANCH  11  14
HETATM   14  C   UNL     1      -9.729   5.062  67.962  1.00  0.00    -0.151 C  
HETATM   15  C   UNL     1      -9.016   3.847  67.380  1.00  0.00    -0.153 C  
HETATM   16  C   UNL     1      -9.456   3.667  65.933  1.00  0.00    -0.163 C  
HETATM   17  C   UNL     1      -9.222   4.921  65.121  1.00  0.00    -0.123 C  
HETATM   18  O   UNL     1      -8.973   4.884  63.919  1.00  0.00    -0.123 OA 
HETATM   19  N   UNL     1      -9.320   6.119  65.785  1.00  0.00    -0.369 N  
HETATM   20  C   UNL     1      -9.302   6.297  67.153  1.00  0.00    -0.123 C  
HETATM   21  H   UNL     1      -9.417   6.957  65.213  1.00  0.00     0.000 HD 
HETATM   22  O   UNL     1      -8.945   7.365  67.639  1.00  0.00    -0.127 OA 
ENDBRANCH  11  14
TORSDOF 1
ENDMDL
MODEL      178
REMARK 921   NORMALIZED FREE ENERGY PREDICTED BY IDOCK:   -3.01 KCAL/MOL
REMARK 922        TOTAL FREE ENERGY PREDICTED BY IDOCK:   -3.53 KCAL/MOL
REMARK 923 INTER-LIGAND FREE ENERGY PREDICTED BY IDOCK:   -3.59 KCAL/MOL
REMARK 924 INTRA-LIGAND FREE ENERGY PREDICTED BY IDOCK:    0.06 KCAL/MOL
REMARK 927      BINDING AFFINITY PREDICTED BY RF-SCORE:    0.00 PKD
ROOT
HETATM    1  N   UNL     1      -8.687   8.847  63.230  1.00  0.00    -0.419 NA 
HETATM    2  C   UNL     1      -8.975   8.479  64.544  1.00  0.00     0.305 A  
HETATM    3  H1  UNL     1      -8.934   9.778  62.895  1.00  0.00     0.000 HD 
HETATM    4  H2  UNL     1      -9.102   8.158  62.603  1.00  0.00     0.000 HD 
HETATM    5  C   UNL     1      -8.633   7.196  65.005  1.00  0.00     0.105 A  
HETATM    6  C   UNL     1      -8.780   6.827  66.357  1.00  0.00    -0.142 A  
HETATM    7  C   UNL     1      -9.227   7.751  67.295  1.00  0.00    -0.162 A  
HETATM    8  C   UNL     1      -9.503   9.025  66.836  1.00  0.00    -0.219 A  
HETATM    9  C   UNL     1      -9.376   9.402  65.495  1.00  0.00    -0.315 A  
HETATM   10  C   UNL     1      -9.716  10.850  65.352  1.00  0.00    -0.238 C  
HETATM   11  N   UNL     1     -10.118  11.225  66.701  1.00  0.00    -0.208 N  
HETATM   12  O   UNL     1     -10.121  10.212  68.808  1.00  0.00    -0.171 OA 
HETATM   13  C   UNL     1      -9.942  10.192  67.606  1.00  0.00    -0.181 C  
ENDROOT
BRANCH  11  14
HETATM   14  C   UNL     1     -10.423  12.587  67.118  1.00  0.00    -0.224 C  
HETATM   15  C   UNL     1     -10.726  13.511  65.944  1.00  0.00    -0.279 C  
HETATM   16  C   UNL     1     -11.249  14.835  66.485  1.00  0.00    -0.342 C  
HETATM   17  C   UNL     1     -10.286  15.451  67.474  1.00  0.00    -0.244 C  
HETATM   18  O   UNL     1     -10.187  16.666  67.620  1.00  0.00    -0.269 OA 
HETATM   19  N   UNL     1      -9.532  14.586  68.228  1.00  0.00    -0.201 N  
HETATM   20  C   UNL     1      -9.329  13.246  67.972  1.00  0.00    -0.218 C  
HETATM   21  H   UNL     1      -9.078  14.970  69.056  1.00  0.00     0.000 HD 
HETATM   22  O   UNL     1      -8.329  12.673  68.394  1.00  0.00    -0.163 OA 
ENDBRANCH  11  14
TORSDOF 1
ENDMDL
MODEL      179
REMARK 921   NORMALIZED FREE ENERGY PREDICTED BY IDOCK:   -3.00 KCAL/MOL
REMARK 922        TOTAL FREE ENERGY PREDICTED BY IDOCK:   -3.52 KCAL/MOL
REMARK 923 INTER-LIGAND FREE ENERGY PREDICTED BY IDOCK:   -3.57 KCAL/MOL
REMARK 924 INTRA-LIGAND FREE ENERGY PREDICTED BY IDOCK:    0.05 KCAL/MOL
REMARK 927      BINDING AFFINITY PREDICTED BY RF-SCORE:    0.00 PKD
ROOT
HETATM    1  N   UNL     1      -7.996  12.705  68.827  1.00  0.00    -0.323 NA 
HETATM    2  C   UNL     1      -8.878  11.974  68.030  1.00  0.00    -0.179 A  
HETATM    3  H1  UNL     1      -7.838  12.430  69.797  1.00  0.00     0.000 HD 
HETATM    4  H2  UNL     1      -8.282  13.684  68.812  1.00  0.00     0.000 HD 
HETATM    5  C   UNL     1      -9.095  12.353  66.694  1.00  0.00    -0.204 A  
HETATM    6  C   UNL     1      -9.868  11.570  65.814  1.00  0.00    -0.266 A  
HETATM    7  C   UNL     1     -10.403  10.357  66.236  1.00  0.00    -0.270 A  
HETATM    8  C   UNL     1     -10.132   9.971  67.535  1.00  0.00    -0.243 A  
HETATM    9  C   UNL     1      -9.379  10.745  68.423  1.00  0.00    -0.167 A  
HETATM   10  C   UNL     1      -9.247  10.021  69.724  1.00  0.00    -0.199 C  
HETATM   11  N   UNL     1     -10.051   8.824  69.513  1.00  0.00    -0.196 N  
HETATM   12  O   UNL     1     -11.171   7.834  67.715  1.00  0.00     0.153 OA 
HETATM   13  C   UNL     1     -10.530   8.737  68.217  1.00  0.00    -0.187 C  
ENDROOT
BRANCH  11  14
HETATM   14  C   UNL     1     -10.139   7.717  70.456  1.00  0.00    -0.189 C  
HETATM   15  C   UNL     1     -11.126   7.979  71.587  1.00  0.00    -0.300 C  
HETATM   16  C   UNL     1     -11.315   6.693  72.381  1.00  0.00    -0.309 C  
HETATM   17  C   UNL     1      -9.994   6.149  72.878  1.00  0.00    -0.174 C  
HETATM   18  O   UNL     1      -9.904   5.507  73.921  1.00  0.00    -0.158 OA 
HETATM   19  N   UNL     1      -8.891   6.385  72.097  1.00  0.00    -0.137 N  
HETATM   20  C   UNL     1      -8.794   7.315  71.082  1.00  0.00    -0.140 C  
HETATM   21  H   UNL     1      -8.063   5.820  72.284  1.00  0.00     0.000 HD 
HETATM   22  O   UNL     1      -7.704   7.772  70.755  1.00  0.00    -0.081 OA 
ENDBRANCH  11  14
TORSDOF 1
ENDMDL
MODEL      180
REMARK 921   NORMALIZED FREE ENERGY PREDICTED BY IDOCK:   -2.99 KCAL/MOL
REMARK 922        TOTAL FREE ENERGY PREDICTED BY IDOCK:   -3.50 KCAL/MOL
REMARK 923 INTER-LIGAND FREE ENERGY PREDICTED BY IDOCK:   -4.29 KCAL/MOL
REMARK 924 INTRA-LIGAND FREE ENERGY PREDICTED BY IDOCK:    0.78 KCAL/MOL
REMARK 927      BINDING AFFINITY PREDICTED BY RF-SCORE:    0.00 PKD
ROOT
HETATM    1  N   UNL     1     -10.679   8.991  68.735  1.00  0.00    -0.384 NA 
HETATM    2  C   UNL     1      -9.363   9.450  68.784  1.00  0.00    -0.146 A  
HETATM    3  H1  UNL     1     -11.426   9.618  68.436  1.00  0.00     0.000 HD 
HETATM    4  H2  UNL     1     -10.923   8.612  69.650  1.00  0.00     0.000 HD 
HETATM    5  C   UNL     1      -8.333   8.586  69.196  1.00  0.00    -0.120 A  
HETATM    6  C   UNL     1      -6.976   8.961  69.132  1.00  0.00    -0.059 A  
HETATM    7  C   UNL     1      -6.610  10.195  68.605  1.00  0.00    -0.053 A  
HETATM    8  C   UNL     1      -7.630  11.009  68.151  1.00  0.00    -0.095 A  
HETATM    9  C   UNL     1      -8.982  10.656  68.221  1.00  0.00    -0.143 A  
HETATM   10  C   UNL     1      -9.811  11.741  67.612  1.00  0.00    -0.185 C  
HETATM   11  N   UNL     1      -8.821  12.755  67.271  1.00  0.00    -0.190 N  
HETATM   12  O   UNL     1      -6.488  12.910  67.279  1.00  0.00    -0.178 OA 
HETATM   13  C   UNL     1      -7.528  12.327  67.517  1.00  0.00    -0.149 C  
ENDROOT
BRANCH  11  14
HETATM   14  C   UNL     1      -9.115  13.970  66.524  1.00  0.00    -0.150 C  
HETATM   15  C   UNL     1      -8.428  15.202  67.104  1.00  0.00    -0.238 C  
HETATM   16  C   UNL     1      -8.608  16.364  66.137  1.00  0.00    -0.343 C  
HETATM   17  C   UNL     1     -10.068  16.606  65.825  1.00  0.00    -0.277 C  
HETATM   18  O   UNL     1     -10.502  17.723  65.556  1.00  0.00    -0.646 OA 
HETATM   19  N   UNL     1     -10.895  15.510  65.833  1.00  0.00    -0.327 N  
HETATM   20  C   UNL     1     -10.613  14.280  66.389  1.00  0.00    -0.286 C  
HETATM   21  H   UNL     1     -11.805  15.616  65.385  1.00  0.00     0.000 HD 
HETATM   22  O   UNL     1     -11.519  13.536  66.752  1.00  0.00    -0.319 OA 
ENDBRANCH  11  14
TORSDOF 1
ENDMDL
MODEL      181
REMARK 921   NORMALIZED FREE ENERGY PREDICTED BY IDOCK:   -2.99 KCAL/MOL
REMARK 922        TOTAL FREE ENERGY PREDICTED BY IDOCK:   -3.50 KCAL/MOL
REMARK 923 INTER-LIGAND FREE ENERGY PREDICTED BY IDOCK:   -3.67 KCAL/MOL
REMARK 924 INTRA-LIGAND FREE ENERGY PREDICTED BY IDOCK:    0.17 KCAL/MOL
REMARK 927      BINDING AFFINITY PREDICTED BY RF-SCORE:    0.00 PKD
ROOT
HETATM    1  N   UNL     1      -9.794   3.170  70.742  1.00  0.00    -0.071 NA 
HETATM    2  C   UNL     1      -9.832   4.104  71.777  1.00  0.00    -0.182 A  
HETATM    3  H1  UNL     1     -10.007   3.458  69.787  1.00  0.00     0.000 HD 
HETATM    4  H2  UNL     1     -10.406   2.391  70.987  1.00  0.00     0.000 HD 
HETATM    5  C   UNL     1      -9.539   3.706  73.093  1.00  0.00    -0.150 A  
HETATM    6  C   UNL     1      -9.431   4.637  74.146  1.00  0.00    -0.128 A  
HETATM    7  C   UNL     1      -9.565   5.999  73.898  1.00  0.00    -0.165 A  
HETATM    8  C   UNL     1      -9.795   6.378  72.590  1.00  0.00    -0.175 A  
HETATM    9  C   UNL     1      -9.918   5.465  71.537  1.00  0.00    -0.237 A  
HETATM   10  C   UNL     1     -10.125   6.208  70.257  1.00  0.00    -0.188 C  
HETATM   11  N   UNL     1     -10.185   7.597  70.693  1.00  0.00    -0.198 N  
HETATM   12  O   UNL     1      -9.845   8.758  72.694  1.00  0.00    -0.199 OA 
HETATM   13  C   UNL     1      -9.932   7.732  72.047  1.00  0.00    -0.179 C  
ENDROOT
BRANCH  11  14
HETATM   14  C   UNL     1     -10.247   8.739  69.790  1.00  0.00    -0.202 C  
HETATM   15  C   UNL     1      -8.942   9.526  69.741  1.00  0.00    -0.214 C  
HETATM   16  C   UNL     1      -9.029  10.548  68.616  1.00  0.00    -0.162 C  
HETATM   17  C   UNL     1     -10.239  11.441  68.768  1.00  0.00    -0.197 C  
HETATM   18  O   UNL     1     -10.249  12.603  68.370  1.00  0.00    -0.230 OA 
HETATM   19  N   UNL     1     -11.349  10.888  69.357  1.00  0.00    -0.254 N  
HETATM   20  C   UNL     1     -11.385   9.724  70.096  1.00  0.00    -0.251 C  
HETATM   21  H   UNL     1     -12.231  11.385  69.237  1.00  0.00     0.000 HD 
HETATM   22  O   UNL     1     -12.262   9.544  70.936  1.00  0.00    -0.292 OA 
ENDBRANCH  11  14
TORSDOF 1
ENDMDL
MODEL      182
REMARK 921   NORMALIZED FREE ENERGY PREDICTED BY IDOCK:   -2.82 KCAL/MOL
REMARK 922        TOTAL FREE ENERGY PREDICTED BY IDOCK:   -3.33 KCAL/MOL
REMARK 923 INTER-LIGAND FREE ENERGY PREDICTED BY IDOCK:   -3.03 KCAL/MOL
REMARK 924 INTRA-LIGAND FREE ENERGY PREDICTED BY IDOCK:   -0.30 KCAL/MOL
REMARK 927      BINDING AFFINITY PREDICTED BY RF-SCORE:    0.00 PKD
ROOT
HETATM    1  N   UNL     1      -9.979   2.239  72.978  1.00  0.00    -0.105 NA 
HETATM    2  C   UNL     1      -8.803   2.820  72.502  1.00  0.00    -0.075 A  
HETATM    3  H1  UNL     1     -10.795   2.822  73.166  1.00  0.00     0.000 HD 
HETATM    4  H2  UNL     1      -9.759   1.710  73.822  1.00  0.00     0.000 HD 
HETATM    5  C   UNL     1      -7.679   2.018  72.244  1.00  0.00    -0.045 A  
HETATM    6  C   UNL     1      -6.518   2.536  71.636  1.00  0.00    -0.018 A  
HETATM    7  C   UNL     1      -6.471   3.864  71.225  1.00  0.00    -0.019 A  
HETATM    8  C   UNL     1      -7.605   4.624  71.434  1.00  0.00    -0.078 A  
HETATM    9  C   UNL     1      -8.760   4.127  72.048  1.00  0.00    -0.123 A  
HETATM   10  C   UNL     1      -9.804   5.196  72.082  1.00  0.00    -0.174 C  
HETATM   11  N   UNL     1      -9.112   6.345  71.511  1.00  0.00    -0.145 N  
HETATM   12  O   UNL     1      -7.049   6.738  70.484  1.00  0.00    -0.065 OA 
HETATM   13  C   UNL     1      -7.843   6.022  71.063  1.00  0.00    -0.111 C  
ENDROOT
BRANCH  11  14
HETATM   14  C   UNL     1      -9.751   7.618  71.204  1.00  0.00    -0.162 C  
HETATM   15  C   UNL     1     -10.885   7.958  72.164  1.00  0.00    -0.327 C  
HETATM   16  C   UNL     1     -11.332   9.390  71.906  1.00  0.00    -0.276 C  
HETATM   17  C   UNL     1     -11.715   9.601  70.459  1.00  0.00    -0.242 C  
HETATM   18  O   UNL     1     -12.570  10.415  70.121  1.00  0.00    -0.253 OA 
HETATM   19  N   UNL     1     -11.046   8.851  69.524  1.00  0.00    -0.432 N  
HETATM   20  C   UNL     1     -10.294   7.721  69.771  1.00  0.00    -0.221 C  
HETATM   21  H   UNL     1     -11.110   9.159  68.554  1.00  0.00     0.000 HD 
HETATM   22  O   UNL     1     -10.119   6.882  68.892  1.00  0.00    -0.160 OA 
ENDBRANCH  11  14
TORSDOF 1
ENDMDL
MODEL      183
REMARK 921   NORMALIZED FREE ENERGY PREDICTED BY IDOCK:   -2.80 KCAL/MOL
REMARK 922        TOTAL FREE ENERGY PREDICTED BY IDOCK:   -3.31 KCAL/MOL
REMARK 923 INTER-LIGAND FREE ENERGY PREDICTED BY IDOCK:   -4.03 KCAL/MOL
REMARK 924 INTRA-LIGAND FREE ENERGY PREDICTED BY IDOCK:    0.72 KCAL/MOL
REMARK 927      BINDING AFFINITY PREDICTED BY RF-SCORE:    0.00 PKD
ROOT
HETATM    1  N   UNL     1      -6.673   7.067  66.136  1.00  0.00    -0.052 NA 
HETATM    2  C   UNL     1      -7.779   6.263  66.410  1.00  0.00    -0.099 A  
HETATM    3  H1  UNL     1      -6.628   8.016  66.508  1.00  0.00     0.000 HD 
HETATM    4  H2  UNL     1      -6.548   7.111  65.125  1.00  0.00     0.000 HD 
HETATM    5  C   UNL     1      -7.840   4.955  65.898  1.00  0.00    -0.095 A  
HETATM    6  C   UNL     1      -8.868   4.061  66.258  1.00  0.00    -0.121 A  
HETATM    7  C   UNL     1      -9.837   4.438  67.182  1.00  0.00    -0.217 A  
HETATM    8  C   UNL     1      -9.730   5.706  67.721  1.00  0.00    -0.140 A  
HETATM    9  C   UNL     1      -8.723   6.609  67.363  1.00  0.00    -0.118 A  
HETATM   10  C   UNL     1      -8.878   7.866  68.155  1.00  0.00    -0.125 C  
HETATM   11  N   UNL     1     -10.093   7.620  68.922  1.00  0.00    -0.192 N  
HETATM   12  O   UNL     1     -11.529   5.809  69.280  1.00  0.00    -0.079 OA 
HETATM   13  C   UNL     1     -10.579   6.337  68.735  1.00  0.00    -0.262 C  
ENDROOT
BRANCH  11  14
HETATM   14  C   UNL     1     -10.604   8.507  69.958  1.00  0.00    -0.227 C  
HETATM   15  C   UNL     1     -11.752   7.893  70.750  1.00  0.00    -0.230 C  
HETATM   16  C   UNL     1     -12.062   8.791  71.941  1.00  0.00    -0.433 C  
HETATM   17  C   UNL     1     -12.351  10.210  71.505  1.00  0.00    -0.408 C  
HETATM   18  O   UNL     1     -13.114  10.942  72.129  1.00  0.00    -0.463 OA 
HETATM   19  N   UNL     1     -11.701  10.661  70.383  1.00  0.00    -0.327 N  
HETATM   20  C   UNL     1     -11.063   9.880  69.442  1.00  0.00    -0.199 C  
HETATM   21  H   UNL     1     -11.689  11.668  70.230  1.00  0.00     0.000 HD 
HETATM   22  O   UNL     1     -10.916  10.282  68.292  1.00  0.00    -0.240 OA 
ENDBRANCH  11  14
TORSDOF 1
ENDMDL
MODEL      184
REMARK 921   NORMALIZED FREE ENERGY PREDICTED BY IDOCK:   -2.79 KCAL/MOL
REMARK 922        TOTAL FREE ENERGY PREDICTED BY IDOCK:   -3.30 KCAL/MOL
REMARK 923 INTER-LIGAND FREE ENERGY PREDICTED BY IDOCK:   -3.31 KCAL/MOL
REMARK 924 INTRA-LIGAND FREE ENERGY PREDICTED BY IDOCK:    0.02 KCAL/MOL
REMARK 927      BINDING AFFINITY PREDICTED BY RF-SCORE:    0.00 PKD
ROOT
HETATM    1  N   UNL     1     -11.616   7.451  73.198  1.00  0.00    -0.588 NA 
HETATM    2  C   UNL     1     -10.985   6.277  72.786  1.00  0.00    -0.260 A  
HETATM    3  H1  UNL     1     -11.400   8.335  72.737  1.00  0.00     0.000 HD 
HETATM    4  H2  UNL     1     -11.465   7.564  74.200  1.00  0.00     0.000 HD 
HETATM    5  C   UNL     1     -11.283   5.059  73.422  1.00  0.00    -0.391 A  
HETATM    6  C   UNL     1     -10.775   3.831  72.953  1.00  0.00    -0.200 A  
HETATM    7  C   UNL     1      -9.994   3.784  71.803  1.00  0.00    -0.227 A  
HETATM    8  C   UNL     1      -9.759   4.983  71.157  1.00  0.00    -0.241 A  
HETATM    9  C   UNL     1     -10.244   6.211  71.618  1.00  0.00    -0.235 A  
HETATM   10  C   UNL     1      -9.839   7.293  70.670  1.00  0.00    -0.179 C  
HETATM   11  N   UNL     1      -9.027   6.581  69.692  1.00  0.00    -0.141 N  
HETATM   12  O   UNL     1      -8.488   4.350  69.243  1.00  0.00    -0.076 OA 
HETATM   13  C   UNL     1      -9.014   5.215  69.917  1.00  0.00    -0.107 C  
ENDROOT
BRANCH  11  14
HETATM   14  C   UNL     1      -8.497   7.179  68.473  1.00  0.00    -0.125 C  
HETATM   15  C   UNL     1      -9.070   6.550  67.208  1.00  0.00    -0.117 C  
HETATM   16  C   UNL     1      -8.637   7.383  66.009  1.00  0.00    -0.162 C  
HETATM   17  C   UNL     1      -7.133   7.535  65.952  1.00  0.00    -0.065 C  
HETATM   18  O   UNL     1      -6.529   7.655  64.890  1.00  0.00    -0.041 OA 
HETATM   19  N   UNL     1      -6.465   7.555  67.151  1.00  0.00    -0.059 N  
HETATM   20  C   UNL     1      -6.965   7.146  68.370  1.00  0.00    -0.076 C  
HETATM   21  H   UNL     1      -5.507   7.905  67.139  1.00  0.00     0.000 HD 
HETATM   22  O   UNL     1      -6.209   6.773  69.262  1.00  0.00    -0.025 OA 
ENDBRANCH  11  14
TORSDOF 1
ENDMDL
MODEL      185
REMARK 921   NORMALIZED FREE ENERGY PREDICTED BY IDOCK:   -2.75 KCAL/MOL
REMARK 922        TOTAL FREE ENERGY PREDICTED BY IDOCK:   -3.25 KCAL/MOL
REMARK 923 INTER-LIGAND FREE ENERGY PREDICTED BY IDOCK:   -3.26 KCAL/MOL
REMARK 924 INTRA-LIGAND FREE ENERGY PREDICTED BY IDOCK:    0.01 KCAL/MOL
REMARK 927      BINDING AFFINITY PREDICTED BY RF-SCORE:    0.00 PKD
ROOT
HETATM    1  N   UNL     1      -8.170   4.965  72.471  1.00  0.00    -0.114 NA 
HETATM    2  C   UNL     1      -7.890   5.974  71.549  1.00  0.00    -0.106 A  
HETATM    3  H1  UNL     1      -8.792   4.198  72.214  1.00  0.00     0.000 HD 
HETATM    4  H2  UNL     1      -8.526   5.397  73.324  1.00  0.00     0.000 HD 
HETATM    5  C   UNL     1      -7.033   7.030  71.903  1.00  0.00    -0.065 A  
HETATM    6  C   UNL     1      -6.613   7.995  70.966  1.00  0.00    -0.038 A  
HETATM    7  C   UNL     1      -7.001   7.898  69.634  1.00  0.00    -0.053 A  
HETATM    8  C   UNL     1      -7.796   6.822  69.290  1.00  0.00    -0.110 A  
HETATM    9  C   UNL     1      -8.232   5.865  70.212  1.00  0.00    -0.114 A  
HETATM   10  C   UNL     1      -9.038   4.824  69.504  1.00  0.00    -0.103 C  
HETATM   11  N   UNL     1      -9.081   5.322  68.135  1.00  0.00    -0.109 N  
HETATM   12  O   UNL     1      -8.087   7.067  66.937  1.00  0.00    -0.113 OA 
HETATM   13  C   UNL     1      -8.309   6.458  67.966  1.00  0.00    -0.115 C  
ENDROOT
BRANCH  11  14
HETATM   14  C   UNL     1      -9.649   4.587  67.012  1.00  0.00    -0.190 C  
HETATM   15  C   UNL     1      -8.618   4.258  65.938  1.00  0.00    -0.114 C  
HETATM   16  C   UNL     1      -9.248   3.305  64.930  1.00  0.00    -0.146 C  
HETATM   17  C   UNL     1     -10.526   3.872  64.354  1.00  0.00    -0.224 C  
HETATM   18  O   UNL     1     -10.903   3.608  63.215  1.00  0.00    -0.226 OA 
HETATM   19  N   UNL     1     -11.269   4.687  65.172  1.00  0.00    -0.965 N  
HETATM   20  C   UNL     1     -10.835   5.290  66.334  1.00  0.00    -0.127 C  
HETATM   21  H   UNL     1     -12.234   4.863  64.894  1.00  0.00     0.000 HD 
HETATM   22  O   UNL     1     -11.369   6.316  66.743  1.00  0.00    -0.229 OA 
ENDBRANCH  11  14
TORSDOF 1
ENDMDL
MODEL      186
REMARK 921   NORMALIZED FREE ENERGY PREDICTED BY IDOCK:   -2.72 KCAL/MOL
REMARK 922        TOTAL FREE ENERGY PREDICTED BY IDOCK:   -3.23 KCAL/MOL
REMARK 923 INTER-LIGAND FREE ENERGY PREDICTED BY IDOCK:   -3.68 KCAL/MOL
REMARK 924 INTRA-LIGAND FREE ENERGY PREDICTED BY IDOCK:    0.45 KCAL/MOL
REMARK 927      BINDING AFFINITY PREDICTED BY RF-SCORE:    0.00 PKD
ROOT
HETATM    1  N   UNL     1     -10.536   5.913  72.112  1.00  0.00    -0.201 NA 
HETATM    2  C   UNL     1      -9.462   6.802  72.149  1.00  0.00    -0.139 A  
HETATM    3  H1  UNL     1     -11.381   6.155  71.594  1.00  0.00     0.000 HD 
HETATM    4  H2  UNL     1     -10.799   5.685  73.070  1.00  0.00     0.000 HD 
HETATM    5  C   UNL     1      -8.298   6.468  72.862  1.00  0.00    -0.115 A  
HETATM    6  C   UNL     1      -7.140   7.269  72.816  1.00  0.00    -0.068 A  
HETATM    7  C   UNL     1      -7.100   8.404  72.013  1.00  0.00    -0.107 A  
HETATM    8  C   UNL     1      -8.232   8.687  71.273  1.00  0.00    -0.194 A  
HETATM    9  C   UNL     1      -9.393   7.908  71.319  1.00  0.00    -0.172 A  
HETATM   10  C   UNL     1     -10.406   8.470  70.375  1.00  0.00    -0.202 C  
HETATM   11  N   UNL     1      -9.746   9.664  69.862  1.00  0.00    -0.217 N  
HETATM   12  O   UNL     1      -7.620  10.624  70.027  1.00  0.00    -0.073 OA 
HETATM   13  C   UNL     1      -8.446   9.782  70.323  1.00  0.00    -0.126 C  
ENDROOT
BRANCH  11  14
HETATM   14  C   UNL     1     -10.278  10.503  68.796  1.00  0.00    -0.190 C  
HETATM   15  C   UNL     1      -9.189  11.233  68.018  1.00  0.00    -0.160 C  
HETATM   16  C   UNL     1      -9.818  11.894  66.798  1.00  0.00    -0.214 C  
HETATM   17  C   UNL     1     -10.963  12.803  67.187  1.00  0.00    -0.263 C  
HETATM   18  O   UNL     1     -11.252  13.803  66.537  1.00  0.00    -0.303 OA 
HETATM   19  N   UNL     1     -11.688  12.448  68.298  1.00  0.00    -0.332 N  
HETATM   20  C   UNL     1     -11.306  11.543  69.266  1.00  0.00    -0.288 C  
HETATM   21  H   UNL     1     -12.595  12.897  68.419  1.00  0.00     0.000 HD 
HETATM   22  O   UNL     1     -11.761  11.616  70.404  1.00  0.00    -0.313 OA 
ENDBRANCH  11  14
TORSDOF 1
ENDMDL
MODEL      187
REMARK 921   NORMALIZED FREE ENERGY PREDICTED BY IDOCK:   -2.72 KCAL/MOL
REMARK 922        TOTAL FREE ENERGY PREDICTED BY IDOCK:   -3.22 KCAL/MOL
REMARK 923 INTER-LIGAND FREE ENERGY PREDICTED BY IDOCK:   -2.87 KCAL/MOL
REMARK 924 INTRA-LIGAND FREE ENERGY PREDICTED BY IDOCK:   -0.35 KCAL/MOL
REMARK 927      BINDING AFFINITY PREDICTED BY RF-SCORE:    0.00 PKD
ROOT
HETATM    1  N   UNL     1      -5.958   5.860  65.942  1.00  0.00    -0.027 NA 
HETATM    2  C   UNL     1      -6.482   4.601  66.233  1.00  0.00    -0.041 A  
HETATM    3  H1  UNL     1      -6.413   6.698  66.304  1.00  0.00     0.000 HD 
HETATM    4  H2  UNL     1      -5.876   5.950  64.929  1.00  0.00     0.000 HD 
HETATM    5  C   UNL     1      -5.853   3.447  65.733  1.00  0.00    -0.019 A  
HETATM    6  C   UNL     1      -6.264   2.152  66.111  1.00  0.00    -0.024 A  
HETATM    7  C   UNL     1      -7.285   1.981  67.040  1.00  0.00    -0.052 A  
HETATM    8  C   UNL     1      -7.853   3.125  67.565  1.00  0.00    -0.076 A  
HETATM    9  C   UNL     1      -7.465   4.416  67.190  1.00  0.00    -0.078 A  
HETATM   10  C   UNL     1      -8.251   5.418  67.972  1.00  0.00    -0.099 C  
HETATM   11  N   UNL     1      -9.157   4.584  68.751  1.00  0.00    -0.112 N  
HETATM   12  O   UNL     1      -9.438   2.295  69.139  1.00  0.00    -0.135 OA 
HETATM   13  C   UNL     1      -8.904   3.234  68.581  1.00  0.00    -0.116 C  
ENDROOT
BRANCH  11  14
HETATM   14  C   UNL     1     -10.054   5.088  69.783  1.00  0.00    -0.267 C  
HETATM   15  C   UNL     1     -10.847   6.310  69.333  1.00  0.00    -0.404 C  
HETATM   16  C   UNL     1     -11.906   6.620  70.383  1.00  0.00    -0.407 C  
HETATM   17  C   UNL     1     -11.293   6.799  71.754  1.00  0.00    -0.269 C  
HETATM   18  O   UNL     1     -11.785   7.545  72.596  1.00  0.00    -0.295 OA 
HETATM   19  N   UNL     1     -10.164   6.069  72.030  1.00  0.00    -0.191 N  
HETATM   20  C   UNL     1      -9.357   5.435  71.108  1.00  0.00    -0.150 C  
HETATM   21  H   UNL     1      -9.896   5.986  73.010  1.00  0.00     0.000 HD 
HETATM   22  O   UNL     1      -8.178   5.207  71.362  1.00  0.00    -0.110 OA 
ENDBRANCH  11  14
TORSDOF 1
ENDMDL
MODEL      188
REMARK 921   NORMALIZED FREE ENERGY PREDICTED BY IDOCK:   -2.72 KCAL/MOL
REMARK 922        TOTAL FREE ENERGY PREDICTED BY IDOCK:   -3.22 KCAL/MOL
REMARK 923 INTER-LIGAND FREE ENERGY PREDICTED BY IDOCK:   -2.93 KCAL/MOL
REMARK 924 INTRA-LIGAND FREE ENERGY PREDICTED BY IDOCK:   -0.29 KCAL/MOL
REMARK 927      BINDING AFFINITY PREDICTED BY RF-SCORE:    0.00 PKD
ROOT
HETATM    1  N   UNL     1      -8.957  11.395  63.837  1.00  0.00    -0.411 NA 
HETATM    2  C   UNL     1      -9.495  10.979  65.055  1.00  0.00    -0.233 A  
HETATM    3  H1  UNL     1      -8.704  12.374  63.699  1.00  0.00     0.000 HD 
HETATM    4  H2  UNL     1      -9.594  11.118  63.091  1.00  0.00     0.000 HD 
HETATM    5  C   UNL     1      -9.842   9.631  65.245  1.00  0.00    -0.269 A  
HETATM    6  C   UNL     1     -10.260   9.139  66.498  1.00  0.00    -0.322 A  
HETATM    7  C   UNL     1     -10.293   9.976  67.608  1.00  0.00    -0.272 A  
HETATM    8  C   UNL     1      -9.894  11.285  67.417  1.00  0.00    -0.201 A  
HETATM    9  C   UNL     1      -9.490  11.791  66.178  1.00  0.00    -0.240 A  
HETATM   10  C   UNL     1      -9.090  13.223  66.331  1.00  0.00    -0.046 C  
HETATM   11  N   UNL     1      -9.379  13.492  67.734  1.00  0.00    -0.204 N  
HETATM   12  O   UNL     1     -10.040  12.241  69.595  1.00  0.00     0.683 OA 
HETATM   13  C   UNL     1      -9.791  12.357  68.411  1.00  0.00    -0.198 C  
ENDROOT
BRANCH  11  14
HETATM   14  C   UNL     1      -9.037  14.732  68.419  1.00  0.00    -0.188 C  
HETATM   15  C   UNL     1      -9.067  15.945  67.496  1.00  0.00    -0.204 C  
HETATM   16  C   UNL     1      -8.922  17.205  68.340  1.00  0.00    -0.259 C  
HETATM   17  C   UNL     1      -7.678  17.159  69.198  1.00  0.00    -0.094 C  
HETATM   18  O   UNL     1      -7.066  18.175  69.516  1.00  0.00    -0.097 OA 
HETATM   19  N   UNL     1      -7.268  15.923  69.632  1.00  0.00    -0.165 N  
HETATM   20  C   UNL     1      -7.674  14.705  69.126  1.00  0.00    -0.113 C  
HETATM   21  H   UNL     1      -6.599  15.902  70.401  1.00  0.00     0.000 HD 
HETATM   22  O   UNL     1      -6.960  13.713  69.237  1.00  0.00    -0.098 OA 
ENDBRANCH  11  14
TORSDOF 1
ENDMDL
MODEL      189
REMARK 921   NORMALIZED FREE ENERGY PREDICTED BY IDOCK:   -2.72 KCAL/MOL
REMARK 922        TOTAL FREE ENERGY PREDICTED BY IDOCK:   -3.22 KCAL/MOL
REMARK 923 INTER-LIGAND FREE ENERGY PREDICTED BY IDOCK:   -2.86 KCAL/MOL
REMARK 924 INTRA-LIGAND FREE ENERGY PREDICTED BY IDOCK:   -0.36 KCAL/MOL
REMARK 927      BINDING AFFINITY PREDICTED BY RF-SCORE:    0.00 PKD
ROOT
HETATM    1  N   UNL     1      -9.099  14.034  67.147  1.00  0.00    -0.222 NA 
HETATM    2  C   UNL     1      -8.048  13.669  67.988  1.00  0.00    -0.161 A  
HETATM    3  H1  UNL     1      -9.735  13.321  66.787  1.00  0.00     0.000 HD 
HETATM    4  H2  UNL     1      -8.716  14.553  66.357  1.00  0.00     0.000 HD 
HETATM    5  C   UNL     1      -7.172  14.652  68.483  1.00  0.00    -0.118 A  
HETATM    6  C   UNL     1      -6.182  14.352  69.441  1.00  0.00    -0.113 A  
HETATM    7  C   UNL     1      -6.075  13.069  69.965  1.00  0.00    -0.112 A  
HETATM    8  C   UNL     1      -6.979  12.129  69.510  1.00  0.00     0.113 A  
HETATM    9  C   UNL     1      -7.959  12.407  68.551  1.00  0.00    -0.110 A  
HETATM   10  C   UNL     1      -8.787  11.186  68.317  1.00  0.00    -0.155 C  
HETATM   11  N   UNL     1      -8.142  10.188  69.161  1.00  0.00    -0.123 N  
HETATM   12  O   UNL     1      -6.439  10.175  70.764  1.00  0.00    -0.230 OA 
HETATM   13  C   UNL     1      -7.119  10.729  69.921  1.00  0.00    -0.093 C  
ENDROOT
BRANCH  11  14
HETATM   14  C   UNL     1      -8.659   8.845  69.386  1.00  0.00    -0.133 C  
HETATM   15  C   UNL     1      -9.200   8.199  68.116  1.00  0.00    -0.136 C  
HETATM   16  C   UNL     1      -9.503   6.734  68.402  1.00  0.00    -0.126 C  
HETATM   17  C   UNL     1     -10.442   6.580  69.577  1.00  0.00    -0.222 C  
HETATM   18  O   UNL     1     -11.231   5.643  69.664  1.00  0.00    -0.267 OA 
HETATM   19  N   UNL     1     -10.362   7.530  70.565  1.00  0.00    -0.212 N  
HETATM   20  C   UNL     1      -9.750   8.762  70.464  1.00  0.00    -0.190 C  
HETATM   21  H   UNL     1     -10.796   7.303  71.459  1.00  0.00     0.000 HD 
HETATM   22  O   UNL     1     -10.097   9.693  71.184  1.00  0.00    -0.246 OA 
ENDBRANCH  11  14
TORSDOF 1
ENDMDL
MODEL      190
REMARK 921   NORMALIZED FREE ENERGY PREDICTED BY IDOCK:   -2.58 KCAL/MOL
REMARK 922        TOTAL FREE ENERGY PREDICTED BY IDOCK:   -3.07 KCAL/MOL
REMARK 923 INTER-LIGAND FREE ENERGY PREDICTED BY IDOCK:   -2.71 KCAL/MOL
REMARK 924 INTRA-LIGAND FREE ENERGY PREDICTED BY IDOCK:   -0.36 KCAL/MOL
REMARK 927      BINDING AFFINITY PREDICTED BY RF-SCORE:    0.00 PKD
ROOT
HETATM    1  N   UNL     1      -6.097   7.038  72.826  1.00  0.00    -0.052 NA 
HETATM    2  C   UNL     1      -7.019   6.029  72.549  1.00  0.00    -0.079 A  
HETATM    3  H1  UNL     1      -5.816   7.689  72.092  1.00  0.00     0.000 HD 
HETATM    4  H2  UNL     1      -5.257   6.610  73.216  1.00  0.00     0.000 HD 
HETATM    5  C   UNL     1      -7.406   5.134  73.561  1.00  0.00    -0.091 A  
HETATM    6  C   UNL     1      -8.432   4.188  73.366  1.00  0.00    -0.089 A  
HETATM    7  C   UNL     1      -9.133   4.146  72.166  1.00  0.00    -0.156 A  
HETATM    8  C   UNL     1      -8.780   5.071  71.202  1.00  0.00    -0.141 A  
HETATM    9  C   UNL     1      -7.756   6.007  71.376  1.00  0.00    -0.104 A  
HETATM   10  C   UNL     1      -7.662   6.874  70.162  1.00  0.00    -0.101 C  
HETATM   11  N   UNL     1      -8.661   6.295  69.272  1.00  0.00    -0.123 N  
HETATM   12  O   UNL     1     -10.313   4.648  69.427  1.00  0.00    -0.127 OA 
HETATM   13  C   UNL     1      -9.376   5.277  69.879  1.00  0.00    -0.141 C  
ENDROOT
BRANCH  11  14
HETATM   14  C   UNL     1      -9.051   6.870  67.992  1.00  0.00    -0.120 C  
HETATM   15  C   UNL     1      -7.872   7.455  67.222  1.00  0.00    -0.114 C  
HETATM   16  C   UNL     1      -8.336   7.821  65.819  1.00  0.00    -0.140 C  
HETATM   17  C   UNL     1      -9.527   8.753  65.853  1.00  0.00    -0.208 C  
HETATM   18  O   UNL     1      -9.732   9.583  64.971  1.00  0.00    -0.248 OA 
HETATM   19  N   UNL     1     -10.391   8.618  66.910  1.00  0.00    -0.293 N  
HETATM   20  C   UNL     1     -10.137   7.952  68.091  1.00  0.00    -0.191 C  
HETATM   21  H   UNL     1     -11.309   9.052  66.814  1.00  0.00     0.000 HD 
HETATM   22  O   UNL     1     -10.740   8.249  69.118  1.00  0.00    -0.196 OA 
ENDBRANCH  11  14
TORSDOF 1
ENDMDL
MODEL      191
REMARK 921   NORMALIZED FREE ENERGY PREDICTED BY IDOCK:   -2.56 KCAL/MOL
REMARK 922        TOTAL FREE ENERGY PREDICTED BY IDOCK:   -3.05 KCAL/MOL
REMARK 923 INTER-LIGAND FREE ENERGY PREDICTED BY IDOCK:   -3.06 KCAL/MOL
REMARK 924 INTRA-LIGAND FREE ENERGY PREDICTED BY IDOCK:    0.01 KCAL/MOL
REMARK 927      BINDING AFFINITY PREDICTED BY RF-SCORE:    0.00 PKD
ROOT
HETATM    1  N   UNL     1      -9.627   3.535  70.448  1.00  0.00    -0.186 NA 
HETATM    2  C   UNL     1      -9.991   4.650  71.203  1.00  0.00    -0.195 A  
HETATM    3  H1  UNL     1      -9.160   3.658  69.549  1.00  0.00     0.000 HD 
HETATM    4  H2  UNL     1     -10.455   2.957  70.306  1.00  0.00     0.000 HD 
HETATM    5  C   UNL     1     -10.634   4.480  72.441  1.00  0.00    -0.205 A  
HETATM    6  C   UNL     1     -10.898   5.567  73.299  1.00  0.00    -0.337 A  
HETATM    7  C   UNL     1     -10.479   6.849  72.959  1.00  0.00    -0.291 A  
HETATM    8  C   UNL     1      -9.798   6.991  71.766  1.00  0.00    -0.169 A  
HETATM    9  C   UNL     1      -9.541   5.924  70.898  1.00  0.00    -0.202 A  
HETATM   10  C   UNL     1      -8.757   6.415  69.725  1.00  0.00    -0.138 C  
HETATM   11  N   UNL     1      -8.668   7.849  69.970  1.00  0.00    -0.139 N  
HETATM   12  O   UNL     1      -9.234   9.305  71.710  1.00  0.00    -0.306 OA 
HETATM   13  C   UNL     1      -9.214   8.206  71.191  1.00  0.00    -0.154 C  
ENDROOT
BRANCH  11  14
HETATM   14  C   UNL     1      -7.878   8.772  69.166  1.00  0.00    -0.098 C  
HETATM   15  C   UNL     1      -6.809   9.497  69.976  1.00  0.00    -0.075 C  
HETATM   16  C   UNL     1      -5.901  10.257  69.018  1.00  0.00    -0.037 C  
HETATM   17  C   UNL     1      -6.689  11.191  68.128  1.00  0.00    -0.059 C  
HETATM   18  O   UNL     1      -6.215  12.240  67.700  1.00  0.00    -0.088 OA 
HETATM   19  N   UNL     1      -7.963  10.805  67.795  1.00  0.00    -0.109 N  
HETATM   20  C   UNL     1      -8.709   9.828  68.420  1.00  0.00    -0.120 C  
HETATM   21  H   UNL     1      -8.401  11.286  67.009  1.00  0.00     0.000 HD 
HETATM   22  O   UNL     1      -9.935   9.853  68.377  1.00  0.00    -0.151 OA 
ENDBRANCH  11  14
TORSDOF 1
ENDMDL
MODEL      192
REMARK 921   NORMALIZED FREE ENERGY PREDICTED BY IDOCK:   -2.46 KCAL/MOL
REMARK 922        TOTAL FREE ENERGY PREDICTED BY IDOCK:   -2.95 KCAL/MOL
REMARK 923 INTER-LIGAND FREE ENERGY PREDICTED BY IDOCK:   -3.08 KCAL/MOL
REMARK 924 INTRA-LIGAND FREE ENERGY PREDICTED BY IDOCK:    0.13 KCAL/MOL
REMARK 927      BINDING AFFINITY PREDICTED BY RF-SCORE:    0.00 PKD
ROOT
HETATM    1  N   UNL     1      -9.445  11.928  66.519  1.00  0.00    -0.212 NA 
HETATM    2  C   UNL     1     -10.127  12.448  67.618  1.00  0.00    -0.198 A  
HETATM    3  H1  UNL     1      -8.769  12.505  66.017  1.00  0.00     0.000 HD 
HETATM    4  H2  UNL     1     -10.131  11.579  65.849  1.00  0.00     0.000 HD 
HETATM    5  C   UNL     1     -11.058  11.653  68.308  1.00  0.00    -0.287 A  
HETATM    6  C   UNL     1     -11.668  12.086  69.502  1.00  0.00    -0.408 A  
HETATM    7  C   UNL     1     -11.324  13.311  70.064  1.00  0.00     0.010 A  
HETATM    8  C   UNL     1     -10.366  14.056  69.405  1.00  0.00     0.113 A  
HETATM    9  C   UNL     1      -9.761  13.645  68.213  1.00  0.00    -0.231 A  
HETATM   10  C   UNL     1      -8.749  14.661  67.792  1.00  0.00    -0.171 C  
HETATM   11  N   UNL     1      -8.896  15.703  68.800  1.00  0.00    -0.193 N  
HETATM   12  O   UNL     1     -10.078  15.966  70.800  1.00  0.00     0.376 OA 
HETATM   13  C   UNL     1      -9.791  15.347  69.794  1.00  0.00    -0.227 C  
ENDROOT
BRANCH  11  14
HETATM   14  C   UNL     1      -8.030  16.869  68.908  1.00  0.00    -0.224 C  
HETATM   15  C   UNL     1      -8.494  18.034  68.041  1.00  0.00    -0.263 C  
HETATM   16  C   UNL     1      -7.668  19.265  68.390  1.00  0.00    -0.362 C  
HETATM   17  C   UNL     1      -6.186  18.996  68.255  1.00  0.00    -0.223 C  
HETATM   18  O   UNL     1      -5.388  19.876  67.948  1.00  0.00    -0.186 OA 
HETATM   19  N   UNL     1      -5.761  17.716  68.515  1.00  0.00    -0.160 N  
HETATM   20  C   UNL     1      -6.555  16.590  68.580  1.00  0.00    -0.139 C  
HETATM   21  H   UNL     1      -4.762  17.586  68.674  1.00  0.00     0.000 HD 
HETATM   22  O   UNL     1      -6.082  15.479  68.364  1.00  0.00    -0.096 OA 
ENDBRANCH  11  14
TORSDOF 1
ENDMDL
MODEL      193
REMARK 921   NORMALIZED FREE ENERGY PREDICTED BY IDOCK:   -2.42 KCAL/MOL
REMARK 922        TOTAL FREE ENERGY PREDICTED BY IDOCK:   -2.90 KCAL/MOL
REMARK 923 INTER-LIGAND FREE ENERGY PREDICTED BY IDOCK:   -3.02 KCAL/MOL
REMARK 924 INTRA-LIGAND FREE ENERGY PREDICTED BY IDOCK:    0.12 KCAL/MOL
REMARK 927      BINDING AFFINITY PREDICTED BY RF-SCORE:    0.00 PKD
ROOT
HETATM    1  N   UNL     1     -12.072  15.356  70.463  1.00  0.00    -0.341 NA 
HETATM    2  C   UNL     1     -11.577  15.039  69.198  1.00  0.00    -0.310 A  
HETATM    3  H1  UNL     1     -12.115  14.640  71.188  1.00  0.00     0.000 HD 
HETATM    4  H2  UNL     1     -13.002  15.761  70.354  1.00  0.00     0.000 HD 
HETATM    5  C   UNL     1     -11.519  16.027  68.199  1.00  0.00    -0.250 A  
HETATM    6  C   UNL     1     -10.903  15.790  66.953  1.00  0.00    -0.265 A  
HETATM    7  C   UNL     1     -10.285  14.572  66.693  1.00  0.00    -0.276 A  
HETATM    8  C   UNL     1     -10.301  13.633  67.706  1.00  0.00    -0.241 A  
HETATM    9  C   UNL     1     -10.919  13.848  68.942  1.00  0.00    -0.290 A  
HETATM   10  C   UNL     1     -10.718  12.650  69.814  1.00  0.00     0.660 C  
HETATM   11  N   UNL     1     -10.009  11.726  68.938  1.00  0.00    -0.101 N  
HETATM   12  O   UNL     1      -9.054  11.812  66.805  1.00  0.00    -0.182 OA 
HETATM   13  C   UNL     1      -9.695  12.298  67.717  1.00  0.00    -0.199 C  
ENDROOT
BRANCH  11  14
HETATM   14  C   UNL     1      -9.463  10.445  69.366  1.00  0.00    -0.183 C  
HETATM   15  C   UNL     1      -7.939  10.437  69.409  1.00  0.00    -0.161 C  
HETATM   16  C   UNL     1      -7.475   9.149  70.077  1.00  0.00    -0.077 C  
HETATM   17  C   UNL     1      -8.044   7.929  69.388  1.00  0.00    -0.125 C  
HETATM   18  O   UNL     1      -7.444   6.858  69.357  1.00  0.00    -0.089 OA 
HETATM   19  N   UNL     1      -9.282   8.062  68.810  1.00  0.00    -0.144 N  
HETATM   20  C   UNL     1      -9.922   9.249  68.519  1.00  0.00    -0.175 C  
HETATM   21  H   UNL     1      -9.775   7.202  68.572  1.00  0.00     0.000 HD 
HETATM   22  O   UNL     1     -10.768   9.301  67.631  1.00  0.00    -0.269 OA 
ENDBRANCH  11  14
TORSDOF 1
ENDMDL
MODEL      194
REMARK 921   NORMALIZED FREE ENERGY PREDICTED BY IDOCK:   -2.37 KCAL/MOL
REMARK 922        TOTAL FREE ENERGY PREDICTED BY IDOCK:   -2.85 KCAL/MOL
REMARK 923 INTER-LIGAND FREE ENERGY PREDICTED BY IDOCK:   -3.06 KCAL/MOL
REMARK 924 INTRA-LIGAND FREE ENERGY PREDICTED BY IDOCK:    0.21 KCAL/MOL
REMARK 927      BINDING AFFINITY PREDICTED BY RF-SCORE:    0.00 PKD
ROOT
HETATM    1  N   UNL     1     -12.624  15.830  70.251  1.00  0.00    -0.500 NA 
HETATM    2  C   UNL     1     -11.624  16.198  69.352  1.00  0.00    -0.261 A  
HETATM    3  H1  UNL     1     -12.942  14.861  70.293  1.00  0.00     0.000 HD 
HETATM    4  H2  UNL     1     -13.435  16.429  70.095  1.00  0.00     0.000 HD 
HETATM    5  C   UNL     1     -11.186  17.533  69.295  1.00  0.00     0.984 A  
HETATM    6  C   UNL     1     -10.088  17.924  68.503  1.00  0.00    -0.392 A  
HETATM    7  C   UNL     1      -9.367  16.977  67.783  1.00  0.00    -0.237 A  
HETATM    8  C   UNL     1      -9.773  15.662  67.895  1.00  0.00    -0.211 A  
HETATM    9  C   UNL     1     -10.869  15.260  68.667  1.00  0.00    -0.253 A  
HETATM   10  C   UNL     1     -11.008  13.774  68.597  1.00  0.00    -0.266 C  
HETATM   11  N   UNL     1      -9.954  13.392  67.666  1.00  0.00    -0.225 N  
HETATM   12  O   UNL     1      -8.184  14.467  66.580  1.00  0.00    -0.027 OA 
HETATM   13  C   UNL     1      -9.173  14.471  67.288  1.00  0.00    -0.207 C  
ENDROOT
BRANCH  11  14
HETATM   14  C   UNL     1      -9.588  12.015  67.360  1.00  0.00    -0.176 C  
HETATM   15  C   UNL     1      -8.081  11.812  67.258  1.00  0.00    -0.164 C  
HETATM   16  C   UNL     1      -7.793  10.319  67.165  1.00  0.00    -0.110 C  
HETATM   17  C   UNL     1      -8.544   9.679  66.018  1.00  0.00    -0.132 C  
HETATM   18  O   UNL     1      -8.105   8.706  65.412  1.00  0.00    -0.107 OA 
HETATM   19  N   UNL     1      -9.761  10.224  65.692  1.00  0.00    -0.228 N  
HETATM   20  C   UNL     1     -10.231  11.462  66.079  1.00  0.00    -0.245 C  
HETATM   21  H   UNL     1     -10.377   9.660  65.107  1.00  0.00     0.000 HD 
HETATM   22  O   UNL     1     -11.078  12.046  65.410  1.00  0.00    -0.304 OA 
ENDBRANCH  11  14
TORSDOF 1
ENDMDL
MODEL      195
REMARK 921   NORMALIZED FREE ENERGY PREDICTED BY IDOCK:   -2.27 KCAL/MOL
REMARK 922        TOTAL FREE ENERGY PREDICTED BY IDOCK:   -2.75 KCAL/MOL
REMARK 923 INTER-LIGAND FREE ENERGY PREDICTED BY IDOCK:   -2.79 KCAL/MOL
REMARK 924 INTRA-LIGAND FREE ENERGY PREDICTED BY IDOCK:    0.04 KCAL/MOL
REMARK 927      BINDING AFFINITY PREDICTED BY RF-SCORE:    0.00 PKD
ROOT
HETATM    1  N   UNL     1     -11.073   5.108  72.887  1.00  0.00    -0.279 NA 
HETATM    2  C   UNL     1      -9.739   5.179  72.484  1.00  0.00    -0.151 A  
HETATM    3  H1  UNL     1     -11.818   5.147  72.192  1.00  0.00     0.000 HD 
HETATM    4  H2  UNL     1     -11.240   5.837  73.581  1.00  0.00     0.000 HD 
HETATM    5  C   UNL     1      -8.712   5.125  73.443  1.00  0.00    -0.114 A  
HETATM    6  C   UNL     1      -7.354   5.056  73.075  1.00  0.00    -0.087 A  
HETATM    7  C   UNL     1      -6.989   4.989  71.735  1.00  0.00    -0.057 A  
HETATM    8  C   UNL     1      -8.013   4.985  70.807  1.00  0.00    -0.087 A  
HETATM    9  C   UNL     1      -9.365   5.067  71.156  1.00  0.00    -0.199 A  
HETATM   10  C   UNL     1     -10.202   5.000  69.920  1.00  0.00    -0.270 C  
HETATM   11  N   UNL     1      -9.208   4.954  68.855  1.00  0.00    -0.112 N  
HETATM   12  O   UNL     1      -6.881   4.763  68.721  1.00  0.00    -0.049 OA 
HETATM   13  C   UNL     1      -7.917   4.880  69.348  1.00  0.00    -0.074 C  
ENDROOT
BRANCH  11  14
HETATM   14  C   UNL     1      -9.522   4.750  67.447  1.00  0.00    -0.146 C  
HETATM   15  C   UNL     1      -8.736   3.600  66.827  1.00  0.00    -0.124 C  
HETATM   16  C   UNL     1      -9.292   3.322  65.436  1.00  0.00    -0.140 C  
HETATM   17  C   UNL     1      -9.281   4.564  64.574  1.00  0.00    -0.136 C  
HETATM   18  O   UNL     1      -9.148   4.512  63.355  1.00  0.00    -0.142 OA 
HETATM   19  N   UNL     1      -9.449   5.767  65.215  1.00  0.00    -0.342 N  
HETATM   20  C   UNL     1      -9.318   5.994  66.569  1.00  0.00    -0.152 C  
HETATM   21  H   UNL     1      -9.694   6.568  64.635  1.00  0.00     0.000 HD 
HETATM   22  O   UNL     1      -9.038   7.112  66.991  1.00  0.00    -0.126 OA 
ENDBRANCH  11  14
TORSDOF 1
ENDMDL
MODEL      196
REMARK 921   NORMALIZED FREE ENERGY PREDICTED BY IDOCK:   -1.95 KCAL/MOL
REMARK 922        TOTAL FREE ENERGY PREDICTED BY IDOCK:   -2.40 KCAL/MOL
REMARK 923 INTER-LIGAND FREE ENERGY PREDICTED BY IDOCK:   -2.06 KCAL/MOL
REMARK 924 INTRA-LIGAND FREE ENERGY PREDICTED BY IDOCK:   -0.34 KCAL/MOL
REMARK 927      BINDING AFFINITY PREDICTED BY RF-SCORE:    0.00 PKD
ROOT
HETATM    1  N   UNL     1     -12.452   5.420  72.883  1.00  0.00    -0.355 NA 
HETATM    2  C   UNL     1     -11.479   4.428  72.768  1.00  0.00     0.158 A  
HETATM    3  H1  UNL     1     -12.258   6.365  72.550  1.00  0.00     0.000 HD 
HETATM    4  H2  UNL     1     -12.743   5.476  73.859  1.00  0.00     0.000 HD 
HETATM    5  C   UNL     1     -11.746   3.126  73.227  1.00  0.00     0.104 A  
HETATM    6  C   UNL     1     -10.850   2.061  73.010  1.00  0.00    -0.243 A  
HETATM    7  C   UNL     1      -9.681   2.261  72.282  1.00  0.00    -0.193 A  
HETATM    8  C   UNL     1      -9.461   3.532  71.789  1.00  0.00    -0.212 A  
HETATM    9  C   UNL     1     -10.335   4.602  72.008  1.00  0.00    -0.234 A  
HETATM   10  C   UNL     1      -9.818   5.818  71.308  1.00  0.00    -0.179 C  
HETATM   11  N   UNL     1      -8.551   5.358  70.751  1.00  0.00    -0.126 N  
HETATM   12  O   UNL     1      -7.426   3.317  70.567  1.00  0.00    -0.040 OA 
HETATM   13  C   UNL     1      -8.346   4.006  70.963  1.00  0.00    -0.075 C  
ENDROOT
BRANCH  11  14
HETATM   14  C   UNL     1      -7.714   6.147  69.858  1.00  0.00    -0.100 C  
HETATM   15  C   UNL     1      -7.725   7.634  70.195  1.00  0.00    -0.091 C  
HETATM   16  C   UNL     1      -6.658   8.332  69.362  1.00  0.00    -0.042 C  
HETATM   17  C   UNL     1      -6.847   8.071  67.884  1.00  0.00    -0.073 C  
HETATM   18  O   UNL     1      -6.515   8.887  67.029  1.00  0.00    -0.059 OA 
HETATM   19  N   UNL     1      -7.390   6.861  67.532  1.00  0.00    -0.093 N  
HETATM   20  C   UNL     1      -8.062   5.994  68.369  1.00  0.00    -0.107 C  
HETATM   21  H   UNL     1      -7.288   6.575  66.559  1.00  0.00     0.000 HD 
HETATM   22  O   UNL     1      -8.880   5.198  67.918  1.00  0.00    -0.103 OA 
ENDBRANCH  11  14
TORSDOF 1
ENDMDL
MODEL      197
REMARK 921   NORMALIZED FREE ENERGY PREDICTED BY IDOCK:   -1.90 KCAL/MOL
REMARK 922        TOTAL FREE ENERGY PREDICTED BY IDOCK:   -2.36 KCAL/MOL
REMARK 923 INTER-LIGAND FREE ENERGY PREDICTED BY IDOCK:   -2.37 KCAL/MOL
REMARK 924 INTRA-LIGAND FREE ENERGY PREDICTED BY IDOCK:    0.01 KCAL/MOL
REMARK 927      BINDING AFFINITY PREDICTED BY RF-SCORE:    0.00 PKD
ROOT
HETATM    1  N   UNL     1      -8.291  15.391  68.598  1.00  0.00    -0.157 NA 
HETATM    2  C   UNL     1      -7.352  14.470  69.064  1.00  0.00    -0.132 A  
HETATM    3  H1  UNL     1      -8.880  15.158  67.798  1.00  0.00     0.000 HD 
HETATM    4  H2  UNL     1      -7.811  16.269  68.400  1.00  0.00     0.000 HD 
HETATM    5  C   UNL     1      -6.541  14.791  70.166  1.00  0.00    -0.145 A  
HETATM    6  C   UNL     1      -5.678  13.846  70.755  1.00  0.00    -0.199 A  
HETATM    7  C   UNL     1      -5.642  12.536  70.287  1.00  0.00    -0.155 A  
HETATM    8  C   UNL     1      -6.488  12.222  69.241  1.00  0.00    -0.109 A  
HETATM    9  C   UNL     1      -7.340  13.152  68.637  1.00  0.00    -0.102 A  
HETATM   10  C   UNL     1      -8.138  12.476  67.570  1.00  0.00    -0.176 C  
HETATM   11  N   UNL     1      -7.607  11.119  67.577  1.00  0.00    -0.104 N  
HETATM   12  O   UNL     1      -6.115   9.893  68.896  1.00  0.00    -0.041 OA 
HETATM   13  C   UNL     1      -6.683  10.924  68.589  1.00  0.00    -0.059 C  
ENDROOT
BRANCH  11  14
HETATM   14  C   UNL     1      -8.154  10.019  66.793  1.00  0.00    -0.118 C  
HETATM   15  C   UNL     1      -8.605   8.846  67.655  1.00  0.00    -0.124 C  
HETATM   16  C   UNL     1      -9.361   7.856  66.777  1.00  0.00    -0.232 C  
HETATM   17  C   UNL     1      -8.531   7.420  65.591  1.00  0.00    -0.130 C  
HETATM   18  O   UNL     1      -8.652   6.309  65.083  1.00  0.00    -0.121 OA 
HETATM   19  N   UNL     1      -7.642   8.335  65.084  1.00  0.00    -0.088 N  
HETATM   20  C   UNL     1      -7.202   9.480  65.715  1.00  0.00    -0.097 C  
HETATM   21  H   UNL     1      -7.272   8.151  64.152  1.00  0.00     0.000 HD 
HETATM   22  O   UNL     1      -6.120   9.978  65.421  1.00  0.00    -0.077 OA 
ENDBRANCH  11  14
TORSDOF 1
ENDMDL
MODEL      198
REMARK 921   NORMALIZED FREE ENERGY PREDICTED BY IDOCK:   -1.61 KCAL/MOL
REMARK 922        TOTAL FREE ENERGY PREDICTED BY IDOCK:   -2.05 KCAL/MOL
REMARK 923 INTER-LIGAND FREE ENERGY PREDICTED BY IDOCK:   -1.68 KCAL/MOL
REMARK 924 INTRA-LIGAND FREE ENERGY PREDICTED BY IDOCK:   -0.36 KCAL/MOL
REMARK 927      BINDING AFFINITY PREDICTED BY RF-SCORE:    0.00 PKD
ROOT
HETATM    1  N   UNL     1      -9.145   5.340  72.281  1.00  0.00    -0.138 NA 
HETATM    2  C   UNL     1      -8.150   6.296  72.482  1.00  0.00    -0.103 A  
HETATM    3  H1  UNL     1      -9.722   5.374  71.440  1.00  0.00     0.000 HD 
HETATM    4  H2  UNL     1      -9.760   5.338  73.094  1.00  0.00     0.000 HD 
HETATM    5  C   UNL     1      -7.355   6.249  73.640  1.00  0.00    -0.087 A  
HETATM    6  C   UNL     1      -6.252   7.107  73.822  1.00  0.00    -0.065 A  
HETATM    7  C   UNL     1      -5.885   8.004  72.825  1.00  0.00    -0.049 A  
HETATM    8  C   UNL     1      -6.642   7.998  71.668  1.00  0.00    -0.053 A  
HETATM    9  C   UNL     1      -7.747   7.162  71.479  1.00  0.00    -0.089 A  
HETATM   10  C   UNL     1      -8.309   7.383  70.112  1.00  0.00    -0.136 C  
HETATM   11  N   UNL     1      -7.479   8.461  69.590  1.00  0.00    -0.072 N  
HETATM   12  O   UNL     1      -5.561   9.606  70.280  1.00  0.00    -0.038 OA 
HETATM   13  C   UNL     1      -6.453   8.798  70.455  1.00  0.00    -0.040 C  
ENDROOT
BRANCH  11  14
HETATM   14  C   UNL     1      -7.546   8.959  68.222  1.00  0.00    -0.092 C  
HETATM   15  C   UNL     1      -8.974   9.069  67.701  1.00  0.00    -0.130 C  
HETATM   16  C   UNL     1      -8.953   9.803  66.367  1.00  0.00    -0.176 C  
HETATM   17  C   UNL     1      -8.025   9.133  65.378  1.00  0.00    -0.106 C  
HETATM   18  O   UNL     1      -8.226   9.166  64.168  1.00  0.00    -0.144 OA 
HETATM   19  N   UNL     1      -6.924   8.496  65.894  1.00  0.00    -0.071 N  
HETATM   20  C   UNL     1      -6.733   8.135  67.212  1.00  0.00    -0.066 C  
HETATM   21  H   UNL     1      -6.175   8.267  65.241  1.00  0.00     0.000 HD 
HETATM   22  O   UNL     1      -5.982   7.210  67.504  1.00  0.00    -0.030 OA 
ENDBRANCH  11  14
TORSDOF 1
ENDMDL
MODEL      199
REMARK 921   NORMALIZED FREE ENERGY PREDICTED BY IDOCK:   -1.32 KCAL/MOL
REMARK 922        TOTAL FREE ENERGY PREDICTED BY IDOCK:   -1.74 KCAL/MOL
REMARK 923 INTER-LIGAND FREE ENERGY PREDICTED BY IDOCK:   -2.54 KCAL/MOL
REMARK 924 INTRA-LIGAND FREE ENERGY PREDICTED BY IDOCK:    0.80 KCAL/MOL
REMARK 927      BINDING AFFINITY PREDICTED BY RF-SCORE:    0.00 PKD
ROOT
HETATM    1  N   UNL     1      -7.783  20.366  68.398  1.00  0.00    -0.018 NA 
HETATM    2  C   UNL     1      -8.910  19.568  68.196  1.00  0.00    -0.330 A  
HETATM    3  H1  UNL     1      -6.871  19.932  68.543  1.00  0.00     0.000 HD 
HETATM    4  H2  UNL     1      -7.969  20.996  69.178  1.00  0.00     0.000 HD 
HETATM    5  C   UNL     1     -10.166  20.165  67.996  1.00  0.00    -0.493 A  
HETATM    6  C   UNL     1     -11.305  19.408  67.654  1.00  0.00     0.315 A  
HETATM    7  C   UNL     1     -11.204  18.036  67.455  1.00  0.00     0.338 A  
HETATM    8  C   UNL     1      -9.951  17.472  67.598  1.00  0.00    -0.309 A  
HETATM    9  C   UNL     1      -8.814  18.208  67.950  1.00  0.00    -0.273 A  
HETATM   10  C   UNL     1      -7.626  17.303  67.982  1.00  0.00    -0.197 C  
HETATM   11  N   UNL     1      -8.205  15.996  67.698  1.00  0.00    -0.145 N  
HETATM   12  O   UNL     1     -10.301  15.176  67.065  1.00  0.00    -0.262 OA 
HETATM   13  C   UNL     1      -9.555  16.074  67.406  1.00  0.00    -0.225 C  
ENDROOT
BRANCH  11  14
HETATM   14  C   UNL     1      -7.427  14.782  67.488  1.00  0.00    -0.198 C  
HETATM   15  C   UNL     1      -8.056  13.556  68.140  1.00  0.00    -0.154 C  
HETATM   16  C   UNL     1      -7.303  12.315  67.678  1.00  0.00    -0.127 C  
HETATM   17  C   UNL     1      -5.821  12.428  67.962  1.00  0.00    -0.073 C  
HETATM   18  O   UNL     1      -5.125  11.444  68.198  1.00  0.00    -0.043 OA 
HETATM   19  N   UNL     1      -5.275  13.686  67.925  1.00  0.00    -0.104 N  
HETATM   20  C   UNL     1      -5.969  14.878  67.963  1.00  0.00    -0.148 C  
HETATM   21  H   UNL     1      -4.259  13.747  67.862  1.00  0.00     0.000 HD 
HETATM   22  O   UNL     1      -5.430  15.902  68.373  1.00  0.00    -0.097 OA 
ENDBRANCH  11  14
TORSDOF 1
ENDMDL
MODEL      200
REMARK 921   NORMALIZED FREE ENERGY PREDICTED BY IDOCK:   -0.68 KCAL/MOL
REMARK 922        TOTAL FREE ENERGY PREDICTED BY IDOCK:   -1.06 KCAL/MOL
REMARK 923 INTER-LIGAND FREE ENERGY PREDICTED BY IDOCK:   -0.74 KCAL/MOL
REMARK 924 INTRA-LIGAND FREE ENERGY PREDICTED BY IDOCK:   -0.32 KCAL/MOL
REMARK 927      BINDING AFFINITY PREDICTED BY RF-SCORE:    0.00 PKD
ROOT
HETATM    1  N   UNL     1      -7.486  14.886  70.680  1.00  0.00     0.155 NA 
HETATM    2  C   UNL     1      -6.845  14.769  69.447  1.00  0.00    -0.162 A  
HETATM    3  H1  UNL     1      -8.141  14.165  70.985  1.00  0.00     0.000 HD 
HETATM    4  H2  UNL     1      -7.962  15.787  70.712  1.00  0.00     0.000 HD 
HETATM    5  C   UNL     1      -5.943  15.762  69.028  1.00  0.00    -0.108 A  
HETATM    6  C   UNL     1      -5.171  15.621  67.857  1.00  0.00    -0.139 A  
HETATM    7  C   UNL     1      -5.245  14.457  67.101  1.00  0.00     0.908 A  
HETATM    8  C   UNL     1      -6.093  13.466  67.557  1.00  0.00    -0.074 A  
HETATM    9  C   UNL     1      -6.875  13.597  68.709  1.00  0.00    -0.107 A  
HETATM   10  C   UNL     1      -7.642  12.334  68.936  1.00  0.00     0.021 C  
HETATM   11  N   UNL     1      -7.284  11.525  67.778  1.00  0.00    -0.089 N  
HETATM   12  O   UNL     1      -5.780  11.693  65.996  1.00  0.00    -0.177 OA 
HETATM   13  C   UNL     1      -6.329  12.137  66.986  1.00  0.00    -0.095 C  
ENDROOT
BRANCH  11  14
HETATM   14  C   UNL     1      -7.678  10.134  67.596  1.00  0.00    -0.091 C  
HETATM   15  C   UNL     1      -9.180   9.919  67.746  1.00  0.00    -0.141 C  
HETATM   16  C   UNL     1      -9.516   8.497  67.319  1.00  0.00    -0.199 C  
HETATM   17  C   UNL     1      -8.705   7.479  68.088  1.00  0.00    -0.122 C  
HETATM   18  O   UNL     1      -9.133   6.355  68.337  1.00  0.00    -0.121 OA 
HETATM   19  N   UNL     1      -7.446   7.858  68.484  1.00  0.00    -0.094 N  
HETATM   20  C   UNL     1      -6.961   9.149  68.531  1.00  0.00    -0.067 C  
HETATM   21  H   UNL     1      -6.809   7.116  68.771  1.00  0.00     0.000 HD 
HETATM   22  O   UNL     1      -6.043   9.444  69.291  1.00  0.00    -0.037 OA 
ENDBRANCH  11  14
TORSDOF 1
ENDMDL
MODEL      201
REMARK 921   NORMALIZED FREE ENERGY PREDICTED BY IDOCK:   -0.02 KCAL/MOL
REMARK 922        TOTAL FREE ENERGY PREDICTED BY IDOCK:   -0.37 KCAL/MOL
REMARK 923 INTER-LIGAND FREE ENERGY PREDICTED BY IDOCK:   -0.48 KCAL/MOL
REMARK 924 INTRA-LIGAND FREE ENERGY PREDICTED BY IDOCK:    0.11 KCAL/MOL
REMARK 927      BINDING AFFINITY PREDICTED BY RF-SCORE:    0.00 PKD
ROOT
HETATM    1  N   UNL     1      -7.356  14.593  71.304  1.00  0.00     1.098 NA 
HETATM    2  C   UNL     1      -6.744  14.687  70.054  1.00  0.00    -0.135 A  
HETATM    3  H1  UNL     1      -7.826  13.730  71.578  1.00  0.00     0.000 HD 
HETATM    4  H2  UNL     1      -8.017  15.364  71.399  1.00  0.00     0.000 HD 
HETATM    5  C   UNL     1      -6.097  15.877  69.677  1.00  0.00    -0.167 A  
HETATM    6  C   UNL     1      -5.351  15.973  68.486  1.00  0.00    -0.097 A  
HETATM    7  C   UNL     1      -5.191  14.864  67.663  1.00  0.00     0.059 A  
HETATM    8  C   UNL     1      -5.785  13.687  68.076  1.00  0.00    -0.129 A  
HETATM    9  C   UNL     1      -6.540  13.579  69.249  1.00  0.00    -0.103 A  
HETATM   10  C   UNL     1      -7.004  12.168  69.414  1.00  0.00     0.043 C  
HETATM   11  N   UNL     1      -6.514  11.521  68.203  1.00  0.00    -0.052 N  
HETATM   12  O   UNL     1      -5.141  12.114  66.406  1.00  0.00    -0.320 OA 
HETATM   13  C   UNL     1      -5.742  12.372  67.431  1.00  0.00    -0.134 C  
ENDROOT
BRANCH  11  14
HETATM   14  C   UNL     1      -6.598  10.089  67.947  1.00  0.00    -0.063 C  
HETATM   15  C   UNL     1      -5.287   9.502  67.437  1.00  0.00    -0.036 C  
HETATM   16  C   UNL     1      -5.406   7.983  67.416  1.00  0.00    -0.033 C  
HETATM   17  C   UNL     1      -6.599   7.531  66.605  1.00  0.00    -0.054 C  
HETATM   18  O   UNL     1      -6.610   6.462  66.000  1.00  0.00    -0.045 OA 
HETATM   19  N   UNL     1      -7.691   8.363  66.588  1.00  0.00    -0.089 N  
HETATM   20  C   UNL     1      -7.711   9.689  66.967  1.00  0.00    -0.095 C  
HETATM   21  H   UNL     1      -8.571   7.962  66.266  1.00  0.00     0.000 HD 
HETATM   22  O   UNL     1      -8.556  10.455  66.514  1.00  0.00    -0.127 OA 
ENDBRANCH  11  14
TORSDOF 1
ENDMDL
MODEL      202
REMARK 921   NORMALIZED FREE ENERGY PREDICTED BY IDOCK:    0.17 KCAL/MOL
REMARK 922        TOTAL FREE ENERGY PREDICTED BY IDOCK:   -0.17 KCAL/MOL
REMARK 923 INTER-LIGAND FREE ENERGY PREDICTED BY IDOCK:   -2.37 KCAL/MOL
REMARK 924 INTRA-LIGAND FREE ENERGY PREDICTED BY IDOCK:    2.20 KCAL/MOL
REMARK 927      BINDING AFFINITY PREDICTED BY RF-SCORE:    0.00 PKD
ROOT
HETATM    1  N   UNL     1     -12.385  12.440  68.353  1.00  0.00    -0.024 NA 
HETATM    2  C   UNL     1     -11.767  13.103  67.293  1.00  0.00    -0.374 A  
HETATM    3  H1  UNL     1     -11.873  12.281  69.222  1.00  0.00     0.000 HD 
HETATM    4  H2  UNL     1     -12.733  11.544  68.015  1.00  0.00     0.000 HD 
HETATM    5  C   UNL     1     -12.472  13.324  66.097  1.00  0.00    -0.335 A  
HETATM    6  C   UNL     1     -11.940  14.105  65.052  1.00  0.00    -0.412 A  
HETATM    7  C   UNL     1     -10.706  14.729  65.197  1.00  0.00    -0.433 A  
HETATM    8  C   UNL     1     -10.052  14.550  66.401  1.00  0.00    -0.293 A  
HETATM    9  C   UNL     1     -10.561  13.767  67.442  1.00  0.00    -0.260 A  
HETATM   10  C   UNL     1      -9.625  13.818  68.606  1.00  0.00    -0.121 C  
HETATM   11  N   UNL     1      -8.522  14.625  68.101  1.00  0.00    -0.149 N  
HETATM   12  O   UNL     1      -8.084  15.875  66.174  1.00  0.00    -0.170 OA 
HETATM   13  C   UNL     1      -8.773  15.121  66.834  1.00  0.00    -0.259 C  
ENDROOT
BRANCH  11  14
HETATM   14  C   UNL     1      -7.399  15.079  68.911  1.00  0.00    -0.139 C  
HETATM   15  C   UNL     1      -7.654  14.936  70.408  1.00  0.00     0.687 C  
HETATM   16  C   UNL     1      -6.356  15.218  71.154  1.00  0.00     0.617 C  
HETATM   17  C   UNL     1      -5.787  16.570  70.788  1.00  0.00     0.268 C  
HETATM   18  O   UNL     1      -5.126  17.236  71.580  1.00  0.00    -0.435 OA 
HETATM   19  N   UNL     1      -6.024  17.020  69.513  1.00  0.00    -0.204 N  
HETATM   20  C   UNL     1      -6.970  16.528  68.638  1.00  0.00    -0.167 C  
HETATM   21  H   UNL     1      -5.445  17.791  69.181  1.00  0.00     0.000 HD 
HETATM   22  O   UNL     1      -7.419  17.236  67.742  1.00  0.00    -0.170 OA 
ENDBRANCH  11  14
TORSDOF 1
ENDMDL
MODEL      203
REMARK 921   NORMALIZED FREE ENERGY PREDICTED BY IDOCK:    0.65 KCAL/MOL
REMARK 922        TOTAL FREE ENERGY PREDICTED BY IDOCK:    0.34 KCAL/MOL
REMARK 923 INTER-LIGAND FREE ENERGY PREDICTED BY IDOCK:   -0.04 KCAL/MOL
REMARK 924 INTRA-LIGAND FREE ENERGY PREDICTED BY IDOCK:    0.39 KCAL/MOL
REMARK 927      BINDING AFFINITY PREDICTED BY RF-SCORE:    0.00 PKD
ROOT
HETATM    1  N   UNL     1     -12.374   8.106  69.520  1.00  0.00     1.259 NA 
HETATM    2  C   UNL     1     -11.309   7.793  68.675  1.00  0.00     0.688 A  
HETATM    3  H1  UNL     1     -12.339   8.951  70.092  1.00  0.00     0.000 HD 
HETATM    4  H2  UNL     1     -12.546   7.309  70.132  1.00  0.00     0.000 HD 
HETATM    5  C   UNL     1     -11.357   6.629  67.887  1.00  0.00    -0.065 A  
HETATM    6  C   UNL     1     -10.372   6.343  66.921  1.00  0.00    -0.306 A  
HETATM    7  C   UNL     1      -9.336   7.240  66.684  1.00  0.00    -0.215 A  
HETATM    8  C   UNL     1      -9.335   8.406  67.426  1.00  0.00    -0.178 A  
HETATM    9  C   UNL     1     -10.299   8.698  68.397  1.00  0.00    -0.239 A  
HETATM   10  C   UNL     1     -10.024  10.047  68.979  1.00  0.00    -0.196 C  
HETATM   11  N   UNL     1      -8.791  10.444  68.313  1.00  0.00    -0.131 N  
HETATM   12  O   UNL     1      -7.458   9.608  66.584  1.00  0.00    -0.093 OA 
HETATM   13  C   UNL     1      -8.398   9.530  67.350  1.00  0.00    -0.125 C  
ENDROOT
BRANCH  11  14
HETATM   14  C   UNL     1      -8.174  11.757  68.444  1.00  0.00    -0.154 C  
HETATM   15  C   UNL     1      -7.420  12.185  67.190  1.00  0.00    -0.129 C  
HETATM   16  C   UNL     1      -7.009  13.644  67.339  1.00  0.00    -0.075 C  
HETATM   17  C   UNL     1      -6.209  13.870  68.603  1.00  0.00    -0.089 C  
HETATM   18  O   UNL     1      -5.347  14.741  68.683  1.00  0.00    -0.086 OA 
HETATM   19  N   UNL     1      -6.504  13.067  69.677  1.00  0.00    -0.273 N  
HETATM   20  C   UNL     1      -7.219  11.888  69.641  1.00  0.00     0.331 C  
HETATM   21  H   UNL     1      -6.162  13.370  70.588  1.00  0.00     0.000 HD 
HETATM   22  O   UNL     1      -7.057  11.032  70.505  1.00  0.00     0.032 OA 
ENDBRANCH  11  14
TORSDOF 1
ENDMDL
MODEL      204
REMARK 921   NORMALIZED FREE ENERGY PREDICTED BY IDOCK:    0.96 KCAL/MOL
REMARK 922        TOTAL FREE ENERGY PREDICTED BY IDOCK:    0.67 KCAL/MOL
REMARK 923 INTER-LIGAND FREE ENERGY PREDICTED BY IDOCK:    0.66 KCAL/MOL
REMARK 924 INTRA-LIGAND FREE ENERGY PREDICTED BY IDOCK:    0.01 KCAL/MOL
REMARK 927      BINDING AFFINITY PREDICTED BY RF-SCORE:    0.00 PKD
ROOT
HETATM    1  N   UNL     1      -8.062  10.988  70.219  1.00  0.00     0.414 NA 
HETATM    2  C   UNL     1      -7.039  11.343  69.340  1.00  0.00    -0.065 A  
HETATM    3  H1  UNL     1      -8.708  11.698  70.564  1.00  0.00     0.000 HD 
HETATM    4  H2  UNL     1      -7.649  10.510  71.020  1.00  0.00     0.000 HD 
HETATM    5  C   UNL     1      -6.151  10.363  68.864  1.00  0.00    -0.040 A  
HETATM    6  C   UNL     1      -5.190  10.647  67.873  1.00  0.00    -0.036 A  
HETATM    7  C   UNL     1      -5.126  11.911  67.295  1.00  0.00    -0.096 A  
HETATM    8  C   UNL     1      -6.044  12.846  67.733  1.00  0.00    -0.143 A  
HETATM    9  C   UNL     1      -6.994  12.583  68.725  1.00  0.00    -0.094 A  
HETATM   10  C   UNL     1      -7.848  13.793  68.930  1.00  0.00     0.005 C  
HETATM   11  N   UNL     1      -7.246  14.771  68.032  1.00  0.00    -0.122 N  
HETATM   12  O   UNL     1      -5.581  14.761  66.391  1.00  0.00     2.157 OA 
HETATM   13  C   UNL     1      -6.227  14.225  67.271  1.00  0.00     0.459 C  
ENDROOT
BRANCH  11  14
HETATM   14  C   UNL     1      -7.802  16.091  67.766  1.00  0.00    -0.140 C  
HETATM   15  C   UNL     1      -8.199  16.283  66.307  1.00  0.00    -0.312 C  
HETATM   16  C   UNL     1      -8.969  17.591  66.177  1.00  0.00    -0.156 C  
HETATM   17  C   UNL     1      -8.176  18.758  66.722  1.00  0.00    -0.278 C  
HETATM   18  O   UNL     1      -8.295  19.895  66.272  1.00  0.00    -0.344 OA 
HETATM   19  N   UNL     1      -7.323  18.498  67.766  1.00  0.00    -0.226 N  
HETATM   20  C   UNL     1      -6.881  17.254  68.166  1.00  0.00    -0.182 C  
HETATM   21  H   UNL     1      -6.984  19.300  68.296  1.00  0.00     0.000 HD 
HETATM   22  O   UNL     1      -5.820  17.133  68.770  1.00  0.00    -0.142 OA 
ENDBRANCH  11  14
TORSDOF 1
ENDMDL
MODEL      205
REMARK 921   NORMALIZED FREE ENERGY PREDICTED BY IDOCK:    1.02 KCAL/MOL
REMARK 922        TOTAL FREE ENERGY PREDICTED BY IDOCK:    0.74 KCAL/MOL
REMARK 923 INTER-LIGAND FREE ENERGY PREDICTED BY IDOCK:    0.73 KCAL/MOL
REMARK 924 INTRA-LIGAND FREE ENERGY PREDICTED BY IDOCK:    0.01 KCAL/MOL
REMARK 927      BINDING AFFINITY PREDICTED BY RF-SCORE:    0.00 PKD
ROOT
HETATM    1  N   UNL     1      -7.307  15.041  71.250  1.00  0.00     1.079 NA 
HETATM    2  C   UNL     1      -7.316  15.001  69.855  1.00  0.00    -0.060 A  
HETATM    3  H1  UNL     1      -7.821  14.339  71.783  1.00  0.00     0.000 HD 
HETATM    4  H2  UNL     1      -7.618  15.965  71.548  1.00  0.00     0.000 HD 
HETATM    5  C   UNL     1      -6.608  15.968  69.121  1.00  0.00    -0.164 A  
HETATM    6  C   UNL     1      -6.475  15.889  67.720  1.00  0.00    -0.177 A  
HETATM    7  C   UNL     1      -7.008  14.811  67.022  1.00  0.00     0.447 A  
HETATM    8  C   UNL     1      -7.652  13.840  67.764  1.00  0.00    -0.173 A  
HETATM    9  C   UNL     1      -7.803  13.911  69.153  1.00  0.00     0.151 A  
HETATM   10  C   UNL     1      -8.509  12.687  69.640  1.00  0.00     1.902 C  
HETATM   11  N   UNL     1      -8.807  11.971  68.406  1.00  0.00    -0.173 N  
HETATM   12  O   UNL     1      -8.275  12.210  66.141  1.00  0.00     0.161 OA 
HETATM   13  C   UNL     1      -8.260  12.592  67.296  1.00  0.00    -0.184 C  
ENDROOT
BRANCH  11  14
HETATM   14  C   UNL     1      -9.383  10.634  68.351  1.00  0.00    -0.163 C  
HETATM   15  C   UNL     1      -8.504   9.641  67.600  1.00  0.00    -0.125 C  
HETATM   16  C   UNL     1      -9.072   8.241  67.791  1.00  0.00    -0.138 C  
HETATM   17  C   UNL     1     -10.522   8.168  67.368  1.00  0.00    -0.285 C  
HETATM   18  O   UNL     1     -11.020   7.140  66.918  1.00  0.00    -0.363 OA 
HETATM   19  N   UNL     1     -11.275   9.305  67.530  1.00  0.00    -0.311 N  
HETATM   20  C   UNL     1     -10.792  10.580  67.740  1.00  0.00    -0.294 C  
HETATM   21  H   UNL     1     -12.288   9.197  67.491  1.00  0.00     0.000 HD 
HETATM   22  O   UNL     1     -11.460  11.561  67.429  1.00  0.00    -0.403 OA 
ENDBRANCH  11  14
TORSDOF 1
ENDMDL
MODEL      206
REMARK 921   NORMALIZED FREE ENERGY PREDICTED BY IDOCK:    1.46 KCAL/MOL
REMARK 922        TOTAL FREE ENERGY PREDICTED BY IDOCK:    1.20 KCAL/MOL
REMARK 923 INTER-LIGAND FREE ENERGY PREDICTED BY IDOCK:    0.47 KCAL/MOL
REMARK 924 INTRA-LIGAND FREE ENERGY PREDICTED BY IDOCK:    0.73 KCAL/MOL
REMARK 927      BINDING AFFINITY PREDICTED BY RF-SCORE:    0.00 PKD
ROOT
HETATM    1  N   UNL     1      -9.854  12.763  65.003  1.00  0.00    -0.493 NA 
HETATM    2  C   UNL     1      -8.891  12.087  65.752  1.00  0.00     0.190 A  
HETATM    3  H1  UNL     1     -10.369  12.271  64.273  1.00  0.00     0.000 HD 
HETATM    4  H2  UNL     1      -9.421  13.589  64.591  1.00  0.00     0.000 HD 
HETATM    5  C   UNL     1      -8.181  12.765  66.759  1.00  0.00     0.058 A  
HETATM    6  C   UNL     1      -7.300  12.094  67.630  1.00  0.00    -0.122 A  
HETATM    7  C   UNL     1      -7.144  10.714  67.548  1.00  0.00    -0.089 A  
HETATM    8  C   UNL     1      -7.892  10.055  66.592  1.00  0.00    -0.111 A  
HETATM    9  C   UNL     1      -8.760  10.709  65.712  1.00  0.00    -0.192 A  
HETATM   10  C   UNL     1      -9.435   9.701  64.839  1.00  0.00    -0.220 C  
HETATM   11  N   UNL     1      -8.816   8.447  65.250  1.00  0.00    -0.123 N  
HETATM   12  O   UNL     1      -7.341   7.760  66.930  1.00  0.00    -0.086 OA 
HETATM   13  C   UNL     1      -7.954   8.616  66.320  1.00  0.00    -0.102 C  
ENDROOT
BRANCH  11  14
HETATM   14  C   UNL     1      -9.232   7.133  64.779  1.00  0.00     1.201 C  
HETATM   15  C   UNL     1      -8.554   5.993  65.531  1.00  0.00    -0.145 C  
HETATM   16  C   UNL     1      -9.215   4.681  65.129  1.00  0.00    -0.156 C  
HETATM   17  C   UNL     1      -9.190   4.483  63.630  1.00  0.00    -0.086 C  
HETATM   18  O   UNL     1      -9.141   3.367  63.119  1.00  0.00    -0.092 OA 
HETATM   19  N   UNL     1      -9.249   5.613  62.853  1.00  0.00    -0.140 N  
HETATM   20  C   UNL     1      -9.017   6.905  63.275  1.00  0.00     1.217 C  
HETATM   21  H   UNL     1      -9.486   5.485  61.870  1.00  0.00     0.000 HD 
HETATM   22  O   UNL     1      -8.647   7.765  62.481  1.00  0.00    -0.036 OA 
ENDBRANCH  11  14
TORSDOF 1
ENDMDL
MODEL      207
REMARK 921   NORMALIZED FREE ENERGY PREDICTED BY IDOCK:   10.40 KCAL/MOL
REMARK 922        TOTAL FREE ENERGY PREDICTED BY IDOCK:   10.66 KCAL/MOL
REMARK 923 INTER-LIGAND FREE ENERGY PREDICTED BY IDOCK:   10.71 KCAL/MOL
REMARK 924 INTRA-LIGAND FREE ENERGY PREDICTED BY IDOCK:   -0.04 KCAL/MOL
REMARK 927      BINDING AFFINITY PREDICTED BY RF-SCORE:    0.00 PKD
ROOT
HETATM    1  N   UNL     1      -8.606  11.695  71.272  1.00  0.00     8.152 NA 
HETATM    2  C   UNL     1      -7.776  11.123  70.308  1.00  0.00     1.561 A  
HETATM    3  H1  UNL     1      -8.784  12.699  71.261  1.00  0.00     0.000 HD 
HETATM    4  H2  UNL     1      -8.252  11.441  72.194  1.00  0.00     0.000 HD 
HETATM    5  C   UNL     1      -7.531   9.739  70.324  1.00  0.00    -0.173 A  
HETATM    6  C   UNL     1      -6.813   9.098  69.295  1.00  0.00    -0.049 A  
HETATM    7  C   UNL     1      -6.364   9.820  68.194  1.00  0.00    -0.055 A  
HETATM    8  C   UNL     1      -6.663  11.168  68.165  1.00  0.00    -0.059 A  
HETATM    9  C   UNL     1      -7.363  11.821  69.185  1.00  0.00    -0.005 A  
HETATM   10  C   UNL     1      -7.547  13.258  68.821  1.00  0.00    -0.043 C  
HETATM   11  N   UNL     1      -6.827  13.369  67.558  1.00  0.00    -0.164 N  
HETATM   12  O   UNL     1      -5.777  11.897  66.076  1.00  0.00    -0.011 OA 
HETATM   13  C   UNL     1      -6.353  12.145  67.118  1.00  0.00    -0.139 C  
ENDROOT
BRANCH  11  14
HETATM   14  C   UNL     1      -6.819  14.560  66.720  1.00  0.00     1.480 C  
HETATM   15  C   UNL     1      -5.927  15.666  67.272  1.00  0.00     0.065 C  
HETATM   16  C   UNL     1      -5.806  16.766  66.226  1.00  0.00     0.413 C  
HETATM   17  C   UNL     1      -7.163  17.275  65.795  1.00  0.00     0.193 C  
HETATM   18  O   UNL     1      -7.340  18.434  65.429  1.00  0.00    -0.521 OA 
HETATM   19  N   UNL     1      -8.198  16.374  65.810  1.00  0.00     0.225 N  
HETATM   20  C   UNL     1      -8.210  15.156  66.458  1.00  0.00     0.075 C  
HETATM   21  H   UNL     1      -9.039  16.628  65.292  1.00  0.00     0.000 HD 
HETATM   22  O   UNL     1      -9.270  14.641  66.800  1.00  0.00    -0.238 OA 
ENDBRANCH  11  14
TORSDOF 1
ENDMDL
MODEL      208
REMARK 921   NORMALIZED FREE ENERGY PREDICTED BY IDOCK:   12.74 KCAL/MOL
REMARK 922        TOTAL FREE ENERGY PREDICTED BY IDOCK:   13.14 KCAL/MOL
REMARK 923 INTER-LIGAND FREE ENERGY PREDICTED BY IDOCK:   13.23 KCAL/MOL
REMARK 924 INTRA-LIGAND FREE ENERGY PREDICTED BY IDOCK:   -0.09 KCAL/MOL
REMARK 927      BINDING AFFINITY PREDICTED BY RF-SCORE:    0.00 PKD
ROOT
HETATM    1  N   UNL     1      -7.472  13.332  73.099  1.00  0.00     6.886 NA 
HETATM    2  C   UNL     1      -6.685  12.857  72.050  1.00  0.00     4.761 A  
HETATM    3  H1  UNL     1      -7.744  14.315  73.128  1.00  0.00     0.000 HD 
HETATM    4  H2  UNL     1      -7.012  13.098  73.979  1.00  0.00     0.000 HD 
HETATM    5  C   UNL     1      -6.311  11.502  72.010  1.00  0.00     3.178 A  
HETATM    6  C   UNL     1      -5.635  10.949  70.904  1.00  0.00    -0.089 A  
HETATM    7  C   UNL     1      -5.359  11.727  69.786  1.00  0.00    -0.075 A  
HETATM    8  C   UNL     1      -5.784  13.042  69.817  1.00  0.00    -0.114 A  
HETATM    9  C   UNL     1      -6.444  13.609  70.912  1.00  0.00     0.510 A  
HETATM   10  C   UNL     1      -6.794  15.028  70.601  1.00  0.00     0.387 C  
HETATM   11  N   UNL     1      -6.207  15.226  69.282  1.00  0.00    -0.112 N  
HETATM   12  O   UNL     1      -5.165  13.884  67.675  1.00  0.00    -0.293 OA 
HETATM   13  C   UNL     1      -5.664  14.060  68.770  1.00  0.00    -0.085 C  
ENDROOT
BRANCH  11  14
HETATM   14  C   UNL     1      -6.387  16.426  68.475  1.00  0.00    -0.129 C  
HETATM   15  C   UNL     1      -6.765  17.647  69.307  1.00  0.00    -0.221 C  
HETATM   16  C   UNL     1      -6.707  18.882  68.418  1.00  0.00    -0.270 C  
HETATM   17  C   UNL     1      -7.577  18.724  67.191  1.00  0.00    -0.230 C  
HETATM   18  O   UNL     1      -8.119  19.682  66.646  1.00  0.00    -0.279 OA 
HETATM   19  N   UNL     1      -7.721  17.454  66.690  1.00  0.00    -0.233 N  
HETATM   20  C   UNL     1      -7.421  16.279  67.349  1.00  0.00    -0.161 C  
HETATM   21  H   UNL     1      -8.084  17.370  65.741  1.00  0.00     0.000 HD 
HETATM   22  O   UNL     1      -7.978  15.230  67.040  1.00  0.00    -0.204 OA 
ENDBRANCH  11  14
TORSDOF 1
ENDMDL
MODEL      209
REMARK 921   NORMALIZED FREE ENERGY PREDICTED BY IDOCK:   14.37 KCAL/MOL
REMARK 922        TOTAL FREE ENERGY PREDICTED BY IDOCK:   14.87 KCAL/MOL
REMARK 923 INTER-LIGAND FREE ENERGY PREDICTED BY IDOCK:   15.14 KCAL/MOL
REMARK 924 INTRA-LIGAND FREE ENERGY PREDICTED BY IDOCK:   -0.27 KCAL/MOL
REMARK 927      BINDING AFFINITY PREDICTED BY RF-SCORE:    0.00 PKD
ROOT
HETATM    1  N   UNL     1     -10.331  19.012  73.008  1.00  0.00     2.312 NA 
HETATM    2  C   UNL     1     -10.674  17.681  72.772  1.00  0.00     3.742 A  
HETATM    3  H1  UNL     1      -9.669  19.485  72.392  1.00  0.00     0.000 HD 
HETATM    4  H2  UNL     1      -9.995  19.094  73.967  1.00  0.00     0.000 HD 
HETATM    5  C   UNL     1     -11.587  17.030  73.621  1.00  0.00     0.475 A  
HETATM    6  C   UNL     1     -12.067  15.734  73.345  1.00  0.00    -0.596 A  
HETATM    7  C   UNL     1     -11.682  15.073  72.183  1.00  0.00    -0.437 A  
HETATM    8  C   UNL     1     -10.830  15.749  71.331  1.00  0.00     0.105 A  
HETATM    9  C   UNL     1     -10.335  17.030  71.598  1.00  0.00     3.604 A  
HETATM   10  C   UNL     1      -9.476  17.478  70.460  1.00  0.00     3.274 C  
HETATM   11  N   UNL     1      -9.470  16.317  69.580  1.00  0.00    -0.152 N  
HETATM   12  O   UNL     1     -10.568  14.254  69.494  1.00  0.00    -0.149 OA 
HETATM   13  C   UNL     1     -10.307  15.312  70.034  1.00  0.00    -0.221 C  
ENDROOT
BRANCH  11  14
HETATM   14  C   UNL     1      -8.870  16.296  68.253  1.00  0.00    -0.188 C  
HETATM   15  C   UNL     1      -7.677  17.237  68.128  1.00  0.00    -0.217 C  
HETATM   16  C   UNL     1      -6.986  16.979  66.796  1.00  0.00    -0.268 C  
HETATM   17  C   UNL     1      -7.950  17.106  65.637  1.00  0.00     0.633 C  
HETATM   18  O   UNL     1      -7.587  17.479  64.524  1.00  0.00     3.780 OA 
HETATM   19  N   UNL     1      -9.257  16.763  65.875  1.00  0.00    -0.187 N  
HETATM   20  C   UNL     1      -9.849  16.615  67.113  1.00  0.00    -0.257 C  
HETATM   21  H   UNL     1      -9.848  16.603  65.060  1.00  0.00     0.000 HD 
HETATM   22  O   UNL     1     -11.060  16.758  67.247  1.00  0.00    -0.113 OA 
ENDBRANCH  11  14
TORSDOF 1
ENDMDL
MODEL      210
REMARK 921   NORMALIZED FREE ENERGY PREDICTED BY IDOCK:   23.10 KCAL/MOL
REMARK 922        TOTAL FREE ENERGY PREDICTED BY IDOCK:   24.11 KCAL/MOL
REMARK 923 INTER-LIGAND FREE ENERGY PREDICTED BY IDOCK:   24.24 KCAL/MOL
REMARK 924 INTRA-LIGAND FREE ENERGY PREDICTED BY IDOCK:   -0.13 KCAL/MOL
REMARK 927      BINDING AFFINITY PREDICTED BY RF-SCORE:    0.00 PKD
ROOT
HETATM    1  N   UNL     1     -13.054   2.489  70.654  1.00  0.00    16.533 NA 
HETATM    2  C   UNL     1     -12.512   2.586  71.935  1.00  0.00     5.556 A  
HETATM    3  H1  UNL     1     -12.700   3.083  69.904  1.00  0.00     0.000 HD 
HETATM    4  H2  UNL     1     -14.064   2.620  70.719  1.00  0.00     0.000 HD 
HETATM    5  C   UNL     1     -13.001   1.767  72.968  1.00  0.00     0.500 A  
HETATM    6  C   UNL     1     -12.395   1.733  74.240  1.00  0.00     0.755 A  
HETATM    7  C   UNL     1     -11.252   2.482  74.497  1.00  0.00     0.373 A  
HETATM    8  C   UNL     1     -10.751   3.237  73.454  1.00  0.00    -0.299 A  
HETATM    9  C   UNL     1     -11.349   3.292  72.191  1.00  0.00     1.435 A  
HETATM   10  C   UNL     1     -10.534   4.167  71.294  1.00  0.00     0.280 C  
HETATM   11  N   UNL     1      -9.485   4.655  72.180  1.00  0.00    -0.136 N  
HETATM   12  O   UNL     1      -8.784   4.224  74.368  1.00  0.00    -0.095 OA 
HETATM   13  C   UNL     1      -9.550   4.076  73.436  1.00  0.00    -0.114 C  
ENDROOT
BRANCH  11  14
HETATM   14  C   UNL     1      -8.347   5.453  71.743  1.00  0.00    -0.119 C  
HETATM   15  C   UNL     1      -8.742   6.862  71.314  1.00  0.00    -0.134 C  
HETATM   16  C   UNL     1      -7.477   7.680  71.095  1.00  0.00    -0.078 C  
HETATM   17  C   UNL     1      -6.547   7.012  70.108  1.00  0.00    -0.047 C  
HETATM   18  O   UNL     1      -5.795   7.655  69.380  1.00  0.00    -0.026 OA 
HETATM   19  N   UNL     1      -6.560   5.640  70.072  1.00  0.00    -0.041 N  
HETATM   20  C   UNL     1      -7.533   4.820  70.605  1.00  0.00    -0.057 C  
HETATM   21  H   UNL     1      -5.776   5.183  69.608  1.00  0.00     0.000 HD 
HETATM   22  O   UNL     1      -7.712   3.691  70.158  1.00  0.00    -0.047 OA 
ENDBRANCH  11  14
TORSDOF 1
ENDMDL
