MODEL        1
REMARK 921   NORMALIZED FREE ENERGY PREDICTED BY IDOCK:   -6.89 KCAL/MOL
REMARK 922        TOTAL FREE ENERGY PREDICTED BY IDOCK:  -11.65 KCAL/MOL
REMARK 923 INTER-LIGAND FREE ENERGY PREDICTED BY IDOCK:  -10.12 KCAL/MOL
REMARK 924 INTRA-LIGAND FREE ENERGY PREDICTED BY IDOCK:   -1.53 KCAL/MOL
REMARK 927      BINDING AFFINITY PREDICTED BY RF-SCORE:    0.00 PKD
ROOT
HETATM    1  C   UNL     1      -9.829  17.742  68.590  1.00  0.00    -0.359 C  
HETATM    2  O   UNL     1     -10.839  16.936  67.986  1.00  0.00    -0.363 OA 
ENDROOT
BRANCH   2   3
HETATM    3  C   UNL     1     -11.259  15.862  68.726  1.00  0.00    -0.359 A  
HETATM    4  C   UNL     1     -11.419  14.617  68.101  1.00  0.00    -0.346 A  
HETATM    5  N   UNL     1     -12.454  15.228  72.065  1.00  0.00    -0.328 NA 
HETATM    6  C   UNL     1     -11.915  13.525  68.848  1.00  0.00    -0.378 A  
HETATM    7  C   UNL     1     -12.117  14.943  70.806  1.00  0.00    -0.317 A  
HETATM    8  C   UNL     1     -12.279  13.669  70.214  1.00  0.00    -0.423 A  
HETATM    9  C   UNL     1     -13.065  14.276  72.776  1.00  0.00    -0.497 A  
HETATM   10  C   UNL     1     -11.620  15.997  70.067  1.00  0.00    -0.316 A  
HETATM   11  C   UNL     1     -12.837  12.648  71.038  1.00  0.00    -0.166 A  
HETATM   12  C   UNL     1     -13.318  13.013  72.291  1.00  0.00    -0.606 A  
BRANCH   4  13
HETATM   13  C   UNL     1     -11.010  14.432  66.677  1.00  0.00    -0.318 C  
HETATM   14  H2  UNL     1     -12.964  14.682  65.978  1.00  0.00     0.000 HD 
HETATM   15  H1  UNL     1     -11.712  14.381  64.752  1.00  0.00     0.000 HD 
HETATM   16  O   UNL     1      -9.856  14.208  66.338  1.00  0.00    -0.276 OA 
HETATM   17  N   UNL     1     -11.992  14.507  65.725  1.00  0.00    -0.341 N  
ENDBRANCH   4  13
BRANCH  11  18
HETATM   18  O   UNL     1     -12.984  11.390  70.479  1.00  0.00    -0.112 OA 
BRANCH  18  19
HETATM   19  C   UNL     1     -12.417  10.240  71.002  1.00  0.00    -0.384 A  
HETATM   20  C   UNL     1     -13.302   9.385  71.672  1.00  0.00    -0.477 A  
HETATM   21  C   UNL     1     -11.469   8.013  72.513  1.00  0.00    -0.409 A  
HETATM   22  C   UNL     1     -12.837   8.278  72.410  1.00  0.00    -0.261 A  
HETATM   23  C   UNL     1     -10.591   8.855  71.828  1.00  0.00    -0.362 A  
HETATM   24 CL   UNL     1      -8.873   8.613  71.906  1.00  0.00    -0.281 Cl 
HETATM   25  C   UNL     1     -11.061   9.941  71.082  1.00  0.00    -0.359 A  
BRANCH  21  26
HETATM   26  N   UNL     1     -10.915   6.980  73.302  1.00  0.00    -0.495 N  
HETATM   27  H   UNL     1     -10.481   7.264  74.181  1.00  0.00     0.000 HD 
BRANCH  26  28
HETATM   28  C   UNL     1     -10.898   5.643  73.018  1.00  0.00    -0.271 C  
HETATM   29  O   UNL     1     -11.694   4.817  73.452  1.00  0.00    -0.284 OA 
BRANCH  28  30
HETATM   30  N   UNL     1      -9.869   5.290  72.170  1.00  0.00    -0.167 N  
HETATM   31  H   UNL     1      -8.913   5.246  72.523  1.00  0.00     0.000 HD 
BRANCH  30  32
HETATM   32  C   UNL     1     -10.134   4.984  70.801  1.00  0.00    -0.237 C  
HETATM   33  C   UNL     1     -10.993   5.845  69.923  1.00  0.00    -0.444 C  
HETATM   34  C   UNL     1      -9.506   5.835  69.729  1.00  0.00    -0.183 C  
ENDBRANCH  30  32
ENDBRANCH  28  30
ENDBRANCH  26  28
ENDBRANCH  21  26
ENDBRANCH  18  19
ENDBRANCH  11  18
ENDBRANCH   2   3
TORSDOF 8
ENDMDL
MODEL        2
REMARK 921   NORMALIZED FREE ENERGY PREDICTED BY IDOCK:   -6.74 KCAL/MOL
REMARK 922        TOTAL FREE ENERGY PREDICTED BY IDOCK:  -11.42 KCAL/MOL
REMARK 923 INTER-LIGAND FREE ENERGY PREDICTED BY IDOCK:  -10.23 KCAL/MOL
REMARK 924 INTRA-LIGAND FREE ENERGY PREDICTED BY IDOCK:   -1.19 KCAL/MOL
REMARK 927      BINDING AFFINITY PREDICTED BY RF-SCORE:    0.00 PKD
ROOT
HETATM    1  C   UNL     1     -10.479  18.645  65.736  1.00  0.00    -0.256 C  
HETATM    2  O   UNL     1     -10.417  17.240  65.495  1.00  0.00    -0.609 OA 
ENDROOT
BRANCH   2   3
HETATM    3  C   UNL     1     -10.774  16.443  66.551  1.00  0.00    -0.163 A  
HETATM    4  C   UNL     1     -11.336  15.182  66.301  1.00  0.00    -0.219 A  
HETATM    5  N   UNL     1     -10.985  16.704  70.137  1.00  0.00    -0.236 NA 
HETATM    6  C   UNL     1     -11.766  14.388  67.387  1.00  0.00    -0.424 A  
HETATM    7  C   UNL     1     -11.104  16.132  68.938  1.00  0.00    -0.347 A  
HETATM    8  C   UNL     1     -11.663  14.850  68.727  1.00  0.00    -0.353 A  
HETATM    9  C   UNL     1     -11.508  16.064  71.187  1.00  0.00    -0.419 A  
HETATM   10  C   UNL     1     -10.678  16.892  67.868  1.00  0.00    -0.344 A  
HETATM   11  C   UNL     1     -12.115  14.151  69.885  1.00  0.00    -0.347 A  
HETATM   12  C   UNL     1     -12.117  14.833  71.097  1.00  0.00    -0.391 A  
BRANCH   4  13
HETATM   13  C   UNL     1     -11.421  14.660  64.905  1.00  0.00    -0.401 C  
HETATM   14  H2  UNL     1      -9.696  13.501  65.125  1.00  0.00     0.000 HD 
HETATM   15  H1  UNL     1     -10.508  13.428  63.545  1.00  0.00     0.000 HD 
HETATM   16  O   UNL     1     -12.303  14.989  64.123  1.00  0.00    -0.659 OA 
HETATM   17  N   UNL     1     -10.449  13.785  64.498  1.00  0.00    -0.425 N  
ENDBRANCH   4  13
BRANCH  11  18
HETATM   18  O   UNL     1     -12.646  12.887  69.696  1.00  0.00     0.050 OA 
BRANCH  18  19
HETATM   19  C   UNL     1     -12.087  11.728  70.208  1.00  0.00    -0.342 A  
HETATM   20  C   UNL     1     -10.933  11.277  69.554  1.00  0.00    -0.249 A  
HETATM   21  C   UNL     1     -10.959   9.172  70.787  1.00  0.00    -0.270 A  
HETATM   22  C   UNL     1     -10.368  10.019  69.846  1.00  0.00    -0.315 A  
HETATM   23  C   UNL     1     -12.097   9.632  71.451  1.00  0.00    -0.388 A  
HETATM   24 CL   UNL     1     -12.908   8.646  72.627  1.00  0.00    -0.358 Cl 
HETATM   25  C   UNL     1     -12.642  10.889  71.170  1.00  0.00    -0.532 A  
BRANCH  21  26
HETATM   26  N   UNL     1     -10.509   7.864  71.074  1.00  0.00    -0.203 N  
HETATM   27  H   UNL     1      -9.637   7.788  71.599  1.00  0.00     0.000 HD 
BRANCH  26  28
HETATM   28  C   UNL     1     -11.114   6.688  70.725  1.00  0.00    -0.286 C  
HETATM   29  O   UNL     1     -11.252   5.718  71.463  1.00  0.00    -0.253 OA 
BRANCH  28  30
HETATM   30  N   UNL     1     -11.569   6.686  69.423  1.00  0.00    -0.652 N  
HETATM   31  H   UNL     1     -12.463   7.122  69.198  1.00  0.00     0.000 HD 
BRANCH  30  32
HETATM   32  C   UNL     1     -10.797   6.078  68.388  1.00  0.00    -0.281 C  
HETATM   33  C   UNL     1     -10.741   6.614  66.988  1.00  0.00    -0.437 C  
HETATM   34  C   UNL     1      -9.559   6.778  67.895  1.00  0.00    -0.125 C  
ENDBRANCH  30  32
ENDBRANCH  28  30
ENDBRANCH  26  28
ENDBRANCH  21  26
ENDBRANCH  18  19
ENDBRANCH  11  18
ENDBRANCH   2   3
TORSDOF 8
ENDMDL
MODEL        3
REMARK 921   NORMALIZED FREE ENERGY PREDICTED BY IDOCK:   -6.67 KCAL/MOL
REMARK 922        TOTAL FREE ENERGY PREDICTED BY IDOCK:  -11.33 KCAL/MOL
REMARK 923 INTER-LIGAND FREE ENERGY PREDICTED BY IDOCK:  -10.07 KCAL/MOL
REMARK 924 INTRA-LIGAND FREE ENERGY PREDICTED BY IDOCK:   -1.26 KCAL/MOL
REMARK 927      BINDING AFFINITY PREDICTED BY RF-SCORE:    0.00 PKD
ROOT
HETATM    1  C   UNL     1     -12.214  16.276  73.803  1.00  0.00    -0.492 C  
HETATM    2  O   UNL     1     -11.982  14.995  73.219  1.00  0.00    -0.356 OA 
ENDROOT
BRANCH   2   3
HETATM    3  C   UNL     1     -11.991  14.959  71.849  1.00  0.00    -0.359 A  
HETATM    4  C   UNL     1     -12.654  13.912  71.193  1.00  0.00    -0.446 A  
HETATM    5  N   UNL     1     -10.467  16.757  69.125  1.00  0.00    -0.327 NA 
HETATM    6  C   UNL     1     -12.608  13.838  69.783  1.00  0.00    -0.083 A  
HETATM    7  C   UNL     1     -11.215  15.823  69.714  1.00  0.00    -0.330 A  
HETATM    8  C   UNL     1     -11.882  14.790  69.017  1.00  0.00    -0.337 A  
HETATM    9  C   UNL     1     -10.264  16.653  67.809  1.00  0.00    -0.292 A  
HETATM   10  C   UNL     1     -11.279  15.889  71.091  1.00  0.00    -0.360 A  
HETATM   11  C   UNL     1     -11.729  14.773  67.599  1.00  0.00    -0.341 A  
HETATM   12  C   UNL     1     -10.824  15.663  67.032  1.00  0.00    -0.294 A  
BRANCH   4  13
HETATM   13  C   UNL     1     -13.453  12.921  71.974  1.00  0.00    -0.473 C  
HETATM   14  H2  UNL     1     -12.349  11.304  71.243  1.00  0.00     0.000 HD 
HETATM   15  H1  UNL     1     -13.660  10.923  72.381  1.00  0.00     0.000 HD 
HETATM   16  O   UNL     1     -14.387  13.239  72.698  1.00  0.00    -0.679 OA 
HETATM   17  N   UNL     1     -13.115  11.600  71.847  1.00  0.00    -0.455 N  
ENDBRANCH   4  13
BRANCH  11  18
HETATM   18  O   UNL     1     -12.392  13.779  66.900  1.00  0.00    -0.392 OA 
BRANCH  18  19
HETATM   19  C   UNL     1     -11.761  12.706  66.293  1.00  0.00    -0.402 A  
HETATM   20  C   UNL     1     -11.499  11.612  67.128  1.00  0.00    -0.344 A  
HETATM   21  C   UNL     1     -10.127  10.535  65.422  1.00  0.00    -0.291 A  
HETATM   22  C   UNL     1     -10.701  10.533  66.696  1.00  0.00    -0.222 A  
HETATM   23  C   UNL     1     -10.406  11.617  64.586  1.00  0.00    -0.292 A  
HETATM   24 CL   UNL     1      -9.728  11.715  62.990  1.00  0.00    -0.400 Cl 
HETATM   25  C   UNL     1     -11.214  12.676  65.014  1.00  0.00    -0.331 A  
BRANCH  21  26
HETATM   26  N   UNL     1      -9.246   9.539  64.944  1.00  0.00    -0.319 N  
HETATM   27  H   UNL     1      -9.083   9.522  63.937  1.00  0.00     0.000 HD 
BRANCH  26  28
HETATM   28  C   UNL     1      -8.587   8.596  65.684  1.00  0.00    -0.168 C  
HETATM   29  O   UNL     1      -7.624   8.814  66.411  1.00  0.00    -0.089 OA 
BRANCH  28  30
HETATM   30  N   UNL     1      -9.119   7.333  65.536  1.00  0.00    -0.378 N  
HETATM   31  H   UNL     1      -9.231   6.936  64.602  1.00  0.00     0.000 HD 
BRANCH  30  32
HETATM   32  C   UNL     1      -9.514   6.576  66.679  1.00  0.00    -0.159 C  
HETATM   33  C   UNL     1     -10.526   7.064  67.673  1.00  0.00    -0.301 C  
HETATM   34  C   UNL     1     -10.892   5.972  66.714  1.00  0.00    -0.356 C  
ENDBRANCH  30  32
ENDBRANCH  28  30
ENDBRANCH  26  28
ENDBRANCH  21  26
ENDBRANCH  18  19
ENDBRANCH  11  18
ENDBRANCH   2   3
TORSDOF 8
ENDMDL
MODEL        4
REMARK 921   NORMALIZED FREE ENERGY PREDICTED BY IDOCK:   -6.67 KCAL/MOL
REMARK 922        TOTAL FREE ENERGY PREDICTED BY IDOCK:  -11.32 KCAL/MOL
REMARK 923 INTER-LIGAND FREE ENERGY PREDICTED BY IDOCK:  -10.12 KCAL/MOL
REMARK 924 INTRA-LIGAND FREE ENERGY PREDICTED BY IDOCK:   -1.20 KCAL/MOL
REMARK 927      BINDING AFFINITY PREDICTED BY RF-SCORE:    0.00 PKD
ROOT
HETATM    1  C   UNL     1     -10.443  18.756  66.153  1.00  0.00    -0.446 C  
HETATM    2  O   UNL     1      -9.543  17.799  65.597  1.00  0.00    -0.484 OA 
ENDROOT
BRANCH   2   3
HETATM    3  C   UNL     1      -9.916  16.488  65.729  1.00  0.00    -0.274 A  
HETATM    4  C   UNL     1      -9.154  15.634  66.539  1.00  0.00    -0.337 A  
HETATM    5  N   UNL     1     -12.349  14.252  64.295  1.00  0.00    -0.667 NA 
HETATM    6  C   UNL     1      -9.500  14.267  66.623  1.00  0.00    -0.302 A  
HETATM    7  C   UNL     1     -11.328  14.623  65.069  1.00  0.00    -0.390 A  
HETATM    8  C   UNL     1     -10.591  13.734  65.884  1.00  0.00    -0.289 A  
HETATM    9  C   UNL     1     -12.629  12.947  64.219  1.00  0.00    -0.286 A  
HETATM   10  C   UNL     1     -10.985  15.958  65.006  1.00  0.00    -0.426 A  
HETATM   11  C   UNL     1     -10.988  12.364  65.858  1.00  0.00    -0.288 A  
HETATM   12  C   UNL     1     -11.951  11.984  64.931  1.00  0.00    -0.286 A  
BRANCH   4  13
HETATM   13  C   UNL     1      -8.025  16.177  67.351  1.00  0.00    -0.160 C  
HETATM   14  H2  UNL     1      -9.293  16.765  68.905  1.00  0.00     0.000 HD 
HETATM   15  H1  UNL     1      -7.560  17.098  69.122  1.00  0.00     0.000 HD 
HETATM   16  O   UNL     1      -6.861  16.160  66.972  1.00  0.00    -0.202 OA 
HETATM   17  N   UNL     1      -8.331  16.727  68.567  1.00  0.00    -0.233 N  
ENDBRANCH   4  13
BRANCH  11  18
HETATM   18  O   UNL     1     -10.288  11.485  66.667  1.00  0.00    -0.213 OA 
BRANCH  18  19
HETATM   19  C   UNL     1     -10.608  11.229  67.989  1.00  0.00    -0.195 A  
HETATM   20  C   UNL     1     -10.307   9.937  68.441  1.00  0.00    -0.226 A  
HETATM   21  C   UNL     1     -11.513  10.299  70.531  1.00  0.00    -0.343 A  
HETATM   22  C   UNL     1     -10.744   9.480  69.701  1.00  0.00    -0.257 A  
HETATM   23  C   UNL     1     -11.795  11.592  70.086  1.00  0.00    -0.356 A  
HETATM   24 CL   UNL     1     -12.754  12.679  71.041  1.00  0.00    -0.377 Cl 
HETATM   25  C   UNL     1     -11.343  12.047  68.843  1.00  0.00    -0.333 A  
BRANCH  21  26
HETATM   26  N   UNL     1     -12.065   9.889  71.765  1.00  0.00    -0.364 N  
HETATM   27  H   UNL     1     -11.825  10.455  72.580  1.00  0.00     0.000 HD 
BRANCH  26  28
HETATM   28  C   UNL     1     -12.885   8.818  71.988  1.00  0.00    -0.390 C  
HETATM   29  O   UNL     1     -14.076   8.768  71.701  1.00  0.00    -0.401 OA 
BRANCH  28  30
HETATM   30  N   UNL     1     -12.233   7.760  72.585  1.00  0.00    -0.581 N  
HETATM   31  H   UNL     1     -11.807   7.880  73.504  1.00  0.00     0.000 HD 
BRANCH  30  32
HETATM   32  C   UNL     1     -12.150   6.497  71.926  1.00  0.00    -0.339 C  
HETATM   33  C   UNL     1     -11.596   6.332  70.541  1.00  0.00    -0.357 C  
HETATM   34  C   UNL     1     -10.798   5.868  71.722  1.00  0.00    -0.316 C  
ENDBRANCH  30  32
ENDBRANCH  28  30
ENDBRANCH  26  28
ENDBRANCH  21  26
ENDBRANCH  18  19
ENDBRANCH  11  18
ENDBRANCH   2   3
TORSDOF 8
ENDMDL
MODEL        5
REMARK 921   NORMALIZED FREE ENERGY PREDICTED BY IDOCK:   -6.65 KCAL/MOL
REMARK 922        TOTAL FREE ENERGY PREDICTED BY IDOCK:  -11.30 KCAL/MOL
REMARK 923 INTER-LIGAND FREE ENERGY PREDICTED BY IDOCK:  -10.16 KCAL/MOL
REMARK 924 INTRA-LIGAND FREE ENERGY PREDICTED BY IDOCK:   -1.13 KCAL/MOL
REMARK 927      BINDING AFFINITY PREDICTED BY RF-SCORE:    0.00 PKD
ROOT
HETATM    1  C   UNL     1     -11.276   7.344  72.587  1.00  0.00    -0.332 C  
HETATM    2  O   UNL     1     -10.960   8.734  72.534  1.00  0.00    -0.258 OA 
ENDROOT
BRANCH   2   3
HETATM    3  C   UNL     1     -10.900   9.279  71.278  1.00  0.00    -0.347 A  
HETATM    4  C   UNL     1     -11.935  10.117  70.841  1.00  0.00    -0.461 A  
HETATM    5  N   UNL     1      -8.824   8.996  68.348  1.00  0.00    -0.133 NA 
HETATM    6  C   UNL     1     -11.906  10.626  69.523  1.00  0.00    -0.345 A  
HETATM    7  C   UNL     1      -9.841   9.427  69.095  1.00  0.00    -0.174 A  
HETATM    8  C   UNL     1     -10.860  10.285  68.623  1.00  0.00    -0.272 A  
HETATM    9  C   UNL     1      -8.822   9.324  67.052  1.00  0.00    -0.123 A  
HETATM   10  C   UNL     1      -9.877   8.948  70.389  1.00  0.00    -0.224 A  
HETATM   11  C   UNL     1     -10.767  10.701  67.262  1.00  0.00    -0.285 A  
HETATM   12  C   UNL     1      -9.786  10.116  66.469  1.00  0.00    -0.268 A  
BRANCH   4  13
HETATM   13  C   UNL     1     -13.025  10.518  71.780  1.00  0.00    -0.476 C  
HETATM   14  H2  UNL     1     -12.535  12.545  71.645  1.00  0.00     0.000 HD 
HETATM   15  H1  UNL     1     -13.902  12.125  72.701  1.00  0.00     0.000 HD 
HETATM   16  O   UNL     1     -13.782   9.712  72.306  1.00  0.00    -0.417 OA 
HETATM   17  N   UNL     1     -13.157  11.852  72.060  1.00  0.00    -0.424 N  
ENDBRANCH   4  13
BRANCH  11  18
HETATM   18  O   UNL     1     -11.747  11.557  66.791  1.00  0.00    -0.510 OA 
BRANCH  18  19
HETATM   19  C   UNL     1     -11.590  12.929  66.685  1.00  0.00    -0.372 A  
HETATM   20  C   UNL     1     -11.030  13.378  65.481  1.00  0.00    -0.294 A  
HETATM   21  C   UNL     1     -10.786  15.646  66.348  1.00  0.00    -0.252 A  
HETATM   22  C   UNL     1     -10.642  14.723  65.309  1.00  0.00    -0.414 A  
HETATM   23  C   UNL     1     -11.362  15.200  67.538  1.00  0.00    -0.320 A  
HETATM   24 CL   UNL     1     -11.570  16.270  68.889  1.00  0.00    -0.296 Cl 
HETATM   25  C   UNL     1     -11.762  13.869  67.696  1.00  0.00    -0.403 A  
BRANCH  21  26
HETATM   26  N   UNL     1     -10.343  16.986  66.288  1.00  0.00    -0.321 N  
HETATM   27  H   UNL     1     -11.055  17.692  66.099  1.00  0.00     0.000 HD 
BRANCH  26  28
HETATM   28  C   UNL     1      -9.064  17.441  66.458  1.00  0.00    -0.266 C  
HETATM   29  O   UNL     1      -8.176  17.384  65.613  1.00  0.00    -0.491 OA 
BRANCH  28  30
HETATM   30  N   UNL     1      -8.851  17.987  67.705  1.00  0.00    -0.252 N  
HETATM   31  H   UNL     1      -8.584  17.385  68.484  1.00  0.00     0.000 HD 
BRANCH  30  32
HETATM   32  C   UNL     1      -9.001  19.391  67.915  1.00  0.00    -0.319 C  
HETATM   33  C   UNL     1      -9.873  20.257  67.055  1.00  0.00    -0.607 C  
HETATM   34  C   UNL     1     -10.309  19.913  68.447  1.00  0.00    -0.507 C  
ENDBRANCH  30  32
ENDBRANCH  28  30
ENDBRANCH  26  28
ENDBRANCH  21  26
ENDBRANCH  18  19
ENDBRANCH  11  18
ENDBRANCH   2   3
TORSDOF 8
ENDMDL
MODEL        6
REMARK 921   NORMALIZED FREE ENERGY PREDICTED BY IDOCK:   -6.64 KCAL/MOL
REMARK 922        TOTAL FREE ENERGY PREDICTED BY IDOCK:  -11.28 KCAL/MOL
REMARK 923 INTER-LIGAND FREE ENERGY PREDICTED BY IDOCK:  -10.39 KCAL/MOL
REMARK 924 INTRA-LIGAND FREE ENERGY PREDICTED BY IDOCK:   -0.89 KCAL/MOL
REMARK 927      BINDING AFFINITY PREDICTED BY RF-SCORE:    0.00 PKD
ROOT
HETATM    1  C   UNL     1     -13.615  15.688  73.019  1.00  0.00    -0.532 C  
HETATM    2  O   UNL     1     -13.871  15.245  71.688  1.00  0.00    -0.443 OA 
ENDROOT
BRANCH   2   3
HETATM    3  C   UNL     1     -13.137  14.164  71.273  1.00  0.00    -0.350 A  
HETATM    4  C   UNL     1     -12.138  14.341  70.305  1.00  0.00    -0.403 A  
HETATM    5  N   UNL     1     -13.147  10.594  71.752  1.00  0.00    -0.468 NA 
HETATM    6  C   UNL     1     -11.427  13.217  69.829  1.00  0.00    -0.228 A  
HETATM    7  C   UNL     1     -12.743  11.766  71.260  1.00  0.00    -0.316 A  
HETATM    8  C   UNL     1     -11.720  11.906  70.294  1.00  0.00    -0.293 A  
HETATM    9  C   UNL     1     -12.614   9.484  71.232  1.00  0.00    -0.339 A  
HETATM   10  C   UNL     1     -13.421  12.874  71.724  1.00  0.00    -0.369 A  
HETATM   11  C   UNL     1     -11.100  10.705  69.839  1.00  0.00    -0.298 A  
HETATM   12  C   UNL     1     -11.644   9.495  70.255  1.00  0.00    -0.219 A  
BRANCH   4  13
HETATM   13  C   UNL     1     -11.788  15.712  69.828  1.00  0.00    -0.363 C  
HETATM   14  H2  UNL     1     -10.800  16.188  71.607  1.00  0.00     0.000 HD 
HETATM   15  H1  UNL     1     -10.839  17.450  70.355  1.00  0.00     0.000 HD 
HETATM   16  O   UNL     1     -12.117  16.140  68.730  1.00  0.00    -0.184 OA 
HETATM   17  N   UNL     1     -11.078  16.514  70.681  1.00  0.00    -0.197 N  
ENDBRANCH   4  13
BRANCH  11  18
HETATM   18  O   UNL     1     -10.083  10.828  68.908  1.00  0.00    -0.189 OA 
BRANCH  18  19
HETATM   19  C   UNL     1     -10.177  11.591  67.757  1.00  0.00    -0.182 A  
HETATM   20  C   UNL     1      -9.162  12.540  67.579  1.00  0.00    -0.188 A  
HETATM   21  C   UNL     1     -10.331  13.559  65.695  1.00  0.00    -0.297 A  
HETATM   22  C   UNL     1      -9.230  13.506  66.555  1.00  0.00    -0.187 A  
HETATM   23  C   UNL     1     -11.331  12.600  65.862  1.00  0.00    -0.334 A  
HETATM   24 CL   UNL     1     -12.743  12.592  64.851  1.00  0.00    -0.549 Cl 
HETATM   25  C   UNL     1     -11.248  11.632  66.869  1.00  0.00    -0.376 A  
BRANCH  21  26
HETATM   26  N   UNL     1     -10.519  14.546  64.703  1.00  0.00    -0.561 N  
HETATM   27  H   UNL     1     -10.252  14.291  63.752  1.00  0.00     0.000 HD 
BRANCH  26  28
HETATM   28  C   UNL     1     -11.021  15.807  64.878  1.00  0.00    -0.427 C  
HETATM   29  O   UNL     1     -11.617  16.455  64.024  1.00  0.00    -1.071 OA 
BRANCH  28  30
HETATM   30  N   UNL     1     -10.789  16.304  66.142  1.00  0.00    -0.176 N  
HETATM   31  H   UNL     1     -11.269  15.895  66.944  1.00  0.00     0.000 HD 
BRANCH  30  32
HETATM   32  C   UNL     1      -9.882  17.389  66.337  1.00  0.00    -0.302 C  
HETATM   33  C   UNL     1      -9.203  17.661  67.647  1.00  0.00    -0.245 C  
HETATM   34  C   UNL     1      -8.416  17.092  66.506  1.00  0.00    -0.306 C  
ENDBRANCH  30  32
ENDBRANCH  28  30
ENDBRANCH  26  28
ENDBRANCH  21  26
ENDBRANCH  18  19
ENDBRANCH  11  18
ENDBRANCH   2   3
TORSDOF 8
ENDMDL
MODEL        7
REMARK 921   NORMALIZED FREE ENERGY PREDICTED BY IDOCK:   -6.64 KCAL/MOL
REMARK 922        TOTAL FREE ENERGY PREDICTED BY IDOCK:  -11.28 KCAL/MOL
REMARK 923 INTER-LIGAND FREE ENERGY PREDICTED BY IDOCK:  -10.31 KCAL/MOL
REMARK 924 INTRA-LIGAND FREE ENERGY PREDICTED BY IDOCK:   -0.97 KCAL/MOL
REMARK 927      BINDING AFFINITY PREDICTED BY RF-SCORE:    0.00 PKD
ROOT
HETATM    1  C   UNL     1     -14.170   8.600  71.934  1.00  0.00    -0.427 C  
HETATM    2  O   UNL     1     -12.838   9.105  71.859  1.00  0.00    -0.337 OA 
ENDROOT
BRANCH   2   3
HETATM    3  C   UNL     1     -12.724  10.423  71.499  1.00  0.00    -0.459 A  
HETATM    4  C   UNL     1     -11.717  10.805  70.601  1.00  0.00    -0.442 A  
HETATM    5  N   UNL     1     -14.191  13.577  72.432  1.00  0.00    -0.681 NA 
HETATM    6  C   UNL     1     -11.557  12.172  70.281  1.00  0.00    -0.105 A  
HETATM    7  C   UNL     1     -13.376  12.747  71.780  1.00  0.00    -0.342 A  
HETATM    8  C   UNL     1     -12.381  13.170  70.869  1.00  0.00    -0.393 A  
HETATM    9  C   UNL     1     -13.990  14.890  72.283  1.00  0.00    -0.499 A  
HETATM   10  C   UNL     1     -13.528  11.407  72.074  1.00  0.00    -0.289 A  
HETATM   11  C   UNL     1     -12.267  14.576  70.655  1.00  0.00    -0.331 A  
HETATM   12  C   UNL     1     -13.022  15.420  71.460  1.00  0.00    -0.521 A  
BRANCH   4  13
HETATM   13  C   UNL     1     -10.863   9.773  69.944  1.00  0.00    -0.272 C  
HETATM   14  H2  UNL     1      -9.481   9.771  71.512  1.00  0.00     0.000 HD 
HETATM   15  H1  UNL     1      -9.148   8.671  70.157  1.00  0.00     0.000 HD 
HETATM   16  O   UNL     1     -11.125   9.286  68.852  1.00  0.00    -0.080 OA 
HETATM   17  N   UNL     1      -9.731   9.376  70.606  1.00  0.00    -0.267 N  
ENDBRANCH   4  13
BRANCH  11  18
HETATM   18  O   UNL     1     -11.310  15.004  69.751  1.00  0.00    -0.254 OA 
BRANCH  18  19
HETATM   19  C   UNL     1     -11.145  14.465  68.486  1.00  0.00    -0.253 A  
HETATM   20  C   UNL     1      -9.816  14.292  68.075  1.00  0.00    -0.224 A  
HETATM   21  C   UNL     1     -10.506  13.757  65.796  1.00  0.00    -0.299 A  
HETATM   22  C   UNL     1      -9.499  13.931  66.750  1.00  0.00    -0.287 A  
HETATM   23  C   UNL     1     -11.828  13.911  66.214  1.00  0.00    -0.408 A  
HETATM   24 CL   UNL     1     -13.147  13.727  65.099  1.00  0.00    -0.274 Cl 
HETATM   25  C   UNL     1     -12.138  14.251  67.535  1.00  0.00    -0.347 A  
BRANCH  21  26
HETATM   26  N   UNL     1     -10.270  13.483  64.431  1.00  0.00    -0.669 N  
HETATM   27  H   UNL     1     -10.074  14.286  63.834  1.00  0.00     0.000 HD 
BRANCH  26  28
HETATM   28  C   UNL     1     -10.275  12.258  63.821  1.00  0.00    -0.402 C  
HETATM   29  O   UNL     1     -11.225  11.775  63.214  1.00  0.00    -0.356 OA 
BRANCH  28  30
HETATM   30  N   UNL     1      -9.077  11.589  63.955  1.00  0.00    -0.430 N  
HETATM   31  H   UNL     1      -8.235  11.964  63.519  1.00  0.00     0.000 HD 
BRANCH  30  32
HETATM   32  C   UNL     1      -9.007  10.374  64.700  1.00  0.00    -0.209 C  
HETATM   33  C   UNL     1      -8.391  10.286  66.065  1.00  0.00    -0.142 C  
HETATM   34  C   UNL     1      -9.881  10.212  65.915  1.00  0.00    -0.308 C  
ENDBRANCH  30  32
ENDBRANCH  28  30
ENDBRANCH  26  28
ENDBRANCH  21  26
ENDBRANCH  18  19
ENDBRANCH  11  18
ENDBRANCH   2   3
TORSDOF 8
ENDMDL
MODEL        8
REMARK 921   NORMALIZED FREE ENERGY PREDICTED BY IDOCK:   -6.57 KCAL/MOL
REMARK 922        TOTAL FREE ENERGY PREDICTED BY IDOCK:  -11.18 KCAL/MOL
REMARK 923 INTER-LIGAND FREE ENERGY PREDICTED BY IDOCK:   -9.95 KCAL/MOL
REMARK 924 INTRA-LIGAND FREE ENERGY PREDICTED BY IDOCK:   -1.23 KCAL/MOL
REMARK 927      BINDING AFFINITY PREDICTED BY RF-SCORE:    0.00 PKD
ROOT
HETATM    1  C   UNL     1     -12.508  16.262  73.759  1.00  0.00    -0.551 C  
HETATM    2  O   UNL     1     -11.867  15.152  73.133  1.00  0.00    -0.392 OA 
ENDROOT
BRANCH   2   3
HETATM    3  C   UNL     1     -11.847  15.176  71.763  1.00  0.00    -0.405 A  
HETATM    4  C   UNL     1     -12.479  14.148  71.049  1.00  0.00    -0.438 A  
HETATM    5  N   UNL     1     -10.296  17.114  69.153  1.00  0.00    -0.317 NA 
HETATM    6  C   UNL     1     -12.402  14.137  69.638  1.00  0.00    -0.304 A  
HETATM    7  C   UNL     1     -11.040  16.144  69.685  1.00  0.00    -0.344 A  
HETATM    8  C   UNL     1     -11.676  15.132  68.929  1.00  0.00    -0.357 A  
HETATM    9  C   UNL     1     -10.064  17.071  67.838  1.00  0.00    -0.306 A  
HETATM   10  C   UNL     1     -11.134  16.149  71.062  1.00  0.00    -0.178 A  
HETATM   11  C   UNL     1     -11.493  15.179  67.515  1.00  0.00    -0.298 A  
HETATM   12  C   UNL     1     -10.591  16.107  67.007  1.00  0.00    -0.292 A  
BRANCH   4  13
HETATM   13  C   UNL     1     -13.277  13.112  71.768  1.00  0.00    -0.403 C  
HETATM   14  H2  UNL     1     -11.995  11.571  71.179  1.00  0.00     0.000 HD 
HETATM   15  H1  UNL     1     -13.381  11.110  72.193  1.00  0.00     0.000 HD 
HETATM   16  O   UNL     1     -14.298  13.371  72.393  1.00  0.00    -0.617 OA 
HETATM   17  N   UNL     1     -12.836  11.817  71.701  1.00  0.00    -0.367 N  
ENDBRANCH   4  13
BRANCH  11  18
HETATM   18  O   UNL     1     -12.126  14.207  66.761  1.00  0.00    -0.429 OA 
BRANCH  18  19
HETATM   19  C   UNL     1     -11.458  13.232  66.038  1.00  0.00    -0.330 A  
HETATM   20  C   UNL     1     -11.402  13.442  64.654  1.00  0.00    -0.372 A  
HETATM   21  C   UNL     1     -10.504  11.207  64.269  1.00  0.00    -0.362 A  
HETATM   22  C   UNL     1     -10.921  12.447  63.779  1.00  0.00    -0.501 A  
HETATM   23  C   UNL     1     -10.544  11.007  65.650  1.00  0.00    -0.197 A  
HETATM   24 CL   UNL     1     -10.060   9.494  66.351  1.00  0.00    -0.335 Cl 
HETATM   25  C   UNL     1     -11.005  12.005  66.514  1.00  0.00    -0.337 A  
BRANCH  21  26
HETATM   26  N   UNL     1     -10.094  10.127  63.456  1.00  0.00    -0.455 N  
HETATM   27  H   UNL     1     -10.806   9.432  63.229  1.00  0.00     0.000 HD 
BRANCH  26  28
HETATM   28  C   UNL     1      -8.846   9.911  62.938  1.00  0.00    -0.245 C  
HETATM   29  O   UNL     1      -7.986  10.772  62.785  1.00  0.00    -0.137 OA 
BRANCH  28  30
HETATM   30  N   UNL     1      -8.631   8.595  62.590  1.00  0.00    -0.386 N  
HETATM   31  H   UNL     1      -9.197   8.165  61.857  1.00  0.00     0.000 HD 
BRANCH  30  32
HETATM   32  C   UNL     1      -7.624   7.828  63.248  1.00  0.00    -0.126 C  
HETATM   33  C   UNL     1      -7.504   7.745  64.741  1.00  0.00    -0.092 C  
HETATM   34  C   UNL     1      -8.021   6.568  63.970  1.00  0.00    -0.081 C  
ENDBRANCH  30  32
ENDBRANCH  28  30
ENDBRANCH  26  28
ENDBRANCH  21  26
ENDBRANCH  18  19
ENDBRANCH  11  18
ENDBRANCH   2   3
TORSDOF 8
ENDMDL
MODEL        9
REMARK 921   NORMALIZED FREE ENERGY PREDICTED BY IDOCK:   -6.57 KCAL/MOL
REMARK 922        TOTAL FREE ENERGY PREDICTED BY IDOCK:  -11.17 KCAL/MOL
REMARK 923 INTER-LIGAND FREE ENERGY PREDICTED BY IDOCK:   -9.87 KCAL/MOL
REMARK 924 INTRA-LIGAND FREE ENERGY PREDICTED BY IDOCK:   -1.30 KCAL/MOL
REMARK 927      BINDING AFFINITY PREDICTED BY RF-SCORE:    0.00 PKD
ROOT
HETATM    1  C   UNL     1      -9.093   4.441  71.573  1.00  0.00    -0.131 C  
HETATM    2  O   UNL     1      -9.154   5.497  72.530  1.00  0.00    -0.136 OA 
ENDROOT
BRANCH   2   3
HETATM    3  C   UNL     1      -9.966   6.550  72.199  1.00  0.00    -0.161 A  
HETATM    4  C   UNL     1      -9.425   7.843  72.141  1.00  0.00    -0.234 A  
HETATM    5  N   UNL     1     -13.473   7.135  71.622  1.00  0.00    -0.368 NA 
HETATM    6  C   UNL     1     -10.275   8.937  71.864  1.00  0.00    -0.403 A  
HETATM    7  C   UNL     1     -12.181   7.442  71.747  1.00  0.00    -0.326 A  
HETATM    8  C   UNL     1     -11.671   8.758  71.667  1.00  0.00    -0.402 A  
HETATM    9  C   UNL     1     -14.343   8.142  71.506  1.00  0.00    -0.430 A  
HETATM   10  C   UNL     1     -11.337   6.381  72.006  1.00  0.00    -0.338 A  
HETATM   11  C   UNL     1     -12.619   9.799  71.437  1.00  0.00    -0.386 A  
HETATM   12  C   UNL     1     -13.968   9.466  71.464  1.00  0.00    -0.222 A  
BRANCH   4  13
HETATM   13  C   UNL     1      -7.957   8.052  72.309  1.00  0.00    -0.124 C  
HETATM   14  H2  UNL     1      -7.577   7.739  70.278  1.00  0.00     0.000 HD 
HETATM   15  H1  UNL     1      -6.170   8.093  71.305  1.00  0.00     0.000 HD 
HETATM   16  O   UNL     1      -7.436   8.294  73.390  1.00  0.00    -0.155 OA 
HETATM   17  N   UNL     1      -7.173   7.950  71.190  1.00  0.00    -0.056 N  
ENDBRANCH   4  13
BRANCH  11  18
HETATM   18  O   UNL     1     -12.131  11.090  71.337  1.00  0.00    -0.243 OA 
BRANCH  18  19
HETATM   19  C   UNL     1     -12.103  11.817  70.159  1.00  0.00    -0.317 A  
HETATM   20  C   UNL     1     -11.853  11.073  68.998  1.00  0.00    -0.399 A  
HETATM   21  C   UNL     1     -11.596  13.096  67.659  1.00  0.00    -0.349 A  
HETATM   22  C   UNL     1     -11.613  11.702  67.760  1.00  0.00    -0.359 A  
HETATM   23  C   UNL     1     -11.864  13.834  68.812  1.00  0.00    -0.363 A  
HETATM   24 CL   UNL     1     -11.853  15.570  68.788  1.00  0.00    -0.363 Cl 
HETATM   25  C   UNL     1     -12.120  13.204  70.034  1.00  0.00    -0.375 A  
BRANCH  21  26
HETATM   26  N   UNL     1     -11.277  13.804  66.479  1.00  0.00    -0.306 N  
HETATM   27  H   UNL     1     -10.426  14.368  66.503  1.00  0.00     0.000 HD 
BRANCH  26  28
HETATM   28  C   UNL     1     -11.983  13.818  65.307  1.00  0.00    -0.374 C  
HETATM   29  O   UNL     1     -13.194  13.983  65.215  1.00  0.00    -0.782 OA 
BRANCH  28  30
HETATM   30  N   UNL     1     -11.186  13.621  64.200  1.00  0.00    -0.577 N  
HETATM   31  H   UNL     1     -10.579  14.372  63.872  1.00  0.00     0.000 HD 
BRANCH  30  32
HETATM   32  C   UNL     1     -11.204  12.372  63.509  1.00  0.00    -0.469 C  
HETATM   33  C   UNL     1      -9.957  11.665  63.066  1.00  0.00    -0.321 C  
HETATM   34  C   UNL     1     -10.741  11.134  64.229  1.00  0.00    -0.403 C  
ENDBRANCH  30  32
ENDBRANCH  28  30
ENDBRANCH  26  28
ENDBRANCH  21  26
ENDBRANCH  18  19
ENDBRANCH  11  18
ENDBRANCH   2   3
TORSDOF 8
ENDMDL
MODEL       10
REMARK 921   NORMALIZED FREE ENERGY PREDICTED BY IDOCK:   -6.44 KCAL/MOL
REMARK 922        TOTAL FREE ENERGY PREDICTED BY IDOCK:  -10.99 KCAL/MOL
REMARK 923 INTER-LIGAND FREE ENERGY PREDICTED BY IDOCK:  -10.09 KCAL/MOL
REMARK 924 INTRA-LIGAND FREE ENERGY PREDICTED BY IDOCK:   -0.90 KCAL/MOL
REMARK 927      BINDING AFFINITY PREDICTED BY RF-SCORE:    0.00 PKD
ROOT
HETATM    1  C   UNL     1     -10.625  19.614  65.580  1.00  0.00    -0.364 C  
HETATM    2  O   UNL     1      -9.680  18.554  65.713  1.00  0.00    -0.468 OA 
ENDROOT
BRANCH   2   3
HETATM    3  C   UNL     1     -10.167  17.390  66.246  1.00  0.00    -0.341 A  
HETATM    4  C   UNL     1      -9.960  17.116  67.606  1.00  0.00    -0.283 A  
HETATM    5  N   UNL     1     -11.753  14.378  65.067  1.00  0.00    -0.372 NA 
HETATM    6  C   UNL     1     -10.404  15.886  68.140  1.00  0.00    -0.256 A  
HETATM    7  C   UNL     1     -11.213  15.216  65.954  1.00  0.00    -0.280 A  
HETATM    8  C   UNL     1     -11.034  14.909  67.323  1.00  0.00    -0.323 A  
HETATM    9  C   UNL     1     -12.057  13.145  65.482  1.00  0.00    -0.442 A  
HETATM   10  C   UNL     1     -10.785  16.426  65.448  1.00  0.00    -0.310 A  
HETATM   11  C   UNL     1     -11.469  13.620  67.752  1.00  0.00    -0.318 A  
HETATM   12  C   UNL     1     -11.884  12.717  66.780  1.00  0.00    -0.452 A  
BRANCH   4  13
HETATM   13  C   UNL     1      -9.332  18.140  68.492  1.00  0.00    -0.310 C  
HETATM   14  H2  UNL     1     -11.153  19.105  68.838  1.00  0.00     0.000 HD 
HETATM   15  H1  UNL     1      -9.724  19.794  69.638  1.00  0.00     0.000 HD 
HETATM   16  O   UNL     1      -8.133  18.166  68.738  1.00  0.00    -0.299 OA 
HETATM   17  N   UNL     1     -10.153  19.094  69.033  1.00  0.00    -0.383 N  
ENDBRANCH   4  13
BRANCH  11  18
HETATM   18  O   UNL     1     -11.318  13.314  69.093  1.00  0.00    -0.266 OA 
BRANCH  18  19
HETATM   19  C   UNL     1     -11.619  12.079  69.643  1.00  0.00    -0.301 A  
HETATM   20  C   UNL     1     -12.590  12.092  70.654  1.00  0.00    -0.255 A  
HETATM   21  C   UNL     1     -12.146   9.761  71.221  1.00  0.00    -0.382 A  
HETATM   22  C   UNL     1     -12.859  10.944  71.427  1.00  0.00    -0.554 A  
HETATM   23  C   UNL     1     -11.194   9.746  70.201  1.00  0.00    -0.272 A  
HETATM   24 CL   UNL     1     -10.248   8.325  69.878  1.00  0.00    -0.197 Cl 
HETATM   25  C   UNL     1     -10.944  10.882  69.425  1.00  0.00    -0.304 A  
BRANCH  21  26
HETATM   26  N   UNL     1     -12.291   8.596  72.007  1.00  0.00    -0.346 N  
HETATM   27  H   UNL     1     -11.627   8.479  72.772  1.00  0.00     0.000 HD 
BRANCH  26  28
HETATM   28  C   UNL     1     -13.226   7.609  71.856  1.00  0.00    -0.253 C  
HETATM   29  O   UNL     1     -14.396   7.787  71.532  1.00  0.00    -0.429 OA 
BRANCH  28  30
HETATM   30  N   UNL     1     -12.723   6.352  72.111  1.00  0.00    -0.507 N  
HETATM   31  H   UNL     1     -13.335   5.538  72.050  1.00  0.00     0.000 HD 
BRANCH  30  32
HETATM   32  C   UNL     1     -11.349   6.180  72.460  1.00  0.00    -0.286 C  
HETATM   33  C   UNL     1     -10.898   5.318  73.601  1.00  0.00    -0.347 C  
HETATM   34  C   UNL     1     -10.689   4.855  72.191  1.00  0.00    -0.193 C  
ENDBRANCH  30  32
ENDBRANCH  28  30
ENDBRANCH  26  28
ENDBRANCH  21  26
ENDBRANCH  18  19
ENDBRANCH  11  18
ENDBRANCH   2   3
TORSDOF 8
ENDMDL
MODEL       11
REMARK 921   NORMALIZED FREE ENERGY PREDICTED BY IDOCK:   -6.44 KCAL/MOL
REMARK 922        TOTAL FREE ENERGY PREDICTED BY IDOCK:  -10.99 KCAL/MOL
REMARK 923 INTER-LIGAND FREE ENERGY PREDICTED BY IDOCK:   -9.95 KCAL/MOL
REMARK 924 INTRA-LIGAND FREE ENERGY PREDICTED BY IDOCK:   -1.04 KCAL/MOL
REMARK 927      BINDING AFFINITY PREDICTED BY RF-SCORE:    0.00 PKD
ROOT
HETATM    1  C   UNL     1     -10.765  18.376  66.844  1.00  0.00    -0.266 C  
HETATM    2  O   UNL     1     -10.123  17.800  65.708  1.00  0.00    -0.555 OA 
ENDROOT
BRANCH   2   3
HETATM    3  C   UNL     1     -10.245  16.441  65.585  1.00  0.00    -0.324 A  
HETATM    4  C   UNL     1      -9.282  15.608  66.172  1.00  0.00    -0.378 A  
HETATM    5  N   UNL     1     -12.342  14.103  63.821  1.00  0.00    -0.759 NA 
HETATM    6  C   UNL     1      -9.371  14.210  65.989  1.00  0.00    -0.108 A  
HETATM    7  C   UNL     1     -11.348  14.505  64.614  1.00  0.00    -0.370 A  
HETATM    8  C   UNL     1     -10.403  13.632  65.201  1.00  0.00    -0.381 A  
HETATM    9  C   UNL     1     -12.390  12.809  63.491  1.00  0.00    -0.467 A  
HETATM   10  C   UNL     1     -11.255  15.868  64.811  1.00  0.00    -0.364 A  
HETATM   11  C   UNL     1     -10.550  12.243  64.912  1.00  0.00    -0.293 A  
HETATM   12  C   UNL     1     -11.498  11.873  63.965  1.00  0.00    -0.480 A  
BRANCH   4  13
HETATM   13  C   UNL     1      -8.210  16.189  67.033  1.00  0.00    -0.216 C  
HETATM   14  H2  UNL     1      -9.319  15.905  68.781  1.00  0.00     0.000 HD 
HETATM   15  H1  UNL     1      -7.713  16.642  68.969  1.00  0.00     0.000 HD 
HETATM   16  O   UNL     1      -7.154  16.618  66.586  1.00  0.00    -0.218 OA 
HETATM   17  N   UNL     1      -8.445  16.246  68.381  1.00  0.00    -0.187 N  
ENDBRANCH   4  13
BRANCH  11  18
HETATM   18  O   UNL     1      -9.645  11.374  65.496  1.00  0.00    -0.218 OA 
BRANCH  18  19
HETATM   19  C   UNL     1      -9.971  10.475  66.497  1.00  0.00    -0.214 A  
HETATM   20  C   UNL     1      -9.971  10.997  67.797  1.00  0.00    -0.194 A  
HETATM   21  C   UNL     1     -10.212   8.776  68.777  1.00  0.00    -0.206 A  
HETATM   22  C   UNL     1     -10.101  10.161  68.925  1.00  0.00    -0.211 A  
HETATM   23  C   UNL     1     -10.230   8.261  67.480  1.00  0.00    -0.243 A  
HETATM   24 CL   UNL     1     -10.351   6.552  67.196  1.00  0.00    -0.272 Cl 
HETATM   25  C   UNL     1     -10.120   9.098  66.365  1.00  0.00    -0.345 A  
BRANCH  21  26
HETATM   26  N   UNL     1     -10.256   7.862  69.853  1.00  0.00    -0.205 N  
HETATM   27  H   UNL     1      -9.389   7.731  70.374  1.00  0.00     0.000 HD 
BRANCH  26  28
HETATM   28  C   UNL     1     -11.335   7.133  70.273  1.00  0.00    -0.269 C  
HETATM   29  O   UNL     1     -11.380   5.909  70.336  1.00  0.00    -0.301 OA 
BRANCH  28  30
HETATM   30  N   UNL     1     -12.407   7.922  70.631  1.00  0.00    -0.499 N  
HETATM   31  H   UNL     1     -13.299   7.816  70.147  1.00  0.00     0.000 HD 
BRANCH  30  32
HETATM   32  C   UNL     1     -12.278   8.886  71.675  1.00  0.00    -0.343 C  
HETATM   33  C   UNL     1     -12.729  10.310  71.533  1.00  0.00    -0.557 C  
HETATM   34  C   UNL     1     -13.516   9.362  72.386  1.00  0.00    -0.506 C  
ENDBRANCH  30  32
ENDBRANCH  28  30
ENDBRANCH  26  28
ENDBRANCH  21  26
ENDBRANCH  18  19
ENDBRANCH  11  18
ENDBRANCH   2   3
TORSDOF 8
ENDMDL
MODEL       12
REMARK 921   NORMALIZED FREE ENERGY PREDICTED BY IDOCK:   -6.41 KCAL/MOL
REMARK 922        TOTAL FREE ENERGY PREDICTED BY IDOCK:  -10.94 KCAL/MOL
REMARK 923 INTER-LIGAND FREE ENERGY PREDICTED BY IDOCK:   -9.65 KCAL/MOL
REMARK 924 INTRA-LIGAND FREE ENERGY PREDICTED BY IDOCK:   -1.30 KCAL/MOL
REMARK 927      BINDING AFFINITY PREDICTED BY RF-SCORE:    0.00 PKD
ROOT
HETATM    1  C   UNL     1     -13.436   9.713  71.799  1.00  0.00    -0.394 C  
HETATM    2  O   UNL     1     -12.799  10.967  72.039  1.00  0.00    -0.393 OA 
ENDROOT
BRANCH   2   3
HETATM    3  C   UNL     1     -12.406  11.654  70.921  1.00  0.00    -0.336 A  
HETATM    4  C   UNL     1     -12.629  13.037  70.850  1.00  0.00    -0.364 A  
HETATM    5  N   UNL     1     -11.076  10.900  67.659  1.00  0.00    -0.295 NA 
HETATM    6  C   UNL     1     -12.284  13.734  69.670  1.00  0.00    -0.359 A  
HETATM    7  C   UNL     1     -11.541  11.663  68.649  1.00  0.00    -0.312 A  
HETATM    8  C   UNL     1     -11.739  13.059  68.545  1.00  0.00    -0.377 A  
HETATM    9  C   UNL     1     -10.871  11.479  66.472  1.00  0.00    -0.288 A  
HETATM   10  C   UNL     1     -11.872  10.997  69.812  1.00  0.00    -0.421 A  
HETATM   11  C   UNL     1     -11.409  13.660  67.294  1.00  0.00    -0.323 A  
HETATM   12  C   UNL     1     -11.073  12.821  66.238  1.00  0.00    -0.321 A  
BRANCH   4  13
HETATM   13  C   UNL     1     -13.168  13.773  72.031  1.00  0.00    -0.432 C  
HETATM   14  H2  UNL     1     -11.622  15.179  71.986  1.00  0.00     0.000 HD 
HETATM   15  H1  UNL     1     -12.841  15.378  73.264  1.00  0.00     0.000 HD 
HETATM   16  O   UNL     1     -14.179  13.429  72.628  1.00  0.00    -0.747 OA 
HETATM   17  N   UNL     1     -12.473  14.874  72.458  1.00  0.00    -0.343 N  
ENDBRANCH   4  13
BRANCH  11  18
HETATM   18  O   UNL     1     -11.578  15.029  67.184  1.00  0.00    -0.342 OA 
BRANCH  18  19
HETATM   19  C   UNL     1     -10.598  15.957  67.491  1.00  0.00    -0.315 A  
HETATM   20  C   UNL     1      -9.286  15.465  67.504  1.00  0.00    -0.204 A  
HETATM   21  C   UNL     1      -8.432  17.534  68.474  1.00  0.00    -0.280 A  
HETATM   22  C   UNL     1      -8.213  16.245  67.979  1.00  0.00    -0.157 A  
HETATM   23  C   UNL     1      -9.736  18.029  68.442  1.00  0.00    -0.344 A  
HETATM   24 CL   UNL     1     -10.109  19.614  69.046  1.00  0.00    -0.507 Cl 
HETATM   25  C   UNL     1     -10.794  17.256  67.952  1.00  0.00    -0.283 A  
BRANCH  21  26
HETATM   26  N   UNL     1      -7.430  18.347  69.049  1.00  0.00    -0.238 N  
HETATM   27  H   UNL     1      -7.490  18.499  70.056  1.00  0.00     0.000 HD 
BRANCH  26  28
HETATM   28  C   UNL     1      -6.386  18.952  68.403  1.00  0.00    -0.227 C  
HETATM   29  O   UNL     1      -5.271  18.465  68.252  1.00  0.00    -0.165 OA 
BRANCH  28  30
HETATM   30  N   UNL     1      -6.709  20.202  67.919  1.00  0.00    -0.266 N  
HETATM   31  H   UNL     1      -6.840  20.978  68.568  1.00  0.00     0.000 HD 
BRANCH  30  32
HETATM   32  C   UNL     1      -6.861  20.417  66.517  1.00  0.00    -0.252 C  
HETATM   33  C   UNL     1      -7.041  19.299  65.533  1.00  0.00    -0.216 C  
HETATM   34  C   UNL     1      -8.205  20.177  65.883  1.00  0.00    -0.144 C  
ENDBRANCH  30  32
ENDBRANCH  28  30
ENDBRANCH  26  28
ENDBRANCH  21  26
ENDBRANCH  18  19
ENDBRANCH  11  18
ENDBRANCH   2   3
TORSDOF 8
ENDMDL
MODEL       13
REMARK 921   NORMALIZED FREE ENERGY PREDICTED BY IDOCK:   -6.41 KCAL/MOL
REMARK 922        TOTAL FREE ENERGY PREDICTED BY IDOCK:  -10.94 KCAL/MOL
REMARK 923 INTER-LIGAND FREE ENERGY PREDICTED BY IDOCK:   -9.91 KCAL/MOL
REMARK 924 INTRA-LIGAND FREE ENERGY PREDICTED BY IDOCK:   -1.03 KCAL/MOL
REMARK 927      BINDING AFFINITY PREDICTED BY RF-SCORE:    0.00 PKD
ROOT
HETATM    1  C   UNL     1     -10.584   6.244  73.909  1.00  0.00    -0.215 C  
HETATM    2  O   UNL     1     -11.187   6.060  72.630  1.00  0.00    -0.263 OA 
ENDROOT
BRANCH   2   3
HETATM    3  C   UNL     1     -11.333   7.195  71.876  1.00  0.00    -0.260 A  
HETATM    4  C   UNL     1     -10.621   7.320  70.675  1.00  0.00    -0.240 A  
HETATM    5  N   UNL     1     -12.943  10.404  72.176  1.00  0.00    -0.389 NA 
HETATM    6  C   UNL     1     -10.720   8.517  69.932  1.00  0.00    -0.224 A  
HETATM    7  C   UNL     1     -12.201   9.450  71.611  1.00  0.00    -0.390 A  
HETATM    8  C   UNL     1     -11.508   9.608  70.389  1.00  0.00    -0.325 A  
HETATM    9  C   UNL     1     -12.955  11.607  71.595  1.00  0.00    -0.378 A  
HETATM   10  C   UNL     1     -12.104   8.270  72.321  1.00  0.00    -0.439 A  
HETATM   11  C   UNL     1     -11.631  10.874  69.743  1.00  0.00    -0.322 A  
HETATM   12  C   UNL     1     -12.283  11.893  70.428  1.00  0.00    -0.399 A  
BRANCH   4  13
HETATM   13  C   UNL     1      -9.815   6.175  70.156  1.00  0.00    -0.171 C  
HETATM   14  H2  UNL     1     -11.394   5.463  68.987  1.00  0.00     0.000 HD 
HETATM   15  H1  UNL     1      -9.876   4.540  68.922  1.00  0.00     0.000 HD 
HETATM   16  O   UNL     1      -8.656   5.969  70.491  1.00  0.00    -0.133 OA 
HETATM   17  N   UNL     1     -10.426   5.322  69.276  1.00  0.00    -0.223 N  
ENDBRANCH   4  13
BRANCH  11  18
HETATM   18  O   UNL     1     -10.975  11.036  68.535  1.00  0.00    -0.193 OA 
BRANCH  18  19
HETATM   19  C   UNL     1     -10.759  12.263  67.931  1.00  0.00    -0.215 A  
HETATM   20  C   UNL     1     -11.771  12.692  67.062  1.00  0.00    -0.438 A  
HETATM   21  C   UNL     1     -10.404  14.544  66.253  1.00  0.00    -0.294 A  
HETATM   22  C   UNL     1     -11.602  13.825  66.240  1.00  0.00    -0.369 A  
HETATM   23  C   UNL     1      -9.406  14.126  67.134  1.00  0.00    -0.237 A  
HETATM   24 CL   UNL     1      -7.879  14.949  67.213  1.00  0.00    -0.227 Cl 
HETATM   25  C   UNL     1      -9.586  13.013  67.961  1.00  0.00    -0.224 A  
BRANCH  21  26
HETATM   26  N   UNL     1     -10.121  15.634  65.400  1.00  0.00    -0.357 N  
HETATM   27  H   UNL     1      -9.444  15.465  64.656  1.00  0.00     0.000 HD 
BRANCH  26  28
HETATM   28  C   UNL     1     -10.655  16.892  65.463  1.00  0.00    -0.202 C  
HETATM   29  O   UNL     1     -11.320  17.422  64.579  1.00  0.00    -0.947 OA 
BRANCH  28  30
HETATM   30  N   UNL     1     -10.371  17.536  66.648  1.00  0.00    -0.331 N  
HETATM   31  H   UNL     1      -9.864  17.043  67.384  1.00  0.00     0.000 HD 
BRANCH  30  32
HETATM   32  C   UNL     1     -10.780  18.888  66.853  1.00  0.00    -0.370 C  
HETATM   33  C   UNL     1     -10.311  19.717  68.012  1.00  0.00    -0.567 C  
HETATM   34  C   UNL     1      -9.782  19.993  66.636  1.00  0.00    -0.566 C  
ENDBRANCH  30  32
ENDBRANCH  28  30
ENDBRANCH  26  28
ENDBRANCH  21  26
ENDBRANCH  18  19
ENDBRANCH  11  18
ENDBRANCH   2   3
TORSDOF 8
ENDMDL
MODEL       14
REMARK 921   NORMALIZED FREE ENERGY PREDICTED BY IDOCK:   -6.37 KCAL/MOL
REMARK 922        TOTAL FREE ENERGY PREDICTED BY IDOCK:  -10.89 KCAL/MOL
REMARK 923 INTER-LIGAND FREE ENERGY PREDICTED BY IDOCK:   -9.65 KCAL/MOL
REMARK 924 INTRA-LIGAND FREE ENERGY PREDICTED BY IDOCK:   -1.24 KCAL/MOL
REMARK 927      BINDING AFFINITY PREDICTED BY RF-SCORE:    0.00 PKD
ROOT
HETATM    1  C   UNL     1     -13.450   8.853  71.850  1.00  0.00    -0.414 C  
HETATM    2  O   UNL     1     -12.331   9.453  71.200  1.00  0.00    -0.305 OA 
ENDROOT
BRANCH   2   3
HETATM    3  C   UNL     1     -12.441  10.796  70.950  1.00  0.00    -0.402 A  
HETATM    4  C   UNL     1     -11.788  11.345  69.838  1.00  0.00    -0.435 A  
HETATM    5  N   UNL     1     -13.817  13.704  72.572  1.00  0.00    -0.721 NA 
HETATM    6  C   UNL     1     -11.847  12.739  69.618  1.00  0.00    -0.384 A  
HETATM    7  C   UNL     1     -13.171  13.012  71.632  1.00  0.00    -0.336 A  
HETATM    8  C   UNL     1     -12.536  13.600  70.514  1.00  0.00    -0.394 A  
HETATM    9  C   UNL     1     -13.781  15.038  72.497  1.00  0.00    -0.469 A  
HETATM   10  C   UNL     1     -13.114  11.647  71.828  1.00  0.00    -0.487 A  
HETATM   11  C   UNL     1     -12.609  15.021  70.411  1.00  0.00    -0.350 A  
HETATM   12  C   UNL     1     -13.155  15.723  71.480  1.00  0.00    -0.471 A  
BRANCH   4  13
HETATM   13  C   UNL     1     -11.089  10.457  68.863  1.00  0.00    -0.247 C  
HETATM   14  H2  UNL     1      -9.396  10.288  70.076  1.00  0.00     0.000 HD 
HETATM   15  H1  UNL     1      -9.357   9.412  68.530  1.00  0.00     0.000 HD 
HETATM   16  O   UNL     1     -11.580  10.123  67.792  1.00  0.00    -0.239 OA 
HETATM   17  N   UNL     1      -9.835  10.018  69.196  1.00  0.00    -0.193 N  
ENDBRANCH   4  13
BRANCH  11  18
HETATM   18  O   UNL     1     -12.009  15.610  69.312  1.00  0.00    -0.365 OA 
BRANCH  18  19
HETATM   19  C   UNL     1     -10.716  16.105  69.308  1.00  0.00    -0.295 A  
HETATM   20  C   UNL     1     -10.548  17.342  68.673  1.00  0.00    -0.318 A  
HETATM   21  C   UNL     1      -8.118  17.170  68.802  1.00  0.00    -0.252 A  
HETATM   22  C   UNL     1      -9.266  17.876  68.432  1.00  0.00    -0.289 A  
HETATM   23  C   UNL     1      -8.289  15.947  69.451  1.00  0.00    -0.180 A  
HETATM   24 CL   UNL     1      -6.923  14.991  69.938  1.00  0.00    -0.179 Cl 
HETATM   25  C   UNL     1      -9.565  15.432  69.705  1.00  0.00    -0.233 A  
BRANCH  21  26
HETATM   26  N   UNL     1      -6.799  17.590  68.518  1.00  0.00    -0.204 N  
HETATM   27  H   UNL     1      -6.217  17.832  69.320  1.00  0.00     0.000 HD 
BRANCH  26  28
HETATM   28  C   UNL     1      -6.217  17.707  67.285  1.00  0.00    -0.149 C  
HETATM   29  O   UNL     1      -6.273  16.866  66.394  1.00  0.00    -0.265 OA 
BRANCH  28  30
HETATM   30  N   UNL     1      -5.537  18.896  67.126  1.00  0.00    -0.146 N  
HETATM   31  H   UNL     1      -4.586  18.988  67.485  1.00  0.00     0.000 HD 
BRANCH  30  32
HETATM   32  C   UNL     1      -6.153  19.998  66.462  1.00  0.00    -0.172 C  
HETATM   33  C   UNL     1      -7.601  20.009  66.067  1.00  0.00    -0.326 C  
HETATM   34  C   UNL     1      -7.139  20.848  67.220  1.00  0.00    -0.430 C  
ENDBRANCH  30  32
ENDBRANCH  28  30
ENDBRANCH  26  28
ENDBRANCH  21  26
ENDBRANCH  18  19
ENDBRANCH  11  18
ENDBRANCH   2   3
TORSDOF 8
ENDMDL
MODEL       15
REMARK 921   NORMALIZED FREE ENERGY PREDICTED BY IDOCK:   -6.36 KCAL/MOL
REMARK 922        TOTAL FREE ENERGY PREDICTED BY IDOCK:  -10.87 KCAL/MOL
REMARK 923 INTER-LIGAND FREE ENERGY PREDICTED BY IDOCK:   -9.46 KCAL/MOL
REMARK 924 INTRA-LIGAND FREE ENERGY PREDICTED BY IDOCK:   -1.41 KCAL/MOL
REMARK 927      BINDING AFFINITY PREDICTED BY RF-SCORE:    0.00 PKD
ROOT
HETATM    1  C   UNL     1     -10.349  18.691  66.387  1.00  0.00    -0.432 C  
HETATM    2  O   UNL     1      -9.441  17.777  65.776  1.00  0.00    -0.518 OA 
ENDROOT
BRANCH   2   3
HETATM    3  C   UNL     1      -9.828  16.462  65.787  1.00  0.00    -0.271 A  
HETATM    4  C   UNL     1      -9.012  15.510  66.415  1.00  0.00    -0.359 A  
HETATM    5  N   UNL     1     -12.427  14.437  64.332  1.00  0.00    -0.679 NA 
HETATM    6  C   UNL     1      -9.377  14.146  66.369  1.00  0.00    -0.254 A  
HETATM    7  C   UNL     1     -11.332  14.703  65.046  1.00  0.00    -0.390 A  
HETATM    8  C   UNL     1     -10.542  13.716  65.678  1.00  0.00    -0.294 A  
HETATM    9  C   UNL     1     -12.739  13.153  64.129  1.00  0.00    -0.079 A  
HETATM   10  C   UNL     1     -10.969  16.033  65.109  1.00  0.00    -0.360 A  
HETATM   11  C   UNL     1     -10.968  12.363  65.528  1.00  0.00    -0.293 A  
HETATM   12  C   UNL     1     -12.019  12.105  64.656  1.00  0.00    -0.398 A  
BRANCH   4  13
HETATM   13  C   UNL     1      -7.803  15.942  67.177  1.00  0.00    -0.214 C  
HETATM   14  H2  UNL     1      -8.871  16.127  68.964  1.00  0.00     0.000 HD 
HETATM   15  H1  UNL     1      -7.136  16.509  69.031  1.00  0.00     0.000 HD 
HETATM   16  O   UNL     1      -6.700  16.070  66.662  1.00  0.00    -0.224 OA 
HETATM   17  N   UNL     1      -7.962  16.215  68.510  1.00  0.00    -0.165 N  
ENDBRANCH   4  13
BRANCH  11  18
HETATM   18  O   UNL     1     -10.215  11.387  66.158  1.00  0.00    -0.224 OA 
BRANCH  18  19
HETATM   19  C   UNL     1     -10.492  10.893  67.422  1.00  0.00    -0.224 A  
HETATM   20  C   UNL     1     -11.768  11.189  67.917  1.00  0.00    -0.260 A  
HETATM   21  C   UNL     1     -11.192  10.351  70.135  1.00  0.00    -0.321 A  
HETATM   22  C   UNL     1     -12.120  10.913  69.254  1.00  0.00    -0.332 A  
HETATM   23  C   UNL     1      -9.927  10.039  69.633  1.00  0.00    -0.236 A  
HETATM   24 CL   UNL     1      -8.703   9.350  70.654  1.00  0.00    -0.275 Cl 
HETATM   25  C   UNL     1      -9.591  10.299  68.301  1.00  0.00    -0.151 A  
BRANCH  21  26
HETATM   26  N   UNL     1     -11.433  10.124  71.508  1.00  0.00    -0.186 N  
HETATM   27  H   UNL     1     -10.822  10.612  72.163  1.00  0.00     0.000 HD 
BRANCH  26  28
HETATM   28  C   UNL     1     -12.398   9.323  72.055  1.00  0.00    -0.363 C  
HETATM   29  O   UNL     1     -13.592   9.595  72.115  1.00  0.00    -0.426 OA 
BRANCH  28  30
HETATM   30  N   UNL     1     -11.892   8.142  72.554  1.00  0.00    -0.463 N  
HETATM   31  H   UNL     1     -11.413   8.135  73.455  1.00  0.00     0.000 HD 
BRANCH  30  32
HETATM   32  C   UNL     1     -12.035   6.927  71.819  1.00  0.00    -0.333 C  
HETATM   33  C   UNL     1     -11.719   6.815  70.356  1.00  0.00    -0.418 C  
HETATM   34  C   UNL     1     -10.797   6.199  71.365  1.00  0.00    -0.319 C  
ENDBRANCH  30  32
ENDBRANCH  28  30
ENDBRANCH  26  28
ENDBRANCH  21  26
ENDBRANCH  18  19
ENDBRANCH  11  18
ENDBRANCH   2   3
TORSDOF 8
ENDMDL
MODEL       16
REMARK 921   NORMALIZED FREE ENERGY PREDICTED BY IDOCK:   -6.36 KCAL/MOL
REMARK 922        TOTAL FREE ENERGY PREDICTED BY IDOCK:  -10.87 KCAL/MOL
REMARK 923 INTER-LIGAND FREE ENERGY PREDICTED BY IDOCK:   -9.87 KCAL/MOL
REMARK 924 INTRA-LIGAND FREE ENERGY PREDICTED BY IDOCK:   -0.99 KCAL/MOL
REMARK 927      BINDING AFFINITY PREDICTED BY RF-SCORE:    0.00 PKD
ROOT
HETATM    1  C   UNL     1     -10.734  16.749  64.994  1.00  0.00    -0.100 C  
HETATM    2  O   UNL     1     -10.757  15.327  65.103  1.00  0.00    -0.376 OA 
ENDROOT
BRANCH   2   3
HETATM    3  C   UNL     1     -11.057  14.834  66.345  1.00  0.00    -0.340 A  
HETATM    4  C   UNL     1     -11.793  13.645  66.454  1.00  0.00    -0.433 A  
HETATM    5  N   UNL     1     -10.737  15.880  69.777  1.00  0.00    -0.296 NA 
HETATM    6  C   UNL     1     -12.159  13.171  67.734  1.00  0.00    -0.262 A  
HETATM    7  C   UNL     1     -11.088  15.090  68.762  1.00  0.00    -0.261 A  
HETATM    8  C   UNL     1     -11.819  13.889  68.913  1.00  0.00    -0.393 A  
HETATM    9  C   UNL     1     -11.183  15.562  70.996  1.00  0.00    -0.373 A  
HETATM   10  C   UNL     1     -10.727  15.534  67.506  1.00  0.00    -0.300 A  
HETATM   11  C   UNL     1     -12.186  13.526  70.242  1.00  0.00    -0.347 A  
HETATM   12  C   UNL     1     -11.940  14.442  71.258  1.00  0.00    -0.359 A  
BRANCH   4  13
HETATM   13  C   UNL     1     -12.132  12.856  65.233  1.00  0.00    -0.453 C  
HETATM   14  H2  UNL     1     -10.180  12.135  65.034  1.00  0.00     0.000 HD 
HETATM   15  H1  UNL     1     -11.356  11.595  63.816  1.00  0.00     0.000 HD 
HETATM   16  O   UNL     1     -13.250  12.841  64.737  1.00  0.00    -0.812 OA 
HETATM   17  N   UNL     1     -11.125  12.134  64.649  1.00  0.00    -0.306 N  
ENDBRANCH   4  13
BRANCH  11  18
HETATM   18  O   UNL     1     -12.884  12.342  70.407  1.00  0.00     0.045 OA 
BRANCH  18  19
HETATM   19  C   UNL     1     -12.283  11.111  70.607  1.00  0.00    -0.397 A  
HETATM   20  C   UNL     1     -12.849  10.321  71.617  1.00  0.00    -0.568 A  
HETATM   21  C   UNL     1     -11.016   8.716  71.503  1.00  0.00    -0.290 A  
HETATM   22  C   UNL     1     -12.230   9.132  72.053  1.00  0.00    -0.443 A  
HETATM   23  C   UNL     1     -10.464   9.494  70.484  1.00  0.00    -0.296 A  
HETATM   24 CL   UNL     1      -8.951   9.064  69.747  1.00  0.00    -0.146 Cl 
HETATM   25  C   UNL     1     -11.092  10.662  70.042  1.00  0.00    -0.359 A  
BRANCH  21  26
HETATM   26  N   UNL     1     -10.287   7.588  71.943  1.00  0.00    -0.191 N  
HETATM   27  H   UNL     1      -9.982   6.934  71.222  1.00  0.00     0.000 HD 
BRANCH  26  28
HETATM   28  C   UNL     1      -9.945   7.278  73.231  1.00  0.00    -0.273 C  
HETATM   29  O   UNL     1      -9.023   7.787  73.859  1.00  0.00    -0.253 OA 
BRANCH  28  30
HETATM   30  N   UNL     1     -10.755   6.307  73.780  1.00  0.00    -0.419 N  
HETATM   31  H   UNL     1     -11.074   6.399  74.745  1.00  0.00     0.000 HD 
BRANCH  30  32
HETATM   32  C   UNL     1     -11.152   5.174  73.008  1.00  0.00    -0.314 C  
HETATM   33  C   UNL     1     -10.179   4.154  72.496  1.00  0.00    -0.240 C  
HETATM   34  C   UNL     1     -11.090   3.807  73.635  1.00  0.00    -0.318 C  
ENDBRANCH  30  32
ENDBRANCH  28  30
ENDBRANCH  26  28
ENDBRANCH  21  26
ENDBRANCH  18  19
ENDBRANCH  11  18
ENDBRANCH   2   3
TORSDOF 8
ENDMDL
MODEL       17
REMARK 921   NORMALIZED FREE ENERGY PREDICTED BY IDOCK:   -6.29 KCAL/MOL
REMARK 922        TOTAL FREE ENERGY PREDICTED BY IDOCK:  -10.76 KCAL/MOL
REMARK 923 INTER-LIGAND FREE ENERGY PREDICTED BY IDOCK:   -9.30 KCAL/MOL
REMARK 924 INTRA-LIGAND FREE ENERGY PREDICTED BY IDOCK:   -1.46 KCAL/MOL
REMARK 927      BINDING AFFINITY PREDICTED BY RF-SCORE:    0.00 PKD
ROOT
HETATM    1  C   UNL     1     -12.753   7.201  71.440  1.00  0.00    -0.391 C  
HETATM    2  O   UNL     1     -11.537   7.945  71.380  1.00  0.00    -0.261 OA 
ENDROOT
BRANCH   2   3
HETATM    3  C   UNL     1     -11.623   9.169  70.769  1.00  0.00    -0.276 A  
HETATM    4  C   UNL     1     -10.974   9.373  69.544  1.00  0.00    -0.193 A  
HETATM    5  N   UNL     1     -12.913  12.444  71.534  1.00  0.00    -0.349 NA 
HETATM    6  C   UNL     1     -11.006  10.653  68.947  1.00  0.00    -0.296 A  
HETATM    7  C   UNL     1     -12.296  11.504  70.817  1.00  0.00    -0.375 A  
HETATM    8  C   UNL     1     -11.664  11.745  69.576  1.00  0.00    -0.408 A  
HETATM    9  C   UNL     1     -12.850  13.704  71.093  1.00  0.00    -0.323 A  
HETATM   10  C   UNL     1     -12.265  10.246  71.382  1.00  0.00    -0.481 A  
HETATM   11  C   UNL     1     -11.708  13.084  69.084  1.00  0.00    -0.326 A  
HETATM   12  C   UNL     1     -12.223  14.067  69.921  1.00  0.00    -0.399 A  
BRANCH   4  13
HETATM   13  C   UNL     1     -10.307   8.233  68.847  1.00  0.00    -0.215 C  
HETATM   14  H2  UNL     1      -8.446   8.676  69.687  1.00  0.00     0.000 HD 
HETATM   15  H1  UNL     1      -8.513   7.276  68.594  1.00  0.00     0.000 HD 
HETATM   16  O   UNL     1     -10.900   7.476  68.089  1.00  0.00    -0.129 OA 
HETATM   17  N   UNL     1      -8.968   8.055  69.069  1.00  0.00    -0.145 N  
ENDBRANCH   4  13
BRANCH  11  18
HETATM   18  O   UNL     1     -11.111  13.330  67.860  1.00  0.00    -0.246 OA 
BRANCH  18  19
HETATM   19  C   UNL     1     -10.253  14.390  67.617  1.00  0.00    -0.229 A  
HETATM   20  C   UNL     1     -10.495  15.100  66.434  1.00  0.00    -0.300 A  
HETATM   21  C   UNL     1      -8.415  16.354  66.666  1.00  0.00    -0.271 A  
HETATM   22  C   UNL     1      -9.594  16.079  65.968  1.00  0.00    -0.385 A  
HETATM   23  C   UNL     1      -8.187  15.658  67.854  1.00  0.00    -0.148 A  
HETATM   24 CL   UNL     1      -6.744  15.923  68.783  1.00  0.00    -0.120 Cl 
HETATM   25  C   UNL     1      -9.094  14.702  68.321  1.00  0.00    -0.189 A  
BRANCH  21  26
HETATM   26  N   UNL     1      -7.419  17.253  66.222  1.00  0.00    -0.304 N  
HETATM   27  H   UNL     1      -6.535  16.840  65.924  1.00  0.00     0.000 HD 
BRANCH  26  28
HETATM   28  C   UNL     1      -7.510  18.616  66.149  1.00  0.00    -0.255 C  
HETATM   29  O   UNL     1      -7.081  19.304  65.229  1.00  0.00    -0.446 OA 
BRANCH  28  30
HETATM   30  N   UNL     1      -8.149  19.168  67.239  1.00  0.00    -0.261 N  
HETATM   31  H   UNL     1      -7.766  19.031  68.174  1.00  0.00     0.000 HD 
BRANCH  30  32
HETATM   32  C   UNL     1      -9.342  19.932  67.067  1.00  0.00    -0.370 C  
HETATM   33  C   UNL     1     -10.421  19.555  66.095  1.00  0.00    -0.613 C  
HETATM   34  C   UNL     1     -10.646  19.369  67.565  1.00  0.00    -0.591 C  
ENDBRANCH  30  32
ENDBRANCH  28  30
ENDBRANCH  26  28
ENDBRANCH  21  26
ENDBRANCH  18  19
ENDBRANCH  11  18
ENDBRANCH   2   3
TORSDOF 8
ENDMDL
MODEL       18
REMARK 921   NORMALIZED FREE ENERGY PREDICTED BY IDOCK:   -6.26 KCAL/MOL
REMARK 922        TOTAL FREE ENERGY PREDICTED BY IDOCK:  -10.72 KCAL/MOL
REMARK 923 INTER-LIGAND FREE ENERGY PREDICTED BY IDOCK:   -9.49 KCAL/MOL
REMARK 924 INTRA-LIGAND FREE ENERGY PREDICTED BY IDOCK:   -1.22 KCAL/MOL
REMARK 927      BINDING AFFINITY PREDICTED BY RF-SCORE:    0.00 PKD
ROOT
HETATM    1  C   UNL     1     -10.153   6.601  74.056  1.00  0.00    -0.347 C  
HETATM    2  O   UNL     1     -10.995   7.690  73.684  1.00  0.00    -0.301 OA 
ENDROOT
BRANCH   2   3
HETATM    3  C   UNL     1     -10.740   8.243  72.456  1.00  0.00    -0.341 A  
HETATM    4  C   UNL     1     -11.801   8.463  71.566  1.00  0.00    -0.345 A  
HETATM    5  N   UNL     1      -7.862   9.163  70.494  1.00  0.00    -0.125 NA 
HETATM    6  C   UNL     1     -11.529   8.970  70.276  1.00  0.00    -0.147 A  
HETATM    7  C   UNL     1      -9.155   8.992  70.772  1.00  0.00    -0.245 A  
HETATM    8  C   UNL     1     -10.200   9.239  69.852  1.00  0.00    -0.235 A  
HETATM    9  C   UNL     1      -7.534   9.500  69.243  1.00  0.00    -0.078 A  
HETATM   10  C   UNL     1      -9.436   8.508  72.033  1.00  0.00    -0.364 A  
HETATM   11  C   UNL     1      -9.817   9.700  68.558  1.00  0.00    -0.157 A  
HETATM   12  C   UNL     1      -8.461   9.722  68.250  1.00  0.00    -0.114 A  
BRANCH   4  13
HETATM   13  C   UNL     1     -13.209   8.221  72.000  1.00  0.00    -0.319 C  
HETATM   14  H2  UNL     1     -13.259   6.324  71.126  1.00  0.00     0.000 HD 
HETATM   15  H1  UNL     1     -14.739   6.858  71.954  1.00  0.00     0.000 HD 
HETATM   16  O   UNL     1     -13.864   9.043  72.628  1.00  0.00    -0.467 OA 
HETATM   17  N   UNL     1     -13.777   7.023  71.657  1.00  0.00    -0.313 N  
ENDBRANCH   4  13
BRANCH  11  18
HETATM   18  O   UNL     1     -10.830   9.966  67.653  1.00  0.00    -0.274 OA 
BRANCH  18  19
HETATM   19  C   UNL     1     -10.972  11.168  66.981  1.00  0.00    -0.289 A  
HETATM   20  C   UNL     1     -11.151  12.294  67.796  1.00  0.00    -0.304 A  
HETATM   21  C   UNL     1     -11.686  13.700  65.875  1.00  0.00    -0.354 A  
HETATM   22  C   UNL     1     -11.493  13.548  67.250  1.00  0.00    -0.369 A  
HETATM   23  C   UNL     1     -11.489  12.581  65.065  1.00  0.00    -0.326 A  
HETATM   24 CL   UNL     1     -11.718  12.667  63.345  1.00  0.00    -0.578 Cl 
HETATM   25  C   UNL     1     -11.131  11.343  65.610  1.00  0.00    -0.207 A  
BRANCH  21  26
HETATM   26  N   UNL     1     -12.115  14.896  65.258  1.00  0.00    -0.188 N  
HETATM   27  H   UNL     1     -13.121  15.006  65.130  1.00  0.00     0.000 HD 
BRANCH  26  28
HETATM   28  C   UNL     1     -11.328  15.924  64.814  1.00  0.00    -0.309 C  
HETATM   29  O   UNL     1     -11.564  16.621  63.833  1.00  0.00    -1.204 OA 
BRANCH  28  30
HETATM   30  N   UNL     1     -10.207  16.114  65.592  1.00  0.00    -0.365 N  
HETATM   31  H   UNL     1      -9.382  15.532  65.444  1.00  0.00     0.000 HD 
BRANCH  30  32
HETATM   32  C   UNL     1     -10.191  17.120  66.604  1.00  0.00    -0.319 C  
HETATM   33  C   UNL     1      -9.824  16.839  68.031  1.00  0.00    -0.265 C  
HETATM   34  C   UNL     1      -8.867  17.584  67.150  1.00  0.00    -0.246 C  
ENDBRANCH  30  32
ENDBRANCH  28  30
ENDBRANCH  26  28
ENDBRANCH  21  26
ENDBRANCH  18  19
ENDBRANCH  11  18
ENDBRANCH   2   3
TORSDOF 8
ENDMDL
MODEL       19
REMARK 921   NORMALIZED FREE ENERGY PREDICTED BY IDOCK:   -6.23 KCAL/MOL
REMARK 922        TOTAL FREE ENERGY PREDICTED BY IDOCK:  -10.68 KCAL/MOL
REMARK 923 INTER-LIGAND FREE ENERGY PREDICTED BY IDOCK:   -9.17 KCAL/MOL
REMARK 924 INTRA-LIGAND FREE ENERGY PREDICTED BY IDOCK:   -1.51 KCAL/MOL
REMARK 927      BINDING AFFINITY PREDICTED BY RF-SCORE:    0.00 PKD
ROOT
HETATM    1  C   UNL     1     -10.681  18.515  67.702  1.00  0.00    -0.364 C  
HETATM    2  O   UNL     1     -10.958  17.485  68.649  1.00  0.00    -0.170 OA 
ENDROOT
BRANCH   2   3
HETATM    3  C   UNL     1     -11.169  16.238  68.122  1.00  0.00    -0.298 A  
HETATM    4  C   UNL     1     -11.712  15.231  68.933  1.00  0.00    -0.362 A  
HETATM    5  N   UNL     1     -10.449  14.483  65.060  1.00  0.00    -0.418 NA 
HETATM    6  C   UNL     1     -11.867  13.928  68.409  1.00  0.00    -0.409 A  
HETATM    7  C   UNL     1     -10.906  14.649  66.302  1.00  0.00    -0.321 A  
HETATM    8  C   UNL     1     -11.461  13.611  67.084  1.00  0.00    -0.367 A  
HETATM    9  C   UNL     1     -10.433  13.242  64.564  1.00  0.00    -0.415 A  
HETATM   10  C   UNL     1     -10.771  15.920  66.823  1.00  0.00    -0.281 A  
HETATM   11  C   UNL     1     -11.526  12.320  66.482  1.00  0.00    -0.381 A  
HETATM   12  C   UNL     1     -10.905  12.145  65.250  1.00  0.00    -0.336 A  
BRANCH   4  13
HETATM   13  C   UNL     1     -12.177  15.548  70.315  1.00  0.00    -0.400 C  
HETATM   14  H2  UNL     1     -10.261  15.331  71.120  1.00  0.00     0.000 HD 
HETATM   15  H1  UNL     1     -11.558  15.760  72.258  1.00  0.00     0.000 HD 
HETATM   16  O   UNL     1     -13.345  15.794  70.586  1.00  0.00    -0.486 OA 
HETATM   17  N   UNL     1     -11.240  15.543  71.314  1.00  0.00    -0.367 N  
ENDBRANCH   4  13
BRANCH  11  18
HETATM   18  O   UNL     1     -12.085  11.298  67.229  1.00  0.00    -0.362 OA 
BRANCH  18  19
HETATM   19  C   UNL     1     -11.395  10.568  68.182  1.00  0.00    -0.254 A  
HETATM   20  C   UNL     1     -11.899  10.654  69.486  1.00  0.00    -0.345 A  
HETATM   21  C   UNL     1      -9.953   9.502  70.402  1.00  0.00    -0.267 A  
HETATM   22  C   UNL     1     -11.194  10.118  70.583  1.00  0.00    -0.418 A  
HETATM   23  C   UNL     1      -9.463   9.401  69.099  1.00  0.00    -0.163 A  
HETATM   24 CL   UNL     1      -7.924   8.664  68.775  1.00  0.00    -0.113 Cl 
HETATM   25  C   UNL     1     -10.176   9.918  68.013  1.00  0.00    -0.219 A  
BRANCH  21  26
HETATM   26  N   UNL     1      -9.143   9.019  71.453  1.00  0.00    -0.238 N  
HETATM   27  H   UNL     1      -8.295   9.550  71.654  1.00  0.00     0.000 HD 
BRANCH  26  28
HETATM   28  C   UNL     1      -9.371   7.918  72.233  1.00  0.00    -0.180 C  
HETATM   29  O   UNL     1      -9.967   7.923  73.305  1.00  0.00    -0.303 OA 
BRANCH  28  30
HETATM   30  N   UNL     1      -8.854   6.762  71.691  1.00  0.00    -0.130 N  
HETATM   31  H   UNL     1      -7.846   6.606  71.695  1.00  0.00     0.000 HD 
BRANCH  30  32
HETATM   32  C   UNL     1      -9.720   5.780  71.122  1.00  0.00    -0.169 C  
HETATM   33  C   UNL     1     -11.055   6.114  70.526  1.00  0.00    -0.405 C  
HETATM   34  C   UNL     1      -9.909   5.751  69.629  1.00  0.00    -0.230 C  
ENDBRANCH  30  32
ENDBRANCH  28  30
ENDBRANCH  26  28
ENDBRANCH  21  26
ENDBRANCH  18  19
ENDBRANCH  11  18
ENDBRANCH   2   3
TORSDOF 8
ENDMDL
MODEL       20
REMARK 921   NORMALIZED FREE ENERGY PREDICTED BY IDOCK:   -6.19 KCAL/MOL
REMARK 922        TOTAL FREE ENERGY PREDICTED BY IDOCK:  -10.63 KCAL/MOL
REMARK 923 INTER-LIGAND FREE ENERGY PREDICTED BY IDOCK:   -9.33 KCAL/MOL
REMARK 924 INTRA-LIGAND FREE ENERGY PREDICTED BY IDOCK:   -1.29 KCAL/MOL
REMARK 927      BINDING AFFINITY PREDICTED BY RF-SCORE:    0.00 PKD
ROOT
HETATM    1  C   UNL     1     -10.101  17.799  68.546  1.00  0.00    -0.377 C  
HETATM    2  O   UNL     1     -11.112  16.959  67.993  1.00  0.00    -0.336 OA 
ENDROOT
BRANCH   2   3
HETATM    3  C   UNL     1     -11.445  15.861  68.743  1.00  0.00    -0.393 A  
HETATM    4  C   UNL     1     -11.451  14.594  68.143  1.00  0.00    -0.346 A  
HETATM    5  N   UNL     1     -12.688  15.173  72.053  1.00  0.00    -0.321 NA 
HETATM    6  C   UNL     1     -11.858  13.472  68.898  1.00  0.00    -0.384 A  
HETATM    7  C   UNL     1     -12.277  14.899  70.814  1.00  0.00    -0.325 A  
HETATM    8  C   UNL     1     -12.285  13.604  70.247  1.00  0.00    -0.423 A  
HETATM    9  C   UNL     1     -13.222  14.176  72.765  1.00  0.00    -0.509 A  
HETATM   10  C   UNL     1     -11.866  15.985  70.068  1.00  0.00    -0.241 A  
HETATM   11  C   UNL     1     -12.763  12.546  71.076  1.00  0.00    -0.225 A  
HETATM   12  C   UNL     1     -13.325  12.884  72.302  1.00  0.00    -0.597 A  
BRANCH   4  13
HETATM   13  C   UNL     1     -10.974  14.425  66.738  1.00  0.00    -0.314 C  
HETATM   14  H2  UNL     1      -9.010  14.048  67.344  1.00  0.00     0.000 HD 
HETATM   15  H1  UNL     1      -9.321  14.025  65.594  1.00  0.00     0.000 HD 
HETATM   16  O   UNL     1     -11.707  14.541  65.766  1.00  0.00    -0.358 OA 
HETATM   17  N   UNL     1      -9.647  14.141  66.554  1.00  0.00    -0.286 N  
ENDBRANCH   4  13
BRANCH  11  18
HETATM   18  O   UNL     1     -12.758  11.270  70.542  1.00  0.00    -0.253 OA 
BRANCH  18  19
HETATM   19  C   UNL     1     -11.774  10.329  70.795  1.00  0.00    -0.360 A  
HETATM   20  C   UNL     1     -10.787  10.210  69.807  1.00  0.00    -0.320 A  
HETATM   21  C   UNL     1      -9.861   8.212  70.858  1.00  0.00    -0.176 A  
HETATM   22  C   UNL     1      -9.835   9.171  69.842  1.00  0.00    -0.206 A  
HETATM   23  C   UNL     1     -10.833   8.345  71.851  1.00  0.00    -0.302 A  
HETATM   24 CL   UNL     1     -10.953   7.195  73.147  1.00  0.00    -0.347 Cl 
HETATM   25  C   UNL     1     -11.763   9.389  71.821  1.00  0.00    -0.444 A  
BRANCH  21  26
HETATM   26  N   UNL     1      -9.002   7.092  70.918  1.00  0.00    -0.151 N  
HETATM   27  H   UNL     1      -8.109   7.230  71.392  1.00  0.00     0.000 HD 
BRANCH  26  28
HETATM   28  C   UNL     1      -9.236   5.844  70.411  1.00  0.00    -0.158 C  
HETATM   29  O   UNL     1      -9.432   4.835  71.080  1.00  0.00    -0.146 OA 
BRANCH  28  30
HETATM   30  N   UNL     1      -9.231   5.817  69.033  1.00  0.00    -0.118 N  
HETATM   31  H   UNL     1      -8.359   5.971  68.526  1.00  0.00     0.000 HD 
BRANCH  30  32
HETATM   32  C   UNL     1     -10.437   5.574  68.310  1.00  0.00    -0.157 C  
HETATM   33  C   UNL     1     -10.931   6.475  67.217  1.00  0.00    -0.475 C  
HETATM   34  C   UNL     1     -10.350   5.137  66.872  1.00  0.00    -0.288 C  
ENDBRANCH  30  32
ENDBRANCH  28  30
ENDBRANCH  26  28
ENDBRANCH  21  26
ENDBRANCH  18  19
ENDBRANCH  11  18
ENDBRANCH   2   3
TORSDOF 8
ENDMDL
MODEL       21
REMARK 921   NORMALIZED FREE ENERGY PREDICTED BY IDOCK:   -6.19 KCAL/MOL
REMARK 922        TOTAL FREE ENERGY PREDICTED BY IDOCK:  -10.61 KCAL/MOL
REMARK 923 INTER-LIGAND FREE ENERGY PREDICTED BY IDOCK:   -9.06 KCAL/MOL
REMARK 924 INTRA-LIGAND FREE ENERGY PREDICTED BY IDOCK:   -1.55 KCAL/MOL
REMARK 927      BINDING AFFINITY PREDICTED BY RF-SCORE:    0.00 PKD
ROOT
HETATM    1  C   UNL     1     -10.521   9.550  68.293  1.00  0.00    -0.223 C  
HETATM    2  O   UNL     1     -11.611  10.267  67.718  1.00  0.00    -0.331 OA 
ENDROOT
BRANCH   2   3
HETATM    3  C   UNL     1     -11.744  11.568  68.126  1.00  0.00    -0.287 A  
HETATM    4  C   UNL     1     -11.497  12.604  67.214  1.00  0.00    -0.402 A  
HETATM    5  N   UNL     1     -12.342  13.350  71.200  1.00  0.00    -0.324 NA 
HETATM    6  C   UNL     1     -11.569  13.945  67.652  1.00  0.00    -0.381 A  
HETATM    7  C   UNL     1     -12.094  13.194  69.898  1.00  0.00    -0.287 A  
HETATM    8  C   UNL     1     -11.864  14.266  69.005  1.00  0.00    -0.370 A  
HETATM    9  C   UNL     1     -12.277  14.586  71.702  1.00  0.00    -0.331 A  
HETATM   10  C   UNL     1     -12.032  11.890  69.453  1.00  0.00    -0.350 A  
HETATM   11  C   UNL     1     -11.907  15.580  69.558  1.00  0.00    -0.372 A  
HETATM   12  C   UNL     1     -12.015  15.702  70.938  1.00  0.00    -0.440 A  
BRANCH   4  13
HETATM   13  C   UNL     1     -11.220  12.293  65.781  1.00  0.00    -0.337 C  
HETATM   14  H2  UNL     1     -13.083  13.007  65.161  1.00  0.00     0.000 HD 
HETATM   15  H1  UNL     1     -12.010  12.378  63.891  1.00  0.00     0.000 HD 
HETATM   16  O   UNL     1     -10.176  11.781  65.398  1.00  0.00    -0.242 OA 
HETATM   17  N   UNL     1     -12.199  12.590  64.871  1.00  0.00    -0.465 N  
ENDBRANCH   4  13
BRANCH  11  18
HETATM   18  O   UNL     1     -11.703  16.640  68.691  1.00  0.00    -0.097 OA 
BRANCH  18  19
HETATM   19  C   UNL     1     -10.463  17.005  68.194  1.00  0.00    -0.357 A  
HETATM   20  C   UNL     1     -10.409  17.215  66.810  1.00  0.00    -0.302 A  
HETATM   21  C   UNL     1      -7.974  17.373  66.848  1.00  0.00    -0.227 A  
HETATM   22  C   UNL     1      -9.181  17.408  66.144  1.00  0.00    -0.171 A  
HETATM   23  C   UNL     1      -8.034  17.183  68.229  1.00  0.00    -0.236 A  
HETATM   24 CL   UNL     1      -6.587  17.112  69.187  1.00  0.00    -0.221 Cl 
HETATM   25  C   UNL     1      -9.256  17.011  68.886  1.00  0.00    -0.215 A  
BRANCH  21  26
HETATM   26  N   UNL     1      -6.700  17.469  66.247  1.00  0.00    -0.256 N  
HETATM   27  H   UNL     1      -6.130  16.622  66.254  1.00  0.00     0.000 HD 
BRANCH  26  28
HETATM   28  C   UNL     1      -6.146  18.571  65.656  1.00  0.00    -0.243 C  
HETATM   29  O   UNL     1      -6.311  18.905  64.487  1.00  0.00    -0.486 OA 
BRANCH  28  30
HETATM   30  N   UNL     1      -5.356  19.300  66.518  1.00  0.00    -0.158 N  
HETATM   31  H   UNL     1      -4.444  18.939  66.800  1.00  0.00     0.000 HD 
BRANCH  30  32
HETATM   32  C   UNL     1      -5.805  20.558  67.021  1.00  0.00    -0.181 C  
HETATM   33  C   UNL     1      -7.244  20.849  67.327  1.00  0.00    -0.408 C  
HETATM   34  C   UNL     1      -6.272  20.648  68.449  1.00  0.00    -0.365 C  
ENDBRANCH  30  32
ENDBRANCH  28  30
ENDBRANCH  26  28
ENDBRANCH  21  26
ENDBRANCH  18  19
ENDBRANCH  11  18
ENDBRANCH   2   3
TORSDOF 8
ENDMDL
MODEL       22
REMARK 921   NORMALIZED FREE ENERGY PREDICTED BY IDOCK:   -6.17 KCAL/MOL
REMARK 922        TOTAL FREE ENERGY PREDICTED BY IDOCK:  -10.59 KCAL/MOL
REMARK 923 INTER-LIGAND FREE ENERGY PREDICTED BY IDOCK:   -9.41 KCAL/MOL
REMARK 924 INTRA-LIGAND FREE ENERGY PREDICTED BY IDOCK:   -1.18 KCAL/MOL
REMARK 927      BINDING AFFINITY PREDICTED BY RF-SCORE:    0.00 PKD
ROOT
HETATM    1  C   UNL     1     -10.519   5.856  73.211  1.00  0.00    -0.235 C  
HETATM    2  O   UNL     1     -11.285   7.059  73.238  1.00  0.00    -0.229 OA 
ENDROOT
BRANCH   2   3
HETATM    3  C   UNL     1     -10.964   7.986  72.282  1.00  0.00    -0.314 A  
HETATM    4  C   UNL     1     -11.983   8.553  71.504  1.00  0.00    -0.354 A  
HETATM    5  N   UNL     1      -7.984   9.378  70.813  1.00  0.00    -0.259 NA 
HETATM    6  C   UNL     1     -11.646   9.459  70.473  1.00  0.00    -0.291 A  
HETATM    7  C   UNL     1      -9.292   9.188  70.991  1.00  0.00    -0.263 A  
HETATM    8  C   UNL     1     -10.293   9.789  70.194  1.00  0.00    -0.335 A  
HETATM    9  C   UNL     1      -7.599  10.107  69.762  1.00  0.00    -0.170 A  
HETATM   10  C   UNL     1      -9.637   8.314  72.001  1.00  0.00    -0.316 A  
HETATM   11  C   UNL     1      -9.846  10.647  69.145  1.00  0.00    -0.200 A  
HETATM   12  C   UNL     1      -8.481  10.705  68.889  1.00  0.00    -0.154 A  
BRANCH   4  13
HETATM   13  C   UNL     1     -13.414   8.248  71.802  1.00  0.00    -0.352 C  
HETATM   14  H2  UNL     1     -13.632   9.947  72.999  1.00  0.00     0.000 HD 
HETATM   15  H1  UNL     1     -15.066   8.914  72.816  1.00  0.00     0.000 HD 
HETATM   16  O   UNL     1     -13.991   7.260  71.367  1.00  0.00    -0.398 OA 
HETATM   17  N   UNL     1     -14.089   9.122  72.613  1.00  0.00    -0.376 N  
ENDBRANCH   4  13
BRANCH  11  18
HETATM   18  O   UNL     1     -10.815  11.259  68.369  1.00  0.00    -0.180 OA 
BRANCH  18  19
HETATM   19  C   UNL     1     -11.053  12.623  68.362  1.00  0.00    -0.265 A  
HETATM   20  C   UNL     1     -10.455  13.332  67.311  1.00  0.00    -0.247 A  
HETATM   21  C   UNL     1     -11.039  15.476  68.316  1.00  0.00    -0.322 A  
HETATM   22  C   UNL     1     -10.456  14.741  67.281  1.00  0.00    -0.264 A  
HETATM   23  C   UNL     1     -11.650  14.768  69.351  1.00  0.00    -0.310 A  
HETATM   24 CL   UNL     1     -12.390  15.594  70.688  1.00  0.00    -0.446 Cl 
HETATM   25  C   UNL     1     -11.662  13.369  69.366  1.00  0.00    -0.382 A  
BRANCH  21  26
HETATM   26  N   UNL     1     -11.006  16.886  68.408  1.00  0.00    -0.342 N  
HETATM   27  H   UNL     1     -11.883  17.374  68.221  1.00  0.00     0.000 HD 
BRANCH  26  28
HETATM   28  C   UNL     1      -9.928  17.668  68.720  1.00  0.00    -0.358 C  
HETATM   29  O   UNL     1      -8.813  17.250  69.012  1.00  0.00    -0.207 OA 
BRANCH  28  30
HETATM   30  N   UNL     1     -10.215  19.016  68.676  1.00  0.00    -0.450 N  
HETATM   31  H   UNL     1     -10.732  19.449  69.441  1.00  0.00     0.000 HD 
BRANCH  30  32
HETATM   32  C   UNL     1      -9.792  19.810  67.568  1.00  0.00    -0.389 C  
HETATM   33  C   UNL     1      -9.077  19.238  66.379  1.00  0.00    -0.381 C  
HETATM   34  C   UNL     1     -10.508  19.665  66.252  1.00  0.00    -0.621 C  
ENDBRANCH  30  32
ENDBRANCH  28  30
ENDBRANCH  26  28
ENDBRANCH  21  26
ENDBRANCH  18  19
ENDBRANCH  11  18
ENDBRANCH   2   3
TORSDOF 8
ENDMDL
MODEL       23
REMARK 921   NORMALIZED FREE ENERGY PREDICTED BY IDOCK:   -6.16 KCAL/MOL
REMARK 922        TOTAL FREE ENERGY PREDICTED BY IDOCK:  -10.57 KCAL/MOL
REMARK 923 INTER-LIGAND FREE ENERGY PREDICTED BY IDOCK:   -9.17 KCAL/MOL
REMARK 924 INTRA-LIGAND FREE ENERGY PREDICTED BY IDOCK:   -1.40 KCAL/MOL
REMARK 927      BINDING AFFINITY PREDICTED BY RF-SCORE:    0.00 PKD
ROOT
HETATM    1  C   UNL     1     -11.205   9.201  71.663  1.00  0.00    -0.377 C  
HETATM    2  O   UNL     1     -11.854   9.518  70.433  1.00  0.00    -0.228 OA 
ENDROOT
BRANCH   2   3
HETATM    3  C   UNL     1     -11.924  10.852  70.128  1.00  0.00    -0.352 A  
HETATM    4  C   UNL     1     -11.343  11.317  68.940  1.00  0.00    -0.340 A  
HETATM    5  N   UNL     1     -13.022  13.895  71.713  1.00  0.00    -0.345 NA 
HETATM    6  C   UNL     1     -11.357  12.701  68.657  1.00  0.00    -0.331 A  
HETATM    7  C   UNL     1     -12.491  13.130  70.758  1.00  0.00    -0.308 A  
HETATM    8  C   UNL     1     -11.926  13.635  69.565  1.00  0.00    -0.397 A  
HETATM    9  C   UNL     1     -12.932  15.220  71.570  1.00  0.00    -0.412 A  
HETATM   10  C   UNL     1     -12.480  11.774  71.015  1.00  0.00    -0.411 A  
HETATM   11  C   UNL     1     -11.943  15.052  69.399  1.00  0.00    -0.303 A  
HETATM   12  C   UNL     1     -12.363  15.827  70.473  1.00  0.00    -0.388 A  
BRANCH   4  13
HETATM   13  C   UNL     1     -10.770  10.352  67.955  1.00  0.00    -0.261 C  
HETATM   14  H2  UNL     1      -8.971  10.192  69.005  1.00  0.00     0.000 HD 
HETATM   15  H1  UNL     1      -9.112   9.231  67.517  1.00  0.00     0.000 HD 
HETATM   16  O   UNL     1     -11.375   9.978  66.959  1.00  0.00    -0.062 OA 
HETATM   17  N   UNL     1      -9.502   9.890  68.190  1.00  0.00    -0.138 N  
ENDBRANCH   4  13
BRANCH  11  18
HETATM   18  O   UNL     1     -11.412  15.560  68.226  1.00  0.00    -0.341 OA 
BRANCH  18  19
HETATM   19  C   UNL     1     -10.477  16.580  68.178  1.00  0.00    -0.313 A  
HETATM   20  C   UNL     1      -9.230  16.280  68.741  1.00  0.00    -0.240 A  
HETATM   21  C   UNL     1      -8.506  18.605  68.577  1.00  0.00    -0.338 A  
HETATM   22  C   UNL     1      -8.250  17.277  68.929  1.00  0.00    -0.181 A  
HETATM   23  C   UNL     1      -9.742  18.896  67.999  1.00  0.00    -0.337 A  
HETATM   24 CL   UNL     1     -10.156  20.519  67.540  1.00  0.00    -0.507 Cl 
HETATM   25  C   UNL     1     -10.703  17.900  67.797  1.00  0.00    -0.339 A  
BRANCH  21  26
HETATM   26  N   UNL     1      -7.616  19.676  68.812  1.00  0.00    -0.339 N  
HETATM   27  H   UNL     1      -7.622  20.074  69.752  1.00  0.00     0.000 HD 
BRANCH  26  28
HETATM   28  C   UNL     1      -6.745  20.238  67.919  1.00  0.00    -0.284 C  
HETATM   29  O   UNL     1      -6.862  21.354  67.425  1.00  0.00    -0.573 OA 
BRANCH  28  30
HETATM   30  N   UNL     1      -5.687  19.410  67.611  1.00  0.00    -0.190 N  
HETATM   31  H   UNL     1      -5.058  19.093  68.349  1.00  0.00     0.000 HD 
BRANCH  30  32
HETATM   32  C   UNL     1      -5.464  18.993  66.264  1.00  0.00    -0.156 C  
HETATM   33  C   UNL     1      -5.358  17.551  65.862  1.00  0.00    -0.126 C  
HETATM   34  C   UNL     1      -6.587  18.334  65.509  1.00  0.00    -0.254 C  
ENDBRANCH  30  32
ENDBRANCH  28  30
ENDBRANCH  26  28
ENDBRANCH  21  26
ENDBRANCH  18  19
ENDBRANCH  11  18
ENDBRANCH   2   3
TORSDOF 8
ENDMDL
MODEL       24
REMARK 921   NORMALIZED FREE ENERGY PREDICTED BY IDOCK:   -6.15 KCAL/MOL
REMARK 922        TOTAL FREE ENERGY PREDICTED BY IDOCK:  -10.56 KCAL/MOL
REMARK 923 INTER-LIGAND FREE ENERGY PREDICTED BY IDOCK:   -9.29 KCAL/MOL
REMARK 924 INTRA-LIGAND FREE ENERGY PREDICTED BY IDOCK:   -1.28 KCAL/MOL
REMARK 927      BINDING AFFINITY PREDICTED BY RF-SCORE:    0.00 PKD
ROOT
HETATM    1  C   UNL     1     -12.945  16.208  73.789  1.00  0.00    -0.461 C  
HETATM    2  O   UNL     1     -12.260  15.066  73.279  1.00  0.00    -0.382 OA 
ENDROOT
BRANCH   2   3
HETATM    3  C   UNL     1     -12.154  15.001  71.914  1.00  0.00    -0.372 A  
HETATM    4  C   UNL     1     -12.654  13.879  71.238  1.00  0.00    -0.450 A  
HETATM    5  N   UNL     1     -10.596  16.888  69.271  1.00  0.00    -0.345 NA 
HETATM    6  C   UNL     1     -12.484  13.782  69.838  1.00  0.00    -0.259 A  
HETATM    7  C   UNL     1     -11.293  15.895  69.824  1.00  0.00    -0.347 A  
HETATM    8  C   UNL     1     -11.795  14.786  69.106  1.00  0.00    -0.340 A  
HETATM    9  C   UNL     1     -10.276  16.777  67.978  1.00  0.00    -0.300 A  
HETATM   10  C   UNL     1     -11.477  15.982  71.189  1.00  0.00    -0.470 A  
HETATM   11  C   UNL     1     -11.525  14.756  67.705  1.00  0.00    -0.345 A  
HETATM   12  C   UNL     1     -10.670  15.721  67.187  1.00  0.00    -0.312 A  
BRANCH   4  13
HETATM   13  C   UNL     1     -13.412  12.829  71.980  1.00  0.00    -0.444 C  
HETATM   14  H2  UNL     1     -12.201  11.292  71.245  1.00  0.00     0.000 HD 
HETATM   15  H1  UNL     1     -13.514  10.815  72.344  1.00  0.00     0.000 HD 
HETATM   16  O   UNL     1     -14.378  13.079  72.688  1.00  0.00    -0.565 OA 
HETATM   17  N   UNL     1     -12.997  11.532  71.836  1.00  0.00    -0.419 N  
ENDBRANCH   4  13
BRANCH  11  18
HETATM   18  O   UNL     1     -12.028  13.686  66.985  1.00  0.00    -0.388 OA 
BRANCH  18  19
HETATM   19  C   UNL     1     -11.312  12.532  66.712  1.00  0.00    -0.334 A  
HETATM   20  C   UNL     1     -10.820  12.425  65.405  1.00  0.00    -0.320 A  
HETATM   21  C   UNL     1     -10.154  10.105  65.759  1.00  0.00    -0.254 A  
HETATM   22  C   UNL     1     -10.238  11.230  64.935  1.00  0.00    -0.341 A  
HETATM   23  C   UNL     1     -10.628  10.221  67.066  1.00  0.00    -0.239 A  
HETATM   24 CL   UNL     1     -10.578   8.873  68.160  1.00  0.00    -0.244 Cl 
HETATM   25  C   UNL     1     -11.187  11.415  67.532  1.00  0.00    -0.356 A  
BRANCH  21  26
HETATM   26  N   UNL     1      -9.668   8.846  65.340  1.00  0.00    -0.420 N  
HETATM   27  H   UNL     1     -10.311   8.269  64.797  1.00  0.00     0.000 HD 
BRANCH  26  28
HETATM   28  C   UNL     1      -8.430   8.317  65.581  1.00  0.00    -0.158 C  
HETATM   29  O   UNL     1      -8.202   7.138  65.831  1.00  0.00    -0.118 OA 
BRANCH  28  30
HETATM   30  N   UNL     1      -7.425   9.258  65.520  1.00  0.00    -0.089 N  
HETATM   31  H   UNL     1      -7.301   9.814  64.673  1.00  0.00     0.000 HD 
BRANCH  30  32
HETATM   32  C   UNL     1      -6.555   9.461  66.633  1.00  0.00    -0.068 C  
HETATM   33  C   UNL     1      -6.001  10.806  67.003  1.00  0.00    -0.063 C  
HETATM   34  C   UNL     1      -7.077  10.188  67.843  1.00  0.00    -0.085 C  
ENDBRANCH  30  32
ENDBRANCH  28  30
ENDBRANCH  26  28
ENDBRANCH  21  26
ENDBRANCH  18  19
ENDBRANCH  11  18
ENDBRANCH   2   3
TORSDOF 8
ENDMDL
MODEL       25
REMARK 921   NORMALIZED FREE ENERGY PREDICTED BY IDOCK:   -6.13 KCAL/MOL
REMARK 922        TOTAL FREE ENERGY PREDICTED BY IDOCK:  -10.54 KCAL/MOL
REMARK 923 INTER-LIGAND FREE ENERGY PREDICTED BY IDOCK:   -9.46 KCAL/MOL
REMARK 924 INTRA-LIGAND FREE ENERGY PREDICTED BY IDOCK:   -1.08 KCAL/MOL
REMARK 927      BINDING AFFINITY PREDICTED BY RF-SCORE:    0.00 PKD
ROOT
HETATM    1  C   UNL     1     -11.425  16.142  64.343  1.00  0.00    -0.193 C  
HETATM    2  O   UNL     1     -12.121  14.900  64.432  1.00  0.00    -0.473 OA 
ENDROOT
BRANCH   2   3
HETATM    3  C   UNL     1     -11.924  14.194  65.589  1.00  0.00    -0.396 A  
HETATM    4  C   UNL     1     -11.698  12.812  65.521  1.00  0.00    -0.436 A  
HETATM    5  N   UNL     1     -12.080  14.795  69.138  1.00  0.00    -0.276 NA 
HETATM    6  C   UNL     1     -11.561  12.072  66.718  1.00  0.00    -0.391 A  
HETATM    7  C   UNL     1     -11.915  14.090  68.018  1.00  0.00    -0.350 A  
HETATM    8  C   UNL     1     -11.673  12.697  67.989  1.00  0.00    -0.402 A  
HETATM    9  C   UNL     1     -12.108  14.126  70.295  1.00  0.00    -0.342 A  
HETATM   10  C   UNL     1     -12.034  14.801  66.841  1.00  0.00    -0.212 A  
HETATM   11  C   UNL     1     -11.604  12.034  69.250  1.00  0.00    -0.321 A  
HETATM   12  C   UNL     1     -11.931  12.764  70.387  1.00  0.00    -0.331 A  
BRANCH   4  13
HETATM   13  C   UNL     1     -11.542  12.139  64.198  1.00  0.00    -0.390 C  
HETATM   14  H2  UNL     1      -9.479  12.473  64.158  1.00  0.00     0.000 HD 
HETATM   15  H1  UNL     1     -10.174  11.616  62.764  1.00  0.00     0.000 HD 
HETATM   16  O   UNL     1     -12.482  11.664  63.576  1.00  0.00    -0.442 OA 
HETATM   17  N   UNL     1     -10.280  12.076  63.668  1.00  0.00    -0.416 N  
ENDBRANCH   4  13
BRANCH  11  18
HETATM   18  O   UNL     1     -11.348  10.674  69.239  1.00  0.00    -0.244 OA 
BRANCH  18  19
HETATM   19  C   UNL     1     -11.468   9.855  70.349  1.00  0.00    -0.301 A  
HETATM   20  C   UNL     1     -10.281   9.625  71.058  1.00  0.00    -0.252 A  
HETATM   21  C   UNL     1     -11.335   7.904  72.427  1.00  0.00    -0.369 A  
HETATM   22  C   UNL     1     -10.216   8.670  72.092  1.00  0.00    -0.394 A  
HETATM   23  C   UNL     1     -12.521   8.148  71.733  1.00  0.00    -0.330 A  
HETATM   24 CL   UNL     1     -13.961   7.238  72.070  1.00  0.00    -0.314 Cl 
HETATM   25  C   UNL     1     -12.584   9.111  70.720  1.00  0.00    -0.005 A  
BRANCH  21  26
HETATM   26  N   UNL     1     -11.332   6.867  73.387  1.00  0.00    -0.470 N  
HETATM   27  H   UNL     1     -11.739   7.088  74.296  1.00  0.00     0.000 HD 
BRANCH  26  28
HETATM   28  C   UNL     1     -10.843   5.599  73.231  1.00  0.00    -0.282 C  
HETATM   29  O   UNL     1     -11.051   4.662  73.994  1.00  0.00    -0.259 OA 
BRANCH  28  30
HETATM   30  N   UNL     1     -10.065   5.461  72.101  1.00  0.00    -0.184 N  
HETATM   31  H   UNL     1      -9.091   5.764  72.116  1.00  0.00     0.000 HD 
BRANCH  30  32
HETATM   32  C   UNL     1     -10.613   4.897  70.910  1.00  0.00    -0.007 C  
HETATM   33  C   UNL     1     -10.738   5.661  69.626  1.00  0.00    -0.398 C  
HETATM   34  C   UNL     1      -9.695   4.593  69.757  1.00  0.00    -0.280 C  
ENDBRANCH  30  32
ENDBRANCH  28  30
ENDBRANCH  26  28
ENDBRANCH  21  26
ENDBRANCH  18  19
ENDBRANCH  11  18
ENDBRANCH   2   3
TORSDOF 8
ENDMDL
MODEL       26
REMARK 921   NORMALIZED FREE ENERGY PREDICTED BY IDOCK:   -6.13 KCAL/MOL
REMARK 922        TOTAL FREE ENERGY PREDICTED BY IDOCK:  -10.53 KCAL/MOL
REMARK 923 INTER-LIGAND FREE ENERGY PREDICTED BY IDOCK:   -8.96 KCAL/MOL
REMARK 924 INTRA-LIGAND FREE ENERGY PREDICTED BY IDOCK:   -1.57 KCAL/MOL
REMARK 927      BINDING AFFINITY PREDICTED BY RF-SCORE:    0.00 PKD
ROOT
HETATM    1  C   UNL     1     -10.333  16.758  68.292  1.00  0.00    -0.319 C  
HETATM    2  O   UNL     1     -11.599  16.323  68.786  1.00  0.00    -0.342 OA 
ENDROOT
BRANCH   2   3
HETATM    3  C   UNL     1     -11.742  14.968  68.934  1.00  0.00    -0.328 A  
HETATM    4  C   UNL     1     -12.267  14.459  70.130  1.00  0.00    -0.401 A  
HETATM    5  N   UNL     1     -10.861  11.982  67.122  1.00  0.00    -0.242 NA 
HETATM    6  C   UNL     1     -12.353  13.059  70.308  1.00  0.00    -0.311 A  
HETATM    7  C   UNL     1     -11.361  12.709  68.122  1.00  0.00    -0.290 A  
HETATM    8  C   UNL     1     -11.896  12.158  69.309  1.00  0.00    -0.370 A  
HETATM    9  C   UNL     1     -10.779  10.660  67.295  1.00  0.00    -0.285 A  
HETATM   10  C   UNL     1     -11.294  14.078  67.958  1.00  0.00    -0.320 A  
HETATM   11  C   UNL     1     -11.889  10.735  69.413  1.00  0.00    -0.298 A  
HETATM   12  C   UNL     1     -11.225  10.015  68.427  1.00  0.00    -0.187 A  
BRANCH   4  13
HETATM   13  C   UNL     1     -12.786  15.385  71.179  1.00  0.00    -0.455 C  
HETATM   14  H2  UNL     1     -10.871  15.797  71.907  1.00  0.00     0.000 HD 
HETATM   15  H1  UNL     1     -12.224  16.613  72.721  1.00  0.00     0.000 HD 
HETATM   16  O   UNL     1     -13.978  15.618  71.333  1.00  0.00    -0.540 OA 
HETATM   17  N   UNL     1     -11.869  15.980  72.005  1.00  0.00    -0.496 N  
ENDBRANCH   4  13
BRANCH  11  18
HETATM   18  O   UNL     1     -12.428  10.180  70.561  1.00  0.00    -0.277 OA 
BRANCH  18  19
HETATM   19  C   UNL     1     -11.906   9.069  71.201  1.00  0.00    -0.301 A  
HETATM   20  C   UNL     1     -12.715   7.925  71.175  1.00  0.00    -0.175 A  
HETATM   21  C   UNL     1     -11.273   6.770  72.769  1.00  0.00    -0.231 A  
HETATM   22  C   UNL     1     -12.399   6.784  71.940  1.00  0.00    -0.369 A  
HETATM   23  C   UNL     1     -10.460   7.904  72.778  1.00  0.00    -0.346 A  
HETATM   24 CL   UNL     1      -9.047   7.985  73.785  1.00  0.00    -0.311 Cl 
HETATM   25  C   UNL     1     -10.769   9.026  72.002  1.00  0.00    -0.333 A  
BRANCH  21  26
HETATM   26  N   UNL     1     -10.934   5.705  73.632  1.00  0.00    -0.424 N  
HETATM   27  H   UNL     1     -11.065   5.870  74.631  1.00  0.00     0.000 HD 
BRANCH  26  28
HETATM   28  C   UNL     1     -10.450   4.476  73.277  1.00  0.00    -0.195 C  
HETATM   29  O   UNL     1     -11.103   3.438  73.257  1.00  0.00    -0.186 OA 
BRANCH  28  30
HETATM   30  N   UNL     1      -9.116   4.506  72.932  1.00  0.00    -0.120 N  
HETATM   31  H   UNL     1      -8.411   4.686  73.647  1.00  0.00     0.000 HD 
BRANCH  30  32
HETATM   32  C   UNL     1      -8.714   4.286  71.580  1.00  0.00    -0.113 C  
HETATM   33  C   UNL     1      -9.583   4.620  70.404  1.00  0.00    -0.271 C  
HETATM   34  C   UNL     1      -8.389   5.473  70.714  1.00  0.00    -0.122 C  
ENDBRANCH  30  32
ENDBRANCH  28  30
ENDBRANCH  26  28
ENDBRANCH  21  26
ENDBRANCH  18  19
ENDBRANCH  11  18
ENDBRANCH   2   3
TORSDOF 8
ENDMDL
MODEL       27
REMARK 921   NORMALIZED FREE ENERGY PREDICTED BY IDOCK:   -6.13 KCAL/MOL
REMARK 922        TOTAL FREE ENERGY PREDICTED BY IDOCK:  -10.52 KCAL/MOL
REMARK 923 INTER-LIGAND FREE ENERGY PREDICTED BY IDOCK:   -9.27 KCAL/MOL
REMARK 924 INTRA-LIGAND FREE ENERGY PREDICTED BY IDOCK:   -1.26 KCAL/MOL
REMARK 927      BINDING AFFINITY PREDICTED BY RF-SCORE:    0.00 PKD
ROOT
HETATM    1  C   UNL     1     -11.130   4.372  73.414  1.00  0.00    -0.305 C  
HETATM    2  O   UNL     1     -10.280   4.883  72.389  1.00  0.00    -0.186 OA 
ENDROOT
BRANCH   2   3
HETATM    3  C   UNL     1     -10.601   6.130  71.921  1.00  0.00    -0.220 A  
HETATM    4  C   UNL     1      -9.613   6.907  71.300  1.00  0.00    -0.165 A  
HETATM    5  N   UNL     1     -13.417   8.373  72.031  1.00  0.00    -0.352 NA 
HETATM    6  C   UNL     1      -9.927   8.219  70.878  1.00  0.00    -0.223 A  
HETATM    7  C   UNL     1     -12.183   7.966  71.733  1.00  0.00    -0.310 A  
HETATM    8  C   UNL     1     -11.217   8.775  71.092  1.00  0.00    -0.339 A  
HETATM    9  C   UNL     1     -13.725   9.651  71.790  1.00  0.00    -0.270 A  
HETATM   10  C   UNL     1     -11.865   6.683  72.130  1.00  0.00    -0.337 A  
HETATM   11  C   UNL     1     -11.617  10.101  70.753  1.00  0.00    -0.357 A  
HETATM   12  C   UNL     1     -12.852  10.545  71.211  1.00  0.00    -0.532 A  
BRANCH   4  13
HETATM   13  C   UNL     1      -8.262   6.332  71.033  1.00  0.00    -0.123 C  
HETATM   14  H2  UNL     1      -8.904   5.368  69.294  1.00  0.00     0.000 HD 
HETATM   15  H1  UNL     1      -7.195   5.158  69.735  1.00  0.00     0.000 HD 
HETATM   16  O   UNL     1      -7.300   6.520  71.766  1.00  0.00    -0.085 OA 
HETATM   17  N   UNL     1      -8.118   5.550  69.918  1.00  0.00    -0.095 N  
ENDBRANCH   4  13
BRANCH  11  18
HETATM   18  O   UNL     1     -10.689  10.899  70.106  1.00  0.00    -0.126 OA 
BRANCH  18  19
HETATM   19  C   UNL     1     -10.872  11.430  68.841  1.00  0.00    -0.215 A  
HETATM   20  C   UNL     1     -11.679  12.574  68.780  1.00  0.00    -0.371 A  
HETATM   21  C   UNL     1     -11.744  12.497  66.342  1.00  0.00    -0.397 A  
HETATM   22  C   UNL     1     -12.102  13.109  67.547  1.00  0.00    -0.300 A  
HETATM   23  C   UNL     1     -10.925  11.370  66.406  1.00  0.00    -0.260 A  
HETATM   24 CL   UNL     1     -10.439  10.533  64.964  1.00  0.00    -0.307 Cl 
HETATM   25  C   UNL     1     -10.493  10.854  67.632  1.00  0.00    -0.244 A  
BRANCH  21  26
HETATM   26  N   UNL     1     -12.197  12.916  65.072  1.00  0.00    -0.437 N  
HETATM   27  H   UNL     1     -12.742  12.239  64.537  1.00  0.00     0.000 HD 
BRANCH  26  28
HETATM   28  C   UNL     1     -11.986  14.131  64.479  1.00  0.00    -0.458 C  
HETATM   29  O   UNL     1     -12.848  14.807  63.927  1.00  0.00    -0.694 OA 
BRANCH  28  30
HETATM   30  N   UNL     1     -10.673  14.544  64.558  1.00  0.00    -0.618 N  
HETATM   31  H   UNL     1      -9.927  13.925  64.241  1.00  0.00     0.000 HD 
BRANCH  30  32
HETATM   32  C   UNL     1     -10.351  15.832  65.081  1.00  0.00    -0.299 C  
HETATM   33  C   UNL     1     -10.570  16.210  66.516  1.00  0.00    -0.268 C  
HETATM   34  C   UNL     1      -9.178  15.968  66.015  1.00  0.00    -0.375 C  
ENDBRANCH  30  32
ENDBRANCH  28  30
ENDBRANCH  26  28
ENDBRANCH  21  26
ENDBRANCH  18  19
ENDBRANCH  11  18
ENDBRANCH   2   3
TORSDOF 8
ENDMDL
MODEL       28
REMARK 921   NORMALIZED FREE ENERGY PREDICTED BY IDOCK:   -6.12 KCAL/MOL
REMARK 922        TOTAL FREE ENERGY PREDICTED BY IDOCK:  -10.52 KCAL/MOL
REMARK 923 INTER-LIGAND FREE ENERGY PREDICTED BY IDOCK:   -9.44 KCAL/MOL
REMARK 924 INTRA-LIGAND FREE ENERGY PREDICTED BY IDOCK:   -1.08 KCAL/MOL
REMARK 927      BINDING AFFINITY PREDICTED BY RF-SCORE:    0.00 PKD
ROOT
HETATM    1  C   UNL     1     -10.610  18.547  65.935  1.00  0.00    -0.300 C  
HETATM    2  O   UNL     1     -10.767  17.392  65.113  1.00  0.00    -0.684 OA 
ENDROOT
BRANCH   2   3
HETATM    3  C   UNL     1     -10.194  16.243  65.592  1.00  0.00    -0.343 A  
HETATM    4  C   UNL     1     -10.884  15.028  65.473  1.00  0.00    -0.360 A  
HETATM    5  N   UNL     1      -7.278  15.311  67.491  1.00  0.00    -0.181 NA 
HETATM    6  C   UNL     1     -10.323  13.855  66.026  1.00  0.00    -0.310 A  
HETATM    7  C   UNL     1      -8.424  15.131  66.833  1.00  0.00    -0.244 A  
HETATM    8  C   UNL     1      -9.084  13.886  66.722  1.00  0.00    -0.238 A  
HETATM    9  C   UNL     1      -6.775  14.268  68.159  1.00  0.00    -0.128 A  
HETATM   10  C   UNL     1      -8.979  16.266  66.278  1.00  0.00    -0.366 A  
HETATM   11  C   UNL     1      -8.461  12.772  67.360  1.00  0.00    -0.191 A  
HETATM   12  C   UNL     1      -7.354  13.019  68.163  1.00  0.00    -0.118 A  
BRANCH   4  13
HETATM   13  C   UNL     1     -12.169  14.965  64.716  1.00  0.00    -0.284 C  
HETATM   14  H2  UNL     1     -12.881  13.367  65.860  1.00  0.00     0.000 HD 
HETATM   15  H1  UNL     1     -13.954  13.966  64.575  1.00  0.00     0.000 HD 
HETATM   16  O   UNL     1     -12.431  15.711  63.782  1.00  0.00    -0.642 OA 
HETATM   17  N   UNL     1     -13.076  14.010  65.092  1.00  0.00    -0.241 N  
ENDBRANCH   4  13
BRANCH  11  18
HETATM   18  O   UNL     1      -9.086  11.543  67.242  1.00  0.00    -0.160 OA 
BRANCH  18  19
HETATM   19  C   UNL     1      -9.780  10.926  68.269  1.00  0.00    -0.165 A  
HETATM   20  C   UNL     1     -11.142  11.246  68.351  1.00  0.00    -0.296 A  
HETATM   21  C   UNL     1     -11.359  10.124  70.507  1.00  0.00    -0.338 A  
HETATM   22  C   UNL     1     -11.926  10.841  69.451  1.00  0.00    -0.353 A  
HETATM   23  C   UNL     1     -10.007   9.791  70.413  1.00  0.00    -0.233 A  
HETATM   24 CL   UNL     1      -9.210   8.913  71.682  1.00  0.00    -0.331 Cl 
HETATM   25  C   UNL     1      -9.238  10.179  69.311  1.00  0.00    -0.220 A  
BRANCH  21  26
HETATM   26  N   UNL     1     -12.051   9.758  71.683  1.00  0.00    -0.398 N  
HETATM   27  H   UNL     1     -11.864  10.320  72.514  1.00  0.00     0.000 HD 
BRANCH  26  28
HETATM   28  C   UNL     1     -12.945   8.733  71.830  1.00  0.00    -0.376 C  
HETATM   29  O   UNL     1     -14.115   8.759  71.465  1.00  0.00    -0.395 OA 
BRANCH  28  30
HETATM   30  N   UNL     1     -12.396   7.629  72.447  1.00  0.00    -0.527 N  
HETATM   31  H   UNL     1     -12.138   7.676  73.433  1.00  0.00     0.000 HD 
BRANCH  30  32
HETATM   32  C   UNL     1     -12.188   6.421  71.716  1.00  0.00    -0.256 C  
HETATM   33  C   UNL     1     -11.619   6.394  70.328  1.00  0.00    -0.451 C  
HETATM   34  C   UNL     1     -10.780   5.942  71.485  1.00  0.00    -0.313 C  
ENDBRANCH  30  32
ENDBRANCH  28  30
ENDBRANCH  26  28
ENDBRANCH  21  26
ENDBRANCH  18  19
ENDBRANCH  11  18
ENDBRANCH   2   3
TORSDOF 8
ENDMDL
MODEL       29
REMARK 921   NORMALIZED FREE ENERGY PREDICTED BY IDOCK:   -6.12 KCAL/MOL
REMARK 922        TOTAL FREE ENERGY PREDICTED BY IDOCK:  -10.52 KCAL/MOL
REMARK 923 INTER-LIGAND FREE ENERGY PREDICTED BY IDOCK:   -9.31 KCAL/MOL
REMARK 924 INTRA-LIGAND FREE ENERGY PREDICTED BY IDOCK:   -1.21 KCAL/MOL
REMARK 927      BINDING AFFINITY PREDICTED BY RF-SCORE:    0.00 PKD
ROOT
HETATM    1  C   UNL     1     -10.783   7.482  73.189  1.00  0.00    -0.398 C  
HETATM    2  O   UNL     1     -11.801   7.494  72.190  1.00  0.00    -0.287 OA 
ENDROOT
BRANCH   2   3
HETATM    3  C   UNL     1     -11.804   8.586  71.362  1.00  0.00    -0.296 A  
HETATM    4  C   UNL     1     -11.187   8.498  70.106  1.00  0.00    -0.139 A  
HETATM    5  N   UNL     1     -12.777  12.051  71.524  1.00  0.00    -0.309 NA 
HETATM    6  C   UNL     1     -11.132   9.643  69.280  1.00  0.00    -0.149 A  
HETATM    7  C   UNL     1     -12.270  10.941  70.984  1.00  0.00    -0.358 A  
HETATM    8  C   UNL     1     -11.668  10.888  69.706  1.00  0.00    -0.413 A  
HETATM    9  C   UNL     1     -12.622  13.196  70.852  1.00  0.00    -0.295 A  
HETATM   10  C   UNL     1     -12.327   9.812  71.775  1.00  0.00    -0.470 A  
HETATM   11  C   UNL     1     -11.616  12.111  68.972  1.00  0.00    -0.319 A  
HETATM   12  C   UNL     1     -12.012  13.275  69.620  1.00  0.00    -0.376 A  
BRANCH   4  13
HETATM   13  C   UNL     1     -10.649   7.193  69.622  1.00  0.00    -0.234 C  
HETATM   14  H2  UNL     1      -8.687   7.697  70.135  1.00  0.00     0.000 HD 
HETATM   15  H1  UNL     1      -8.932   6.095  69.405  1.00  0.00     0.000 HD 
HETATM   16  O   UNL     1     -11.353   6.323  69.126  1.00  0.00    -0.395 OA 
HETATM   17  N   UNL     1      -9.299   6.986  69.736  1.00  0.00    -0.147 N  
ENDBRANCH   4  13
BRANCH  11  18
HETATM   18  O   UNL     1     -11.047  12.070  67.711  1.00  0.00    -0.221 OA 
BRANCH  18  19
HETATM   19  C   UNL     1     -10.340  13.119  67.147  1.00  0.00    -0.247 A  
HETATM   20  C   UNL     1      -9.067  13.345  67.687  1.00  0.00    -0.203 A  
HETATM   21  C   UNL     1      -8.831  15.441  66.461  1.00  0.00    -0.312 A  
HETATM   22  C   UNL     1      -8.315  14.486  67.341  1.00  0.00    -0.217 A  
HETATM   23  C   UNL     1     -10.091  15.204  65.911  1.00  0.00    -0.325 A  
HETATM   24 CL   UNL     1     -10.820  16.339  64.818  1.00  0.00    -0.368 Cl 
HETATM   25  C   UNL     1     -10.824  14.060  66.244  1.00  0.00    -0.291 A  
BRANCH  21  26
HETATM   26  N   UNL     1      -8.182  16.652  66.132  1.00  0.00    -0.317 N  
HETATM   27  H   UNL     1      -7.808  16.724  65.186  1.00  0.00     0.000 HD 
BRANCH  26  28
HETATM   28  C   UNL     1      -8.002  17.739  66.943  1.00  0.00    -0.226 C  
HETATM   29  O   UNL     1      -7.660  17.694  68.120  1.00  0.00    -0.218 OA 
BRANCH  28  30
HETATM   30  N   UNL     1      -8.249  18.933  66.300  1.00  0.00    -0.291 N  
HETATM   31  H   UNL     1      -7.615  19.256  65.568  1.00  0.00     0.000 HD 
BRANCH  30  32
HETATM   32  C   UNL     1      -9.385  19.722  66.651  1.00  0.00    -0.387 C  
HETATM   33  C   UNL     1     -10.651  19.736  65.845  1.00  0.00    -0.557 C  
HETATM   34  C   UNL     1     -10.619  19.034  67.169  1.00  0.00    -0.545 C  
ENDBRANCH  30  32
ENDBRANCH  28  30
ENDBRANCH  26  28
ENDBRANCH  21  26
ENDBRANCH  18  19
ENDBRANCH  11  18
ENDBRANCH   2   3
TORSDOF 8
ENDMDL
MODEL       30
REMARK 921   NORMALIZED FREE ENERGY PREDICTED BY IDOCK:   -6.12 KCAL/MOL
REMARK 922        TOTAL FREE ENERGY PREDICTED BY IDOCK:  -10.51 KCAL/MOL
REMARK 923 INTER-LIGAND FREE ENERGY PREDICTED BY IDOCK:   -9.00 KCAL/MOL
REMARK 924 INTRA-LIGAND FREE ENERGY PREDICTED BY IDOCK:   -1.52 KCAL/MOL
REMARK 927      BINDING AFFINITY PREDICTED BY RF-SCORE:    0.00 PKD
ROOT
HETATM    1  C   UNL     1      -9.030   7.438  68.258  1.00  0.00    -0.130 C  
HETATM    2  O   UNL     1     -10.334   7.984  68.062  1.00  0.00    -0.202 OA 
ENDROOT
BRANCH   2   3
HETATM    3  C   UNL     1     -10.374   9.223  67.479  1.00  0.00    -0.262 A  
HETATM    4  C   UNL     1     -10.689  10.342  68.262  1.00  0.00    -0.275 A  
HETATM    5  N   UNL     1     -10.155  10.616  64.164  1.00  0.00    -0.347 NA 
HETATM    6  C   UNL     1     -10.796  11.610  67.648  1.00  0.00    -0.273 A  
HETATM    7  C   UNL     1     -10.311  10.617  65.488  1.00  0.00    -0.227 A  
HETATM    8  C   UNL     1     -10.615  11.771  66.247  1.00  0.00    -0.292 A  
HETATM    9  C   UNL     1     -10.389  11.758  63.509  1.00  0.00    -0.448 A  
HETATM   10  C   UNL     1     -10.198   9.387  66.104  1.00  0.00    -0.264 A  
HETATM   11  C   UNL     1     -10.753  12.993  65.525  1.00  0.00    -0.281 A  
HETATM   12  C   UNL     1     -10.736  12.933  64.137  1.00  0.00    -0.443 A  
BRANCH   4  13
HETATM   13  C   UNL     1     -10.849  10.205  69.740  1.00  0.00    -0.279 C  
HETATM   14  H2  UNL     1     -12.913  10.522  69.647  1.00  0.00     0.000 HD 
HETATM   15  H1  UNL     1     -12.222  10.243  71.261  1.00  0.00     0.000 HD 
HETATM   16  O   UNL     1      -9.910   9.996  70.496  1.00  0.00    -0.155 OA 
HETATM   17  N   UNL     1     -12.113  10.337  70.252  1.00  0.00    -0.267 N  
ENDBRANCH   4  13
BRANCH  11  18
HETATM   18  O   UNL     1     -11.031  14.134  66.257  1.00  0.00    -0.297 OA 
BRANCH  18  19
HETATM   19  C   UNL     1     -10.062  14.937  66.835  1.00  0.00    -0.242 A  
HETATM   20  C   UNL     1     -10.235  15.200  68.201  1.00  0.00    -0.227 A  
HETATM   21  C   UNL     1      -8.456  16.870  68.188  1.00  0.00    -0.217 A  
HETATM   22  C   UNL     1      -9.436  16.146  68.874  1.00  0.00    -0.244 A  
HETATM   23  C   UNL     1      -8.273  16.592  66.833  1.00  0.00    -0.215 A  
HETATM   24 CL   UNL     1      -7.089  17.448  65.895  1.00  0.00    -0.258 Cl 
HETATM   25  C   UNL     1      -9.057  15.638  66.175  1.00  0.00    -0.378 A  
BRANCH  21  26
HETATM   26  N   UNL     1      -7.675  17.896  68.765  1.00  0.00    -0.283 N  
HETATM   27  H   UNL     1      -6.854  17.599  69.294  1.00  0.00     0.000 HD 
BRANCH  26  28
HETATM   28  C   UNL     1      -7.898  19.243  68.692  1.00  0.00    -0.361 C  
HETATM   29  O   UNL     1      -7.037  20.092  68.483  1.00  0.00    -0.308 OA 
BRANCH  28  30
HETATM   30  N   UNL     1      -9.222  19.578  68.882  1.00  0.00    -0.362 N  
HETATM   31  H   UNL     1      -9.664  19.405  69.784  1.00  0.00     0.000 HD 
BRANCH  30  32
HETATM   32  C   UNL     1      -9.978  20.165  67.823  1.00  0.00    -0.409 C  
HETATM   33  C   UNL     1      -9.660  19.948  66.373  1.00  0.00    -0.537 C  
HETATM   34  C   UNL     1     -10.859  19.283  66.980  1.00  0.00    -0.515 C  
ENDBRANCH  30  32
ENDBRANCH  28  30
ENDBRANCH  26  28
ENDBRANCH  21  26
ENDBRANCH  18  19
ENDBRANCH  11  18
ENDBRANCH   2   3
TORSDOF 8
ENDMDL
MODEL       31
REMARK 921   NORMALIZED FREE ENERGY PREDICTED BY IDOCK:   -6.11 KCAL/MOL
REMARK 922        TOTAL FREE ENERGY PREDICTED BY IDOCK:  -10.50 KCAL/MOL
REMARK 923 INTER-LIGAND FREE ENERGY PREDICTED BY IDOCK:   -9.41 KCAL/MOL
REMARK 924 INTRA-LIGAND FREE ENERGY PREDICTED BY IDOCK:   -1.09 KCAL/MOL
REMARK 927      BINDING AFFINITY PREDICTED BY RF-SCORE:    0.00 PKD
ROOT
HETATM    1  C   UNL     1      -7.913   7.871  74.202  1.00  0.00    -0.228 C  
HETATM    2  O   UNL     1      -7.978   7.671  72.791  1.00  0.00    -0.098 OA 
ENDROOT
BRANCH   2   3
HETATM    3  C   UNL     1      -9.018   8.293  72.152  1.00  0.00    -0.209 A  
HETATM    4  C   UNL     1      -8.750   9.159  71.083  1.00  0.00    -0.210 A  
HETATM    5  N   UNL     1     -12.580   8.636  72.570  1.00  0.00    -0.364 NA 
HETATM    6  C   UNL     1      -9.816   9.852  70.467  1.00  0.00    -0.122 A  
HETATM    7  C   UNL     1     -11.384   8.835  72.015  1.00  0.00    -0.371 A  
HETATM    8  C   UNL     1     -11.154   9.707  70.926  1.00  0.00    -0.422 A  
HETATM    9  C   UNL     1     -13.602   9.374  72.127  1.00  0.00    -0.457 A  
HETATM   10  C   UNL     1     -10.333   8.156  72.599  1.00  0.00    -0.398 A  
HETATM   11  C   UNL     1     -12.289  10.399  70.410  1.00  0.00    -0.286 A  
HETATM   12  C   UNL     1     -13.489  10.288  71.104  1.00  0.00    -0.222 A  
BRANCH   4  13
HETATM   13  C   UNL     1      -7.358   9.301  70.561  1.00  0.00    -0.116 C  
HETATM   14  H2  UNL     1      -7.539   7.618  69.335  1.00  0.00     0.000 HD 
HETATM   15  H1  UNL     1      -5.980   8.471  69.290  1.00  0.00     0.000 HD 
HETATM   16  O   UNL     1      -6.597  10.188  70.922  1.00  0.00    -0.310 OA 
HETATM   17  N   UNL     1      -6.931   8.375  69.647  1.00  0.00    -0.047 N  
ENDBRANCH   4  13
BRANCH  11  18
HETATM   18  O   UNL     1     -12.083  11.241  69.331  1.00  0.00    -0.329 OA 
BRANCH  18  19
HETATM   19  C   UNL     1     -12.034  12.621  69.424  1.00  0.00    -0.260 A  
HETATM   20  C   UNL     1     -11.695  13.293  68.242  1.00  0.00    -0.388 A  
HETATM   21  C   UNL     1     -11.470  15.419  69.417  1.00  0.00    -0.324 A  
HETATM   22  C   UNL     1     -11.427  14.676  68.234  1.00  0.00    -0.337 A  
HETATM   23  C   UNL     1     -11.827  14.751  70.590  1.00  0.00    -0.305 A  
HETATM   24 CL   UNL     1     -11.895  15.586  72.111  1.00  0.00    -0.499 Cl 
HETATM   25  C   UNL     1     -12.110  13.381  70.588  1.00  0.00    -0.374 A  
BRANCH  21  26
HETATM   26  N   UNL     1     -11.130  16.786  69.512  1.00  0.00    -0.336 N  
HETATM   27  H   UNL     1     -11.775  17.380  70.034  1.00  0.00     0.000 HD 
BRANCH  26  28
HETATM   28  C   UNL     1     -10.030  17.402  68.981  1.00  0.00    -0.265 C  
HETATM   29  O   UNL     1      -8.944  16.866  68.789  1.00  0.00    -0.260 OA 
BRANCH  28  30
HETATM   30  N   UNL     1     -10.256  18.726  68.669  1.00  0.00    -0.428 N  
HETATM   31  H   UNL     1      -9.961  19.457  69.317  1.00  0.00     0.000 HD 
BRANCH  30  32
HETATM   32  C   UNL     1     -10.900  19.081  67.446  1.00  0.00    -0.409 C  
HETATM   33  C   UNL     1     -10.212  19.840  66.350  1.00  0.00    -0.614 C  
HETATM   34  C   UNL     1     -10.497  18.378  66.178  1.00  0.00    -0.422 C  
ENDBRANCH  30  32
ENDBRANCH  28  30
ENDBRANCH  26  28
ENDBRANCH  21  26
ENDBRANCH  18  19
ENDBRANCH  11  18
ENDBRANCH   2   3
TORSDOF 8
ENDMDL
MODEL       32
REMARK 921   NORMALIZED FREE ENERGY PREDICTED BY IDOCK:   -6.11 KCAL/MOL
REMARK 922        TOTAL FREE ENERGY PREDICTED BY IDOCK:  -10.50 KCAL/MOL
REMARK 923 INTER-LIGAND FREE ENERGY PREDICTED BY IDOCK:   -9.20 KCAL/MOL
REMARK 924 INTRA-LIGAND FREE ENERGY PREDICTED BY IDOCK:   -1.30 KCAL/MOL
REMARK 927      BINDING AFFINITY PREDICTED BY RF-SCORE:    0.00 PKD
ROOT
HETATM    1  C   UNL     1     -11.334  16.248  64.339  1.00  0.00    -0.129 C  
HETATM    2  O   UNL     1     -11.881  14.931  64.299  1.00  0.00    -0.386 OA 
ENDROOT
BRANCH   2   3
HETATM    3  C   UNL     1     -11.825  14.231  65.476  1.00  0.00    -0.363 A  
HETATM    4  C   UNL     1     -11.927  12.833  65.450  1.00  0.00    -0.482 A  
HETATM    5  N   UNL     1     -11.748  14.953  69.004  1.00  0.00    -0.307 NA 
HETATM    6  C   UNL     1     -11.936  12.117  66.668  1.00  0.00    -0.186 A  
HETATM    7  C   UNL     1     -11.779  14.198  67.906  1.00  0.00    -0.367 A  
HETATM    8  C   UNL     1     -11.868  12.787  67.920  1.00  0.00    -0.392 A  
HETATM    9  C   UNL     1     -11.902  14.343  70.183  1.00  0.00    -0.314 A  
HETATM   10  C   UNL     1     -11.760  14.883  66.708  1.00  0.00    -0.243 A  
HETATM   11  C   UNL     1     -11.924  12.162  69.201  1.00  0.00    -0.255 A  
HETATM   12  C   UNL     1     -12.044  12.980  70.318  1.00  0.00    -0.388 A  
BRANCH   4  13
HETATM   13  C   UNL     1     -11.964  12.106  64.147  1.00  0.00    -0.408 C  
HETATM   14  H2  UNL     1     -10.026  11.363  64.392  1.00  0.00     0.000 HD 
HETATM   15  H1  UNL     1     -10.875  10.897  62.901  1.00  0.00     0.000 HD 
HETATM   16  O   UNL     1     -12.930  12.131  63.396  1.00  0.00    -0.776 OA 
HETATM   17  N   UNL     1     -10.850  11.394  63.791  1.00  0.00    -0.393 N  
ENDBRANCH   4  13
BRANCH  11  18
HETATM   18  O   UNL     1     -11.991  10.780  69.231  1.00  0.00    -0.308 OA 
BRANCH  18  19
HETATM   19  C   UNL     1     -11.168   9.982  70.008  1.00  0.00    -0.288 A  
HETATM   20  C   UNL     1     -11.806   9.296  71.050  1.00  0.00    -0.376 A  
HETATM   21  C   UNL     1      -9.672   8.591  72.000  1.00  0.00    -0.307 A  
HETATM   22  C   UNL     1     -11.069   8.599  72.029  1.00  0.00    -0.437 A  
HETATM   23  C   UNL     1      -9.041   9.259  70.950  1.00  0.00    -0.222 A  
HETATM   24 CL   UNL     1      -7.309   9.315  70.837  1.00  0.00    -0.128 Cl 
HETATM   25  C   UNL     1      -9.778   9.933  69.971  1.00  0.00    -0.274 A  
BRANCH  21  26
HETATM   26  N   UNL     1      -8.859   7.993  72.989  1.00  0.00    -0.213 N  
HETATM   27  H   UNL     1      -8.557   8.596  73.754  1.00  0.00     0.000 HD 
BRANCH  26  28
HETATM   28  C   UNL     1      -8.432   6.694  73.032  1.00  0.00    -0.117 C  
HETATM   29  O   UNL     1      -7.759   6.142  72.169  1.00  0.00    -0.099 OA 
BRANCH  28  30
HETATM   30  N   UNL     1      -8.840   6.035  74.172  1.00  0.00    -0.122 N  
HETATM   31  H   UNL     1      -8.155   5.774  74.881  1.00  0.00     0.000 HD 
BRANCH  30  32
HETATM   32  C   UNL     1     -10.217   5.714  74.367  1.00  0.00    -0.278 C  
HETATM   33  C   UNL     1     -11.067   5.080  73.306  1.00  0.00    -0.406 C  
HETATM   34  C   UNL     1     -10.620   4.268  74.484  1.00  0.00    -0.233 C  
ENDBRANCH  30  32
ENDBRANCH  28  30
ENDBRANCH  26  28
ENDBRANCH  21  26
ENDBRANCH  18  19
ENDBRANCH  11  18
ENDBRANCH   2   3
TORSDOF 8
ENDMDL
MODEL       33
REMARK 921   NORMALIZED FREE ENERGY PREDICTED BY IDOCK:   -6.06 KCAL/MOL
REMARK 922        TOTAL FREE ENERGY PREDICTED BY IDOCK:  -10.43 KCAL/MOL
REMARK 923 INTER-LIGAND FREE ENERGY PREDICTED BY IDOCK:   -9.38 KCAL/MOL
REMARK 924 INTRA-LIGAND FREE ENERGY PREDICTED BY IDOCK:   -1.05 KCAL/MOL
REMARK 927      BINDING AFFINITY PREDICTED BY RF-SCORE:    0.00 PKD
ROOT
HETATM    1  C   UNL     1      -9.748  18.442  66.840  1.00  0.00    -0.319 C  
HETATM    2  O   UNL     1     -10.198  17.215  66.268  1.00  0.00    -0.317 OA 
ENDROOT
BRANCH   2   3
HETATM    3  C   UNL     1     -10.600  16.257  67.162  1.00  0.00    -0.291 A  
HETATM    4  C   UNL     1     -11.077  15.028  66.686  1.00  0.00    -0.326 A  
HETATM    5  N   UNL     1     -11.111  15.977  70.717  1.00  0.00    -0.334 NA 
HETATM    6  C   UNL     1     -11.553  14.066  67.605  1.00  0.00    -0.385 A  
HETATM    7  C   UNL     1     -11.105  15.585  69.443  1.00  0.00    -0.291 A  
HETATM    8  C   UNL     1     -11.582  14.329  69.001  1.00  0.00    -0.342 A  
HETATM    9  C   UNL     1     -11.685  15.170  71.614  1.00  0.00    -0.398 A  
HETATM   10  C   UNL     1     -10.632  16.510  68.534  1.00  0.00    -0.318 A  
HETATM   11  C   UNL     1     -12.091  13.450  70.002  1.00  0.00    -0.334 A  
HETATM   12  C   UNL     1     -12.224  13.944  71.295  1.00  0.00    -0.353 A  
BRANCH   4  13
HETATM   13  C   UNL     1     -11.024  14.715  65.227  1.00  0.00    -0.367 C  
HETATM   14  H2  UNL     1     -13.084  14.973  64.994  1.00  0.00     0.000 HD 
HETATM   15  H1  UNL     1     -12.168  14.532  63.536  1.00  0.00     0.000 HD 
HETATM   16  O   UNL     1      -9.987  14.426  64.644  1.00  0.00    -0.204 OA 
HETATM   17  N   UNL     1     -12.204  14.746  64.532  1.00  0.00    -0.469 N  
ENDBRANCH   4  13
BRANCH  11  18
HETATM   18  O   UNL     1     -12.542  12.209  69.587  1.00  0.00     0.074 OA 
BRANCH  18  19
HETATM   19  C   UNL     1     -12.271  11.025  70.252  1.00  0.00    -0.363 A  
HETATM   20  C   UNL     1     -10.947  10.575  70.164  1.00  0.00    -0.338 A  
HETATM   21  C   UNL     1     -11.521   8.432  71.179  1.00  0.00    -0.274 A  
HETATM   22  C   UNL     1     -10.572   9.299  70.631  1.00  0.00    -0.324 A  
HETATM   23  C   UNL     1     -12.835   8.890  71.283  1.00  0.00    -0.229 A  
HETATM   24 CL   UNL     1     -14.087   7.881  71.938  1.00  0.00    -0.466 Cl 
HETATM   25  C   UNL     1     -13.197  10.165  70.835  1.00  0.00    -0.360 A  
BRANCH  21  26
HETATM   26  N   UNL     1     -11.247   7.108  71.588  1.00  0.00    -0.240 N  
HETATM   27  H   UNL     1     -11.183   6.408  70.848  1.00  0.00     0.000 HD 
BRANCH  26  28
HETATM   28  C   UNL     1     -11.058   6.661  72.867  1.00  0.00    -0.229 C  
HETATM   29  O   UNL     1     -10.438   7.259  73.740  1.00  0.00    -0.370 OA 
BRANCH  28  30
HETATM   30  N   UNL     1     -11.646   5.436  73.098  1.00  0.00    -0.531 N  
HETATM   31  H   UNL     1     -12.566   5.233  72.708  1.00  0.00     0.000 HD 
BRANCH  30  32
HETATM   32  C   UNL     1     -10.974   4.448  73.879  1.00  0.00    -0.242 C  
HETATM   33  C   UNL     1     -11.248   2.979  73.749  1.00  0.00    -0.250 C  
HETATM   34  C   UNL     1      -9.970   3.547  73.209  1.00  0.00    -0.189 C  
ENDBRANCH  30  32
ENDBRANCH  28  30
ENDBRANCH  26  28
ENDBRANCH  21  26
ENDBRANCH  18  19
ENDBRANCH  11  18
ENDBRANCH   2   3
TORSDOF 8
ENDMDL
MODEL       34
REMARK 921   NORMALIZED FREE ENERGY PREDICTED BY IDOCK:   -6.03 KCAL/MOL
REMARK 922        TOTAL FREE ENERGY PREDICTED BY IDOCK:  -10.39 KCAL/MOL
REMARK 923 INTER-LIGAND FREE ENERGY PREDICTED BY IDOCK:   -9.49 KCAL/MOL
REMARK 924 INTRA-LIGAND FREE ENERGY PREDICTED BY IDOCK:   -0.90 KCAL/MOL
REMARK 927      BINDING AFFINITY PREDICTED BY RF-SCORE:    0.00 PKD
ROOT
HETATM    1  C   UNL     1     -10.300   7.517  73.402  1.00  0.00    -0.350 C  
HETATM    2  O   UNL     1     -11.254   8.387  72.796  1.00  0.00    -0.339 OA 
ENDROOT
BRANCH   2   3
HETATM    3  C   UNL     1     -10.928   8.845  71.546  1.00  0.00    -0.328 A  
HETATM    4  C   UNL     1     -11.788   9.742  70.897  1.00  0.00    -0.420 A  
HETATM    5  N   UNL     1      -8.423   8.197  69.040  1.00  0.00    -0.128 NA 
HETATM    6  C   UNL     1     -11.485  10.163  69.582  1.00  0.00    -0.256 A  
HETATM    7  C   UNL     1      -9.505   8.762  69.578  1.00  0.00    -0.165 A  
HETATM    8  C   UNL     1     -10.341   9.676  68.895  1.00  0.00    -0.220 A  
HETATM    9  C   UNL     1      -8.169   8.441  67.751  1.00  0.00    -0.126 A  
HETATM   10  C   UNL     1      -9.807   8.369  70.866  1.00  0.00    -0.223 A  
HETATM   11  C   UNL     1      -9.977   9.995  67.553  1.00  0.00    -0.190 A  
HETATM   12  C   UNL     1      -8.938   9.277  66.973  1.00  0.00    -0.142 A  
BRANCH   4  13
HETATM   13  C   UNL     1     -12.977  10.296  71.610  1.00  0.00    -0.465 C  
HETATM   14  H2  UNL     1     -13.813   8.402  71.895  1.00  0.00     0.000 HD 
HETATM   15  H1  UNL     1     -14.731   9.782  72.537  1.00  0.00     0.000 HD 
HETATM   16  O   UNL     1     -13.142  11.493  71.802  1.00  0.00    -0.472 OA 
HETATM   17  N   UNL     1     -13.919   9.404  72.049  1.00  0.00    -0.313 N  
ENDBRANCH   4  13
BRANCH  11  18
HETATM   18  O   UNL     1     -10.775  10.904  66.879  1.00  0.00    -0.253 OA 
BRANCH  18  19
HETATM   19  C   UNL     1     -10.697  12.276  67.048  1.00  0.00    -0.231 A  
HETATM   20  C   UNL     1     -11.913  12.964  66.949  1.00  0.00    -0.402 A  
HETATM   21  C   UNL     1     -10.784  15.126  66.955  1.00  0.00    -0.308 A  
HETATM   22  C   UNL     1     -11.960  14.372  66.914  1.00  0.00    -0.425 A  
HETATM   23  C   UNL     1      -9.575  14.439  67.072  1.00  0.00    -0.247 A  
HETATM   24 CL   UNL     1      -8.062  15.288  67.118  1.00  0.00    -0.229 Cl 
HETATM   25  C   UNL     1      -9.537  13.042  67.126  1.00  0.00    -0.230 A  
BRANCH  21  26
HETATM   26  N   UNL     1     -10.736  16.533  66.836  1.00  0.00    -0.235 N  
HETATM   27  H   UNL     1     -10.718  17.063  67.708  1.00  0.00     0.000 HD 
BRANCH  26  28
HETATM   28  C   UNL     1     -10.712  17.264  65.679  1.00  0.00    -0.120 C  
HETATM   29  O   UNL     1     -11.040  16.847  64.574  1.00  0.00    -1.054 OA 
BRANCH  28  30
HETATM   30  N   UNL     1     -10.268  18.554  65.871  1.00  0.00    -0.318 N  
HETATM   31  H   UNL     1     -10.076  19.150  65.065  1.00  0.00     0.000 HD 
BRANCH  30  32
HETATM   32  C   UNL     1     -10.075  19.064  67.190  1.00  0.00    -0.364 C  
HETATM   33  C   UNL     1      -8.752  19.571  67.685  1.00  0.00    -0.361 C  
HETATM   34  C   UNL     1      -9.852  20.541  67.376  1.00  0.00    -0.574 C  
ENDBRANCH  30  32
ENDBRANCH  28  30
ENDBRANCH  26  28
ENDBRANCH  21  26
ENDBRANCH  18  19
ENDBRANCH  11  18
ENDBRANCH   2   3
TORSDOF 8
ENDMDL
MODEL       35
REMARK 921   NORMALIZED FREE ENERGY PREDICTED BY IDOCK:   -6.00 KCAL/MOL
REMARK 922        TOTAL FREE ENERGY PREDICTED BY IDOCK:  -10.34 KCAL/MOL
REMARK 923 INTER-LIGAND FREE ENERGY PREDICTED BY IDOCK:   -9.01 KCAL/MOL
REMARK 924 INTRA-LIGAND FREE ENERGY PREDICTED BY IDOCK:   -1.33 KCAL/MOL
REMARK 927      BINDING AFFINITY PREDICTED BY RF-SCORE:    0.00 PKD
ROOT
HETATM    1  C   UNL     1     -10.218  18.312  65.719  1.00  0.00    -0.097 C  
HETATM    2  O   UNL     1     -10.464  16.941  65.411  1.00  0.00    -0.609 OA 
ENDROOT
BRANCH   2   3
HETATM    3  C   UNL     1     -10.815  16.150  66.473  1.00  0.00    -0.139 A  
HETATM    4  C   UNL     1     -11.442  14.918  66.235  1.00  0.00    -0.269 A  
HETATM    5  N   UNL     1     -10.872  16.384  70.067  1.00  0.00    -0.338 NA 
HETATM    6  C   UNL     1     -11.864  14.133  67.331  1.00  0.00    -0.447 A  
HETATM    7  C   UNL     1     -11.064  15.830  68.869  1.00  0.00    -0.298 A  
HETATM    8  C   UNL     1     -11.688  14.576  68.670  1.00  0.00    -0.364 A  
HETATM    9  C   UNL     1     -11.381  15.757  71.131  1.00  0.00    -0.389 A  
HETATM   10  C   UNL     1     -10.647  16.581  67.789  1.00  0.00    -0.332 A  
HETATM   11  C   UNL     1     -12.125  13.886  69.839  1.00  0.00    -0.344 A  
HETATM   12  C   UNL     1     -12.048  14.555  71.055  1.00  0.00    -0.409 A  
BRANCH   4  13
HETATM   13  C   UNL     1     -11.606  14.415  64.839  1.00  0.00    -0.395 C  
HETATM   14  H2  UNL     1     -10.001  13.088  65.021  1.00  0.00     0.000 HD 
HETATM   15  H1  UNL     1     -10.846  13.105  63.458  1.00  0.00     0.000 HD 
HETATM   16  O   UNL     1     -12.466  14.834  64.075  1.00  0.00    -0.803 OA 
HETATM   17  N   UNL     1     -10.734  13.449  64.411  1.00  0.00    -0.414 N  
ENDBRANCH   4  13
BRANCH  11  18
HETATM   18  O   UNL     1     -12.719  12.649  69.660  1.00  0.00     0.252 OA 
BRANCH  18  19
HETATM   19  C   UNL     1     -12.315  11.495  70.311  1.00  0.00    -0.273 A  
HETATM   20  C   UNL     1     -11.168  10.881  69.790  1.00  0.00    -0.351 A  
HETATM   21  C   UNL     1     -11.489   8.910  71.191  1.00  0.00    -0.301 A  
HETATM   22  C   UNL     1     -10.752   9.609  70.231  1.00  0.00    -0.335 A  
HETATM   23  C   UNL     1     -12.619   9.532  71.721  1.00  0.00    -0.405 A  
HETATM   24 CL   UNL     1     -13.605   8.737  72.909  1.00  0.00    -0.239 Cl 
HETATM   25  C   UNL     1     -13.017  10.803  71.293  1.00  0.00    -0.502 A  
BRANCH  21  26
HETATM   26  N   UNL     1     -11.192   7.597  71.621  1.00  0.00    -0.243 N  
HETATM   27  H   UNL     1     -11.719   6.844  71.179  1.00  0.00     0.000 HD 
BRANCH  26  28
HETATM   28  C   UNL     1     -10.275   7.226  72.566  1.00  0.00    -0.200 C  
HETATM   29  O   UNL     1     -10.422   7.346  73.778  1.00  0.00    -0.346 OA 
BRANCH  28  30
HETATM   30  N   UNL     1      -9.130   6.688  72.019  1.00  0.00    -0.140 N  
HETATM   31  H   UNL     1      -9.192   5.858  71.429  1.00  0.00     0.000 HD 
BRANCH  30  32
HETATM   32  C   UNL     1      -7.859   7.284  72.271  1.00  0.00    -0.093 C  
HETATM   33  C   UNL     1      -6.783   7.387  71.230  1.00  0.00    -0.050 C  
HETATM   34  C   UNL     1      -7.539   8.614  71.643  1.00  0.00    -0.139 C  
ENDBRANCH  30  32
ENDBRANCH  28  30
ENDBRANCH  26  28
ENDBRANCH  21  26
ENDBRANCH  18  19
ENDBRANCH  11  18
ENDBRANCH   2   3
TORSDOF 8
ENDMDL
MODEL       36
REMARK 921   NORMALIZED FREE ENERGY PREDICTED BY IDOCK:   -5.99 KCAL/MOL
REMARK 922        TOTAL FREE ENERGY PREDICTED BY IDOCK:  -10.32 KCAL/MOL
REMARK 923 INTER-LIGAND FREE ENERGY PREDICTED BY IDOCK:   -8.82 KCAL/MOL
REMARK 924 INTRA-LIGAND FREE ENERGY PREDICTED BY IDOCK:   -1.50 KCAL/MOL
REMARK 927      BINDING AFFINITY PREDICTED BY RF-SCORE:    0.00 PKD
ROOT
HETATM    1  C   UNL     1     -10.765  17.708  65.415  1.00  0.00     0.042 C  
HETATM    2  O   UNL     1     -10.829  16.421  64.803  1.00  0.00    -0.697 OA 
ENDROOT
BRANCH   2   3
HETATM    3  C   UNL     1     -10.213  15.408  65.490  1.00  0.00    -0.382 A  
HETATM    4  C   UNL     1     -10.834  14.154  65.568  1.00  0.00    -0.312 A  
HETATM    5  N   UNL     1      -7.321  14.991  67.597  1.00  0.00    -0.170 NA 
HETATM    6  C   UNL     1     -10.231  13.129  66.332  1.00  0.00    -0.286 A  
HETATM    7  C   UNL     1      -8.432  14.634  66.952  1.00  0.00    -0.173 A  
HETATM    8  C   UNL     1      -9.021  13.352  67.043  1.00  0.00    -0.228 A  
HETATM    9  C   UNL     1      -6.788  14.112  68.450  1.00  0.00    -0.098 A  
HETATM   10  C   UNL     1      -9.026  15.621  66.192  1.00  0.00    -0.362 A  
HETATM   11  C   UNL     1      -8.364  12.404  67.883  1.00  0.00    -0.165 A  
HETATM   12  C   UNL     1      -7.300  12.850  68.658  1.00  0.00    -0.099 A  
BRANCH   4  13
HETATM   13  C   UNL     1     -12.086  13.885  64.801  1.00  0.00    -0.419 C  
HETATM   14  H2  UNL     1     -11.041  13.085  63.178  1.00  0.00     0.000 HD 
HETATM   15  H1  UNL     1     -12.813  13.133  63.039  1.00  0.00     0.000 HD 
HETATM   16  O   UNL     1     -13.201  14.161  65.226  1.00  0.00    -0.760 OA 
HETATM   17  N   UNL     1     -11.957  13.317  63.562  1.00  0.00    -0.510 N  
ENDBRANCH   4  13
BRANCH  11  18
HETATM   18  O   UNL     1      -8.918  11.139  67.967  1.00  0.00    -0.139 OA 
BRANCH  18  19
HETATM   19  C   UNL     1      -9.509  10.627  69.109  1.00  0.00    -0.170 A  
HETATM   20  C   UNL     1      -8.765   9.653  69.787  1.00  0.00    -0.221 A  
HETATM   21  C   UNL     1     -10.642   9.121  71.253  1.00  0.00    -0.329 A  
HETATM   22  C   UNL     1      -9.318   8.915  70.853  1.00  0.00    -0.295 A  
HETATM   23  C   UNL     1     -11.374  10.106  70.588  1.00  0.00    -0.352 A  
HETATM   24 CL   UNL     1     -13.030  10.426  71.005  1.00  0.00    -0.474 Cl 
HETATM   25  C   UNL     1     -10.813  10.847  69.543  1.00  0.00    -0.286 A  
BRANCH  21  26
HETATM   26  N   UNL     1     -11.299   8.366  72.249  1.00  0.00    -0.362 N  
HETATM   27  H   UNL     1     -11.298   8.759  73.191  1.00  0.00     0.000 HD 
BRANCH  26  28
HETATM   28  C   UNL     1     -11.937   7.167  72.090  1.00  0.00    -0.266 C  
HETATM   29  O   UNL     1     -13.079   7.025  71.666  1.00  0.00    -0.377 OA 
BRANCH  28  30
HETATM   30  N   UNL     1     -11.158   6.093  72.461  1.00  0.00    -0.260 N  
HETATM   31  H   UNL     1     -10.899   5.968  73.440  1.00  0.00     0.000 HD 
BRANCH  30  32
HETATM   32  C   UNL     1     -10.709   5.153  71.485  1.00  0.00    -0.095 C  
HETATM   33  C   UNL     1     -10.502   5.509  70.043  1.00  0.00    -0.373 C  
HETATM   34  C   UNL     1      -9.316   5.285  70.932  1.00  0.00    -0.197 C  
ENDBRANCH  30  32
ENDBRANCH  28  30
ENDBRANCH  26  28
ENDBRANCH  21  26
ENDBRANCH  18  19
ENDBRANCH  11  18
ENDBRANCH   2   3
TORSDOF 8
ENDMDL
MODEL       37
REMARK 921   NORMALIZED FREE ENERGY PREDICTED BY IDOCK:   -5.98 KCAL/MOL
REMARK 922        TOTAL FREE ENERGY PREDICTED BY IDOCK:  -10.31 KCAL/MOL
REMARK 923 INTER-LIGAND FREE ENERGY PREDICTED BY IDOCK:   -9.26 KCAL/MOL
REMARK 924 INTRA-LIGAND FREE ENERGY PREDICTED BY IDOCK:   -1.05 KCAL/MOL
REMARK 927      BINDING AFFINITY PREDICTED BY RF-SCORE:    0.00 PKD
ROOT
HETATM    1  C   UNL     1      -7.503   7.194  67.030  1.00  0.00    -0.097 C  
HETATM    2  O   UNL     1      -8.700   7.576  67.705  1.00  0.00    -0.123 OA 
ENDROOT
BRANCH   2   3
HETATM    3  C   UNL     1      -9.338   8.678  67.199  1.00  0.00    -0.151 A  
HETATM    4  C   UNL     1     -10.213   9.403  68.019  1.00  0.00    -0.248 A  
HETATM    5  N   UNL     1      -9.708  10.313  64.010  1.00  0.00    -0.307 NA 
HETATM    6  C   UNL     1     -10.922  10.500  67.479  1.00  0.00    -0.365 A  
HETATM    7  C   UNL     1      -9.903  10.104  65.313  1.00  0.00    -0.319 A  
HETATM    8  C   UNL     1     -10.784  10.867  66.113  1.00  0.00    -0.225 A  
HETATM    9  C   UNL     1     -10.461  11.240  63.410  1.00  0.00    -0.361 A  
HETATM   10  C   UNL     1      -9.208   9.043  65.858  1.00  0.00    -0.290 A  
HETATM   11  C   UNL     1     -11.492  11.919  65.459  1.00  0.00    -0.252 A  
HETATM   12  C   UNL     1     -11.385  12.014  64.076  1.00  0.00    -0.478 A  
BRANCH   4  13
HETATM   13  C   UNL     1     -10.348   9.059  69.466  1.00  0.00    -0.209 C  
HETATM   14  H2  UNL     1      -8.696  10.221  70.001  1.00  0.00     0.000 HD 
HETATM   15  H1  UNL     1      -9.529   9.368  71.319  1.00  0.00     0.000 HD 
HETATM   16  O   UNL     1     -11.217   8.312  69.896  1.00  0.00    -0.171 OA 
HETATM   17  N   UNL     1      -9.437   9.604  70.331  1.00  0.00    -0.255 N  
ENDBRANCH   4  13
BRANCH  11  18
HETATM   18  O   UNL     1     -12.344  12.687  66.233  1.00  0.00    -0.550 OA 
BRANCH  18  19
HETATM   19  C   UNL     1     -11.943  13.801  66.951  1.00  0.00    -0.421 A  
HETATM   20  C   UNL     1     -11.297  14.797  66.206  1.00  0.00    -0.334 A  
HETATM   21  C   UNL     1     -10.663  16.011  68.225  1.00  0.00    -0.298 A  
HETATM   22  C   UNL     1     -10.674  15.895  66.832  1.00  0.00    -0.289 A  
HETATM   23  C   UNL     1     -11.324  15.028  68.963  1.00  0.00    -0.290 A  
HETATM   24 CL   UNL     1     -11.354  15.080  70.699  1.00  0.00    -0.314 Cl 
HETATM   25  C   UNL     1     -11.957  13.951  68.335  1.00  0.00    -0.391 A  
BRANCH  21  26
HETATM   26  N   UNL     1      -9.987  17.029  68.933  1.00  0.00    -0.277 N  
HETATM   27  H   UNL     1     -10.364  17.272  69.850  1.00  0.00     0.000 HD 
BRANCH  26  28
HETATM   28  C   UNL     1      -8.882  17.725  68.525  1.00  0.00    -0.283 C  
HETATM   29  O   UNL     1      -7.902  17.235  67.975  1.00  0.00    -0.194 OA 
BRANCH  28  30
HETATM   30  N   UNL     1      -8.968  19.074  68.798  1.00  0.00    -0.343 N  
HETATM   31  H   UNL     1      -8.607  19.437  69.680  1.00  0.00     0.000 HD 
BRANCH  30  32
HETATM   32  C   UNL     1      -9.561  19.965  67.854  1.00  0.00    -0.375 C  
HETATM   33  C   UNL     1      -9.562  19.708  66.376  1.00  0.00    -0.490 C  
HETATM   34  C   UNL     1     -10.831  19.554  67.160  1.00  0.00    -0.555 C  
ENDBRANCH  30  32
ENDBRANCH  28  30
ENDBRANCH  26  28
ENDBRANCH  21  26
ENDBRANCH  18  19
ENDBRANCH  11  18
ENDBRANCH   2   3
TORSDOF 8
ENDMDL
MODEL       38
REMARK 921   NORMALIZED FREE ENERGY PREDICTED BY IDOCK:   -5.97 KCAL/MOL
REMARK 922        TOTAL FREE ENERGY PREDICTED BY IDOCK:  -10.30 KCAL/MOL
REMARK 923 INTER-LIGAND FREE ENERGY PREDICTED BY IDOCK:   -8.87 KCAL/MOL
REMARK 924 INTRA-LIGAND FREE ENERGY PREDICTED BY IDOCK:   -1.43 KCAL/MOL
REMARK 927      BINDING AFFINITY PREDICTED BY RF-SCORE:    0.00 PKD
ROOT
HETATM    1  C   UNL     1     -12.900  16.017  73.677  1.00  0.00    -0.595 C  
HETATM    2  O   UNL     1     -12.234  14.895  73.100  1.00  0.00    -0.339 OA 
ENDROOT
BRANCH   2   3
HETATM    3  C   UNL     1     -12.066  14.942  71.740  1.00  0.00    -0.360 A  
HETATM    4  C   UNL     1     -12.415  13.828  70.965  1.00  0.00    -0.458 A  
HETATM    5  N   UNL     1     -10.615  17.171  69.310  1.00  0.00    -0.299 NA 
HETATM    6  C   UNL     1     -12.180  13.851  69.572  1.00  0.00    -0.356 A  
HETATM    7  C   UNL     1     -11.224  16.073  69.760  1.00  0.00    -0.344 A  
HETATM    8  C   UNL     1     -11.574  14.973  68.944  1.00  0.00    -0.349 A  
HETATM    9  C   UNL     1     -10.234  17.190  68.030  1.00  0.00    -0.332 A  
HETATM   10  C   UNL     1     -11.470  16.040  71.118  1.00  0.00    -0.470 A  
HETATM   11  C   UNL     1     -11.246  15.074  67.560  1.00  0.00    -0.330 A  
HETATM   12  C   UNL     1     -10.479  16.158  67.151  1.00  0.00    -0.305 A  
BRANCH   4  13
HETATM   13  C   UNL     1     -13.085  12.652  71.597  1.00  0.00    -0.323 C  
HETATM   14  H2  UNL     1     -12.000  11.287  70.445  1.00  0.00     0.000 HD 
HETATM   15  H1  UNL     1     -13.167  10.604  71.599  1.00  0.00     0.000 HD 
HETATM   16  O   UNL     1     -13.949  12.759  72.457  1.00  0.00    -0.499 OA 
HETATM   17  N   UNL     1     -12.709  11.407  71.168  1.00  0.00    -0.401 N  
ENDBRANCH   4  13
BRANCH  11  18
HETATM   18  O   UNL     1     -11.601  14.013  66.744  1.00  0.00    -0.348 OA 
BRANCH  18  19
HETATM   19  C   UNL     1     -10.753  12.967  66.422  1.00  0.00    -0.282 A  
HETATM   20  C   UNL     1     -11.354  11.886  65.763  1.00  0.00    -0.354 A  
HETATM   21  C   UNL     1      -9.345  10.522  65.996  1.00  0.00    -0.178 A  
HETATM   22  C   UNL     1     -10.657  10.681  65.542  1.00  0.00    -0.180 A  
HETATM   23  C   UNL     1      -8.743  11.607  66.634  1.00  0.00    -0.187 A  
HETATM   24 CL   UNL     1      -7.120  11.500  67.244  1.00  0.00    -0.118 Cl 
HETATM   25  C   UNL     1      -9.433  12.806  66.834  1.00  0.00    -0.235 A  
BRANCH  21  26
HETATM   26  N   UNL     1      -8.608   9.321  65.894  1.00  0.00    -0.141 N  
HETATM   27  H   UNL     1      -7.896   9.285  65.164  1.00  0.00     0.000 HD 
BRANCH  26  28
HETATM   28  C   UNL     1      -8.744   8.201  66.668  1.00  0.00    -0.139 C  
HETATM   29  O   UNL     1      -9.194   7.127  66.283  1.00  0.00    -0.167 OA 
BRANCH  28  30
HETATM   30  N   UNL     1      -8.317   8.391  67.964  1.00  0.00    -0.127 N  
HETATM   31  H   UNL     1      -7.332   8.580  68.152  1.00  0.00     0.000 HD 
BRANCH  30  32
HETATM   32  C   UNL     1      -9.244   8.325  69.048  1.00  0.00    -0.147 C  
HETATM   33  C   UNL     1      -9.353   9.392  70.096  1.00  0.00    -0.276 C  
HETATM   34  C   UNL     1     -10.424   9.259  69.056  1.00  0.00    -0.233 C  
ENDBRANCH  30  32
ENDBRANCH  28  30
ENDBRANCH  26  28
ENDBRANCH  21  26
ENDBRANCH  18  19
ENDBRANCH  11  18
ENDBRANCH   2   3
TORSDOF 8
ENDMDL
MODEL       39
REMARK 921   NORMALIZED FREE ENERGY PREDICTED BY IDOCK:   -5.97 KCAL/MOL
REMARK 922        TOTAL FREE ENERGY PREDICTED BY IDOCK:  -10.29 KCAL/MOL
REMARK 923 INTER-LIGAND FREE ENERGY PREDICTED BY IDOCK:   -9.04 KCAL/MOL
REMARK 924 INTRA-LIGAND FREE ENERGY PREDICTED BY IDOCK:   -1.26 KCAL/MOL
REMARK 927      BINDING AFFINITY PREDICTED BY RF-SCORE:    0.00 PKD
ROOT
HETATM    1  C   UNL     1     -10.473   6.251  73.629  1.00  0.00    -0.284 C  
HETATM    2  O   UNL     1     -10.871   7.589  73.335  1.00  0.00    -0.394 OA 
ENDROOT
BRANCH   2   3
HETATM    3  C   UNL     1     -10.551   8.039  72.081  1.00  0.00    -0.272 A  
HETATM    4  C   UNL     1     -11.540   8.652  71.298  1.00  0.00    -0.340 A  
HETATM    5  N   UNL     1      -7.741   7.893  69.833  1.00  0.00    -0.096 NA 
HETATM    6  C   UNL     1     -11.228   9.057  69.981  1.00  0.00    -0.141 A  
HETATM    7  C   UNL     1      -8.973   8.199  70.239  1.00  0.00    -0.146 A  
HETATM    8  C   UNL     1      -9.939   8.832  69.424  1.00  0.00    -0.196 A  
HETATM    9  C   UNL     1      -7.435   8.117  68.552  1.00  0.00    -0.099 A  
HETATM   10  C   UNL     1      -9.289   7.821  71.528  1.00  0.00    -0.165 A  
HETATM   11  C   UNL     1      -9.542   9.153  68.092  1.00  0.00    -0.144 A  
HETATM   12  C   UNL     1      -8.309   8.686  67.652  1.00  0.00    -0.121 A  
BRANCH   4  13
HETATM   13  C   UNL     1     -12.889   8.930  71.872  1.00  0.00    -0.380 C  
HETATM   14  H2  UNL     1     -13.651   7.092  71.233  1.00  0.00     0.000 HD 
HETATM   15  H1  UNL     1     -14.772   8.156  72.112  1.00  0.00     0.000 HD 
HETATM   16  O   UNL     1     -13.167   9.973  72.451  1.00  0.00    -0.364 OA 
HETATM   17  N   UNL     1     -13.850   7.966  71.720  1.00  0.00    -0.376 N  
ENDBRANCH   4  13
BRANCH  11  18
HETATM   18  O   UNL     1     -10.470   9.791  67.289  1.00  0.00    -0.238 OA 
BRANCH  18  19
HETATM   19  C   UNL     1     -10.559  11.166  67.150  1.00  0.00    -0.244 A  
HETATM   20  C   UNL     1      -9.725  11.910  67.995  1.00  0.00    -0.191 A  
HETATM   21  C   UNL     1     -10.817  13.999  67.367  1.00  0.00    -0.282 A  
HETATM   22  C   UNL     1      -9.843  13.311  68.095  1.00  0.00    -0.231 A  
HETATM   23  C   UNL     1     -11.634  13.257  66.512  1.00  0.00    -0.350 A  
HETATM   24 CL   UNL     1     -12.880  14.022  65.576  1.00  0.00    -0.534 Cl 
HETATM   25  C   UNL     1     -11.499  11.869  66.403  1.00  0.00    -0.371 A  
BRANCH  21  26
HETATM   26  N   UNL     1     -11.060  15.387  67.476  1.00  0.00    -0.320 N  
HETATM   27  H   UNL     1     -11.030  15.923  66.608  1.00  0.00     0.000 HD 
BRANCH  26  28
HETATM   28  C   UNL     1     -11.332  16.090  68.617  1.00  0.00    -0.383 C  
HETATM   29  O   UNL     1     -10.627  16.976  69.086  1.00  0.00    -0.329 OA 
BRANCH  28  30
HETATM   30  N   UNL     1     -12.511  15.701  69.217  1.00  0.00    -0.553 N  
HETATM   31  H   UNL     1     -13.397  15.838  68.731  1.00  0.00     0.000 HD 
BRANCH  30  32
HETATM   32  C   UNL     1     -12.500  15.107  70.515  1.00  0.00    -0.379 C  
HETATM   33  C   UNL     1     -12.446  15.911  71.781  1.00  0.00    -0.512 C  
HETATM   34  C   UNL     1     -13.722  15.232  71.384  1.00  0.00    -0.602 C  
ENDBRANCH  30  32
ENDBRANCH  28  30
ENDBRANCH  26  28
ENDBRANCH  21  26
ENDBRANCH  18  19
ENDBRANCH  11  18
ENDBRANCH   2   3
TORSDOF 8
ENDMDL
MODEL       40
REMARK 921   NORMALIZED FREE ENERGY PREDICTED BY IDOCK:   -5.97 KCAL/MOL
REMARK 922        TOTAL FREE ENERGY PREDICTED BY IDOCK:  -10.29 KCAL/MOL
REMARK 923 INTER-LIGAND FREE ENERGY PREDICTED BY IDOCK:   -9.10 KCAL/MOL
REMARK 924 INTRA-LIGAND FREE ENERGY PREDICTED BY IDOCK:   -1.20 KCAL/MOL
REMARK 927      BINDING AFFINITY PREDICTED BY RF-SCORE:    0.00 PKD
ROOT
HETATM    1  C   UNL     1      -7.466   8.053  72.969  1.00  0.00    -0.127 C  
HETATM    2  O   UNL     1      -7.315   8.404  71.595  1.00  0.00    -0.083 OA 
ENDROOT
BRANCH   2   3
HETATM    3  C   UNL     1      -8.443   8.878  70.978  1.00  0.00    -0.198 A  
HETATM    4  C   UNL     1      -8.357   9.359  69.664  1.00  0.00    -0.147 A  
HETATM    5  N   UNL     1     -11.863   9.589  71.858  1.00  0.00    -0.350 NA 
HETATM    6  C   UNL     1      -9.506   9.910  69.051  1.00  0.00    -0.185 A  
HETATM    7  C   UNL     1     -10.784   9.524  71.077  1.00  0.00    -0.340 A  
HETATM    8  C   UNL     1     -10.740  10.008  69.749  1.00  0.00    -0.304 A  
HETATM    9  C   UNL     1     -12.935  10.232  71.385  1.00  0.00    -0.440 A  
HETATM   10  C   UNL     1      -9.657   8.979  71.658  1.00  0.00    -0.319 A  
HETATM   11  C   UNL     1     -11.938  10.593  69.241  1.00  0.00    -0.197 A  
HETATM   12  C   UNL     1     -12.993  10.784  70.125  1.00  0.00    -0.050 A  
BRANCH   4  13
HETATM   13  C   UNL     1      -7.081   9.235  68.899  1.00  0.00    -0.068 C  
HETATM   14  H2  UNL     1      -7.605   7.362  68.134  1.00  0.00     0.000 HD 
HETATM   15  H1  UNL     1      -6.026   8.011  67.638  1.00  0.00     0.000 HD 
HETATM   16  O   UNL     1      -6.206  10.090  68.917  1.00  0.00    -0.044 OA 
HETATM   17  N   UNL     1      -6.898   8.096  68.160  1.00  0.00    -0.074 N  
ENDBRANCH   4  13
BRANCH  11  18
HETATM   18  O   UNL     1     -11.916  11.053  67.936  1.00  0.00    -0.620 OA 
BRANCH  18  19
HETATM   19  C   UNL     1     -11.661  12.367  67.582  1.00  0.00    -0.357 A  
HETATM   20  C   UNL     1     -11.060  12.547  66.329  1.00  0.00    -0.336 A  
HETATM   21  C   UNL     1     -10.662  14.913  66.769  1.00  0.00    -0.312 A  
HETATM   22  C   UNL     1     -10.576  13.806  65.921  1.00  0.00    -0.289 A  
HETATM   23  C   UNL     1     -11.278  14.735  68.008  1.00  0.00    -0.299 A  
HETATM   24 CL   UNL     1     -11.421  16.049  69.135  1.00  0.00    -0.352 Cl 
HETATM   25  C   UNL     1     -11.773  13.487  68.400  1.00  0.00    -0.393 A  
BRANCH  21  26
HETATM   26  N   UNL     1     -10.125  16.186  66.473  1.00  0.00    -0.277 N  
HETATM   27  H   UNL     1      -9.265  16.440  66.961  1.00  0.00     0.000 HD 
BRANCH  26  28
HETATM   28  C   UNL     1     -10.629  17.114  65.605  1.00  0.00    -0.179 C  
HETATM   29  O   UNL     1     -11.190  16.859  64.545  1.00  0.00    -1.057 OA 
BRANCH  28  30
HETATM   30  N   UNL     1     -10.445  18.409  66.040  1.00  0.00    -0.428 N  
HETATM   31  H   UNL     1     -10.985  19.167  65.620  1.00  0.00     0.000 HD 
BRANCH  30  32
HETATM   32  C   UNL     1      -9.505  18.698  67.074  1.00  0.00    -0.298 C  
HETATM   33  C   UNL     1      -8.966  20.075  67.328  1.00  0.00    -0.440 C  
HETATM   34  C   UNL     1      -9.961  19.479  68.277  1.00  0.00    -0.533 C  
ENDBRANCH  30  32
ENDBRANCH  28  30
ENDBRANCH  26  28
ENDBRANCH  21  26
ENDBRANCH  18  19
ENDBRANCH  11  18
ENDBRANCH   2   3
TORSDOF 8
ENDMDL
MODEL       41
REMARK 921   NORMALIZED FREE ENERGY PREDICTED BY IDOCK:   -5.96 KCAL/MOL
REMARK 922        TOTAL FREE ENERGY PREDICTED BY IDOCK:  -10.28 KCAL/MOL
REMARK 923 INTER-LIGAND FREE ENERGY PREDICTED BY IDOCK:   -9.36 KCAL/MOL
REMARK 924 INTRA-LIGAND FREE ENERGY PREDICTED BY IDOCK:   -0.92 KCAL/MOL
REMARK 927      BINDING AFFINITY PREDICTED BY RF-SCORE:    0.00 PKD
ROOT
HETATM    1  C   UNL     1     -10.979   6.239  69.359  1.00  0.00    -0.375 C  
HETATM    2  O   UNL     1     -10.446   7.471  69.842  1.00  0.00    -0.218 OA 
ENDROOT
BRANCH   2   3
HETATM    3  C   UNL     1     -10.519   8.528  68.974  1.00  0.00    -0.200 A  
HETATM    4  C   UNL     1     -11.235   9.675  69.346  1.00  0.00    -0.112 A  
HETATM    5  N   UNL     1      -9.567   9.259  65.578  1.00  0.00    -0.260 NA 
HETATM    6  C   UNL     1     -11.367  10.739  68.425  1.00  0.00    -0.367 A  
HETATM    7  C   UNL     1     -10.106   9.482  66.777  1.00  0.00    -0.245 A  
HETATM    8  C   UNL     1     -10.809  10.660  67.120  1.00  0.00    -0.328 A  
HETATM    9  C   UNL     1      -9.785  10.165  64.620  1.00  0.00    -0.309 A  
HETATM   10  C   UNL     1      -9.975   8.456  67.691  1.00  0.00    -0.246 A  
HETATM   11  C   UNL     1     -10.931  11.651  66.102  1.00  0.00    -0.288 A  
HETATM   12  C   UNL     1     -10.494  11.327  64.823  1.00  0.00    -0.384 A  
BRANCH   4  13
HETATM   13  C   UNL     1     -11.800   9.796  70.722  1.00  0.00    -0.319 C  
HETATM   14  H2  UNL     1     -13.623  10.536  70.019  1.00  0.00     0.000 HD 
HETATM   15  H1  UNL     1     -13.464  10.356  71.780  1.00  0.00     0.000 HD 
HETATM   16  O   UNL     1     -11.170   9.502  71.730  1.00  0.00    -0.363 OA 
HETATM   17  N   UNL     1     -13.078  10.273  70.840  1.00  0.00    -0.388 N  
ENDBRANCH   4  13
BRANCH  11  18
HETATM   18  O   UNL     1     -11.599  12.818  66.430  1.00  0.00    -0.336 OA 
BRANCH  18  19
HETATM   19  C   UNL     1     -10.983  13.941  66.956  1.00  0.00    -0.295 A  
HETATM   20  C   UNL     1      -9.768  14.297  66.355  1.00  0.00    -0.315 A  
HETATM   21  C   UNL     1      -9.307  15.958  68.082  1.00  0.00    -0.198 A  
HETATM   22  C   UNL     1      -8.944  15.300  66.904  1.00  0.00    -0.274 A  
HETATM   23  C   UNL     1     -10.527  15.614  68.667  1.00  0.00    -0.231 A  
HETATM   24 CL   UNL     1     -11.058  16.367  70.139  1.00  0.00    -0.348 Cl 
HETATM   25  C   UNL     1     -11.349  14.631  68.107  1.00  0.00    -0.321 A  
BRANCH  21  26
HETATM   26  N   UNL     1      -8.500  16.909  68.745  1.00  0.00    -0.255 N  
HETATM   27  H   UNL     1      -8.058  16.604  69.612  1.00  0.00     0.000 HD 
BRANCH  26  28
HETATM   28  C   UNL     1      -8.245  18.194  68.350  1.00  0.00    -0.303 C  
HETATM   29  O   UNL     1      -7.395  18.525  67.530  1.00  0.00    -0.216 OA 
BRANCH  28  30
HETATM   30  N   UNL     1      -9.054  19.117  68.978  1.00  0.00    -0.287 N  
HETATM   31  H   UNL     1      -8.930  19.307  69.972  1.00  0.00     0.000 HD 
BRANCH  30  32
HETATM   32  C   UNL     1     -10.064  19.809  68.245  1.00  0.00    -0.458 C  
HETATM   33  C   UNL     1      -9.830  20.395  66.884  1.00  0.00    -0.572 C  
HETATM   34  C   UNL     1     -10.659  19.155  67.026  1.00  0.00    -0.551 C  
ENDBRANCH  30  32
ENDBRANCH  28  30
ENDBRANCH  26  28
ENDBRANCH  21  26
ENDBRANCH  18  19
ENDBRANCH  11  18
ENDBRANCH   2   3
TORSDOF 8
ENDMDL
MODEL       42
REMARK 921   NORMALIZED FREE ENERGY PREDICTED BY IDOCK:   -5.94 KCAL/MOL
REMARK 922        TOTAL FREE ENERGY PREDICTED BY IDOCK:  -10.25 KCAL/MOL
REMARK 923 INTER-LIGAND FREE ENERGY PREDICTED BY IDOCK:   -9.12 KCAL/MOL
REMARK 924 INTRA-LIGAND FREE ENERGY PREDICTED BY IDOCK:   -1.13 KCAL/MOL
REMARK 927      BINDING AFFINITY PREDICTED BY RF-SCORE:    0.00 PKD
ROOT
HETATM    1  C   UNL     1      -9.987   4.186  72.002  1.00  0.00    -0.180 C  
HETATM    2  O   UNL     1     -10.327   4.604  70.681  1.00  0.00    -0.182 OA 
ENDROOT
BRANCH   2   3
HETATM    3  C   UNL     1     -10.630   5.933  70.541  1.00  0.00    -0.275 A  
HETATM    4  C   UNL     1      -9.776   6.758  69.796  1.00  0.00    -0.162 A  
HETATM    5  N   UNL     1     -13.050   8.265  71.837  1.00  0.00    -0.338 NA 
HETATM    6  C   UNL     1     -10.053   8.141  69.707  1.00  0.00    -0.197 A  
HETATM    7  C   UNL     1     -11.997   7.855  71.129  1.00  0.00    -0.285 A  
HETATM    8  C   UNL     1     -11.166   8.717  70.377  1.00  0.00    -0.236 A  
HETATM    9  C   UNL     1     -13.275   9.581  71.911  1.00  0.00    -0.439 A  
HETATM   10  C   UNL     1     -11.721   6.504  71.197  1.00  0.00    -0.392 A  
HETATM   11  C   UNL     1     -11.501  10.103  70.394  1.00  0.00    -0.322 A  
HETATM   12  C   UNL     1     -12.506  10.519  71.259  1.00  0.00    -0.524 A  
BRANCH   4  13
HETATM   13  C   UNL     1      -8.621   6.172  69.055  1.00  0.00    -0.121 C  
HETATM   14  H2  UNL     1      -7.299   6.520  70.635  1.00  0.00     0.000 HD 
HETATM   15  H1  UNL     1      -6.620   5.749  69.185  1.00  0.00     0.000 HD 
HETATM   16  O   UNL     1      -8.713   5.730  67.917  1.00  0.00    -0.105 OA 
HETATM   17  N   UNL     1      -7.408   6.150  69.691  1.00  0.00    -0.077 N  
ENDBRANCH   4  13
BRANCH  11  18
HETATM   18  O   UNL     1     -10.708  10.956  69.646  1.00  0.00    -0.238 OA 
BRANCH  18  19
HETATM   19  C   UNL     1     -11.206  11.922  68.788  1.00  0.00    -0.259 A  
HETATM   20  C   UNL     1     -11.354  11.523  67.453  1.00  0.00    -0.367 A  
HETATM   21  C   UNL     1     -11.828  13.806  66.737  1.00  0.00    -0.420 A  
HETATM   22  C   UNL     1     -11.672  12.450  66.440  1.00  0.00    -0.453 A  
HETATM   23  C   UNL     1     -11.698  14.198  68.070  1.00  0.00    -0.359 A  
HETATM   24 CL   UNL     1     -11.862  15.863  68.535  1.00  0.00    -0.309 Cl 
HETATM   25  C   UNL     1     -11.402  13.270  69.074  1.00  0.00    -0.334 A  
BRANCH  21  26
HETATM   26  N   UNL     1     -12.058  14.811  65.771  1.00  0.00    -0.183 N  
HETATM   27  H   UNL     1     -13.032  14.996  65.531  1.00  0.00     0.000 HD 
BRANCH  26  28
HETATM   28  C   UNL     1     -11.118  15.564  65.123  1.00  0.00    -0.374 C  
HETATM   29  O   UNL     1     -11.351  16.365  64.224  1.00  0.00    -0.892 OA 
BRANCH  28  30
HETATM   30  N   UNL     1      -9.839  15.336  65.583  1.00  0.00    -0.348 N  
HETATM   31  H   UNL     1      -9.481  14.382  65.635  1.00  0.00     0.000 HD 
BRANCH  30  32
HETATM   32  C   UNL     1      -9.011  16.425  65.989  1.00  0.00    -0.272 C  
HETATM   33  C   UNL     1      -9.503  17.547  66.854  1.00  0.00    -0.278 C  
HETATM   34  C   UNL     1      -8.579  16.516  67.428  1.00  0.00    -0.193 C  
ENDBRANCH  30  32
ENDBRANCH  28  30
ENDBRANCH  26  28
ENDBRANCH  21  26
ENDBRANCH  18  19
ENDBRANCH  11  18
ENDBRANCH   2   3
TORSDOF 8
ENDMDL
MODEL       43
REMARK 921   NORMALIZED FREE ENERGY PREDICTED BY IDOCK:   -5.92 KCAL/MOL
REMARK 922        TOTAL FREE ENERGY PREDICTED BY IDOCK:  -10.23 KCAL/MOL
REMARK 923 INTER-LIGAND FREE ENERGY PREDICTED BY IDOCK:   -9.23 KCAL/MOL
REMARK 924 INTRA-LIGAND FREE ENERGY PREDICTED BY IDOCK:   -1.00 KCAL/MOL
REMARK 927      BINDING AFFINITY PREDICTED BY RF-SCORE:    0.00 PKD
ROOT
HETATM    1  C   UNL     1     -12.403  15.091  64.239  1.00  0.00    -0.226 C  
HETATM    2  O   UNL     1     -12.814  13.986  65.042  1.00  0.00    -0.695 OA 
ENDROOT
BRANCH   2   3
HETATM    3  C   UNL     1     -11.925  12.946  65.116  1.00  0.00    -0.414 A  
HETATM    4  C   UNL     1     -11.344  12.626  66.351  1.00  0.00    -0.381 A  
HETATM    5  N   UNL     1     -10.243  10.709  62.848  1.00  0.00    -0.043 NA 
HETATM    6  C   UNL     1     -10.377  11.597  66.416  1.00  0.00    -0.266 A  
HETATM    7  C   UNL     1     -10.564  11.256  64.022  1.00  0.00    -0.386 A  
HETATM    8  C   UNL     1      -9.965  10.896  65.251  1.00  0.00    -0.330 A  
HETATM    9  C   UNL     1      -9.232   9.836  62.825  1.00  0.00    -0.223 A  
HETATM   10  C   UNL     1     -11.515  12.255  63.976  1.00  0.00    -0.483 A  
HETATM   11  C   UNL     1      -8.962   9.882  65.201  1.00  0.00    -0.198 A  
HETATM   12  C   UNL     1      -8.544   9.443  63.951  1.00  0.00    -0.225 A  
BRANCH   4  13
HETATM   13  C   UNL     1     -11.786  13.323  67.595  1.00  0.00    -0.357 C  
HETATM   14  H2  UNL     1     -11.827  11.548  68.697  1.00  0.00     0.000 HD 
HETATM   15  H1  UNL     1     -12.282  13.033  69.562  1.00  0.00     0.000 HD 
HETATM   16  O   UNL     1     -11.991  14.529  67.647  1.00  0.00    -0.374 OA 
HETATM   17  N   UNL     1     -11.980  12.557  68.713  1.00  0.00    -0.291 N  
ENDBRANCH   4  13
BRANCH  11  18
HETATM   18  O   UNL     1      -8.381   9.505  66.399  1.00  0.00    -0.117 OA 
BRANCH  18  19
HETATM   19  C   UNL     1      -8.900   8.534  67.239  1.00  0.00    -0.130 A  
HETATM   20  C   UNL     1     -10.037   7.870  66.760  1.00  0.00    -0.352 A  
HETATM   21  C   UNL     1     -10.407   6.780  68.911  1.00  0.00    -0.192 A  
HETATM   22  C   UNL     1     -10.777   6.995  67.581  1.00  0.00    -0.331 A  
HETATM   23  C   UNL     1      -9.263   7.428  69.379  1.00  0.00    -0.145 A  
HETATM   24 CL   UNL     1      -8.731   7.234  71.021  1.00  0.00    -0.139 Cl 
HETATM   25  C   UNL     1      -8.522   8.281  68.554  1.00  0.00    -0.126 A  
BRANCH  21  26
HETATM   26  N   UNL     1     -11.141   5.991  69.824  1.00  0.00    -0.397 N  
HETATM   27  H   UNL     1     -11.198   4.993  69.618  1.00  0.00     0.000 HD 
BRANCH  26  28
HETATM   28  C   UNL     1     -11.783   6.418  70.954  1.00  0.00    -0.303 C  
HETATM   29  O   UNL     1     -11.711   5.879  72.054  1.00  0.00    -0.279 OA 
BRANCH  28  30
HETATM   30  N   UNL     1     -12.547   7.545  70.742  1.00  0.00    -0.554 N  
HETATM   31  H   UNL     1     -13.282   7.534  70.034  1.00  0.00     0.000 HD 
BRANCH  30  32
HETATM   32  C   UNL     1     -12.318   8.728  71.506  1.00  0.00    -0.328 C  
HETATM   33  C   UNL     1     -11.523   9.893  70.991  1.00  0.00    -0.466 C  
HETATM   34  C   UNL     1     -13.014  10.002  71.106  1.00  0.00    -0.478 C  
ENDBRANCH  30  32
ENDBRANCH  28  30
ENDBRANCH  26  28
ENDBRANCH  21  26
ENDBRANCH  18  19
ENDBRANCH  11  18
ENDBRANCH   2   3
TORSDOF 8
ENDMDL
MODEL       44
REMARK 921   NORMALIZED FREE ENERGY PREDICTED BY IDOCK:   -5.92 KCAL/MOL
REMARK 922        TOTAL FREE ENERGY PREDICTED BY IDOCK:  -10.22 KCAL/MOL
REMARK 923 INTER-LIGAND FREE ENERGY PREDICTED BY IDOCK:   -9.41 KCAL/MOL
REMARK 924 INTRA-LIGAND FREE ENERGY PREDICTED BY IDOCK:   -0.81 KCAL/MOL
REMARK 927      BINDING AFFINITY PREDICTED BY RF-SCORE:    0.00 PKD
ROOT
HETATM    1  C   UNL     1      -8.537   7.110  67.850  1.00  0.00    -0.123 C  
HETATM    2  O   UNL     1      -9.257   8.111  68.567  1.00  0.00    -0.137 OA 
ENDROOT
BRANCH   2   3
HETATM    3  C   UNL     1      -9.725   9.156  67.815  1.00  0.00    -0.154 A  
HETATM    4  C   UNL     1     -10.565  10.109  68.408  1.00  0.00    -0.249 A  
HETATM    5  N   UNL     1      -9.674  10.188  64.364  1.00  0.00    -0.310 NA 
HETATM    6  C   UNL     1     -11.100  11.150  67.616  1.00  0.00    -0.348 A  
HETATM    7  C   UNL     1      -9.984  10.250  65.659  1.00  0.00    -0.280 A  
HETATM    8  C   UNL     1     -10.824  11.236  66.225  1.00  0.00    -0.296 A  
HETATM    9  C   UNL     1     -10.268  11.057  63.540  1.00  0.00    -0.365 A  
HETATM   10  C   UNL     1      -9.459   9.246  66.448  1.00  0.00    -0.277 A  
HETATM   11  C   UNL     1     -11.356  12.212  65.331  1.00  0.00    -0.338 A  
HETATM   12  C   UNL     1     -11.140  12.033  63.969  1.00  0.00    -0.452 A  
BRANCH   4  13
HETATM   13  C   UNL     1     -10.841  10.059  69.874  1.00  0.00    -0.285 C  
HETATM   14  H2  UNL     1     -12.836  10.627  69.620  1.00  0.00     0.000 HD 
HETATM   15  H1  UNL     1     -12.298  10.337  71.289  1.00  0.00     0.000 HD 
HETATM   16  O   UNL     1      -9.990   9.768  70.704  1.00  0.00    -0.262 OA 
HETATM   17  N   UNL     1     -12.109  10.371  70.288  1.00  0.00    -0.288 N  
ENDBRANCH   4  13
BRANCH  11  18
HETATM   18  O   UNL     1     -12.164  13.196  65.873  1.00  0.00    -0.425 OA 
BRANCH  18  19
HETATM   19  C   UNL     1     -11.702  14.431  66.296  1.00  0.00    -0.385 A  
HETATM   20  C   UNL     1     -11.123  15.229  65.301  1.00  0.00    -0.382 A  
HETATM   21  C   UNL     1     -10.315  16.838  66.949  1.00  0.00    -0.294 A  
HETATM   22  C   UNL     1     -10.447  16.425  65.620  1.00  0.00    -0.364 A  
HETATM   23  C   UNL     1     -10.910  16.050  67.935  1.00  0.00    -0.333 A  
HETATM   24 CL   UNL     1     -10.790  16.476  69.615  1.00  0.00    -0.339 Cl 
HETATM   25  C   UNL     1     -11.596  14.875  67.611  1.00  0.00    -0.357 A  
BRANCH  21  26
HETATM   26  N   UNL     1      -9.580  17.972  67.360  1.00  0.00    -0.268 N  
HETATM   27  H   UNL     1      -8.662  17.794  67.769  1.00  0.00     0.000 HD 
BRANCH  26  28
HETATM   28  C   UNL     1      -9.963  19.282  67.271  1.00  0.00    -0.363 C  
HETATM   29  O   UNL     1     -11.072  19.671  66.918  1.00  0.00    -0.396 OA 
BRANCH  28  30
HETATM   30  N   UNL     1      -8.959  20.158  67.622  1.00  0.00    -0.330 N  
HETATM   31  H   UNL     1      -9.189  21.122  67.864  1.00  0.00     0.000 HD 
BRANCH  30  32
HETATM   32  C   UNL     1      -7.599  19.726  67.650  1.00  0.00    -0.282 C  
HETATM   33  C   UNL     1      -6.443  20.673  67.776  1.00  0.00    -0.353 C  
HETATM   34  C   UNL     1      -6.832  19.815  68.942  1.00  0.00    -0.373 C  
ENDBRANCH  30  32
ENDBRANCH  28  30
ENDBRANCH  26  28
ENDBRANCH  21  26
ENDBRANCH  18  19
ENDBRANCH  11  18
ENDBRANCH   2   3
TORSDOF 8
ENDMDL
MODEL       45
REMARK 921   NORMALIZED FREE ENERGY PREDICTED BY IDOCK:   -5.90 KCAL/MOL
REMARK 922        TOTAL FREE ENERGY PREDICTED BY IDOCK:  -10.20 KCAL/MOL
REMARK 923 INTER-LIGAND FREE ENERGY PREDICTED BY IDOCK:   -9.49 KCAL/MOL
REMARK 924 INTRA-LIGAND FREE ENERGY PREDICTED BY IDOCK:   -0.71 KCAL/MOL
REMARK 927      BINDING AFFINITY PREDICTED BY RF-SCORE:    0.00 PKD
ROOT
HETATM    1  C   UNL     1     -10.587  18.930  65.609  1.00  0.00    -0.177 C  
HETATM    2  O   UNL     1      -9.689  17.827  65.707  1.00  0.00    -0.534 OA 
ENDROOT
BRANCH   2   3
HETATM    3  C   UNL     1     -10.199  16.700  66.297  1.00  0.00    -0.334 A  
HETATM    4  C   UNL     1     -10.085  16.539  67.685  1.00  0.00    -0.266 A  
HETATM    5  N   UNL     1     -11.662  13.577  65.257  1.00  0.00    -0.312 NA 
HETATM    6  C   UNL     1     -10.550  15.347  68.285  1.00  0.00    -0.253 A  
HETATM    7  C   UNL     1     -11.196  14.491  66.109  1.00  0.00    -0.339 A  
HETATM    8  C   UNL     1     -11.110  14.298  67.507  1.00  0.00    -0.309 A  
HETATM    9  C   UNL     1     -11.979  12.375  65.748  1.00  0.00    -0.372 A  
HETATM   10  C   UNL     1     -10.747  15.665  65.539  1.00  0.00    -0.403 A  
HETATM   11  C   UNL     1     -11.558  13.039  68.007  1.00  0.00    -0.343 A  
HETATM   12  C   UNL     1     -11.893  12.055  67.085  1.00  0.00    -0.251 A  
BRANCH   4  13
HETATM   13  C   UNL     1      -9.533  17.641  68.528  1.00  0.00    -0.298 C  
HETATM   14  H2  UNL     1      -7.564  16.988  68.272  1.00  0.00     0.000 HD 
HETATM   15  H1  UNL     1      -7.798  18.435  69.277  1.00  0.00     0.000 HD 
HETATM   16  O   UNL     1     -10.237  18.484  69.068  1.00  0.00    -0.356 OA 
HETATM   17  N   UNL     1      -8.175  17.682  68.701  1.00  0.00    -0.281 N  
ENDBRANCH   4  13
BRANCH  11  18
HETATM   18  O   UNL     1     -11.499  12.843  69.376  1.00  0.00    -0.273 OA 
BRANCH  18  19
HETATM   19  C   UNL     1     -11.450  11.597  69.977  1.00  0.00    -0.182 A  
HETATM   20  C   UNL     1     -10.359  10.797  69.616  1.00  0.00    -0.142 A  
HETATM   21  C   UNL     1     -11.306   8.852  70.745  1.00  0.00    -0.278 A  
HETATM   22  C   UNL     1     -10.280   9.443  70.003  1.00  0.00    -0.262 A  
HETATM   23  C   UNL     1     -12.383   9.657  71.120  1.00  0.00    -0.339 A  
HETATM   24 CL   UNL     1     -13.711   9.009  72.031  1.00  0.00    -0.476 Cl 
HETATM   25  C   UNL     1     -12.446  11.004  70.748  1.00  0.00    -0.491 A  
BRANCH  21  26
HETATM   26  N   UNL     1     -11.347   7.485  71.097  1.00  0.00    -0.262 N  
HETATM   27  H   UNL     1     -11.665   7.269  72.042  1.00  0.00     0.000 HD 
BRANCH  26  28
HETATM   28  C   UNL     1     -11.009   6.419  70.309  1.00  0.00    -0.318 C  
HETATM   29  O   UNL     1     -10.305   5.477  70.658  1.00  0.00    -0.228 OA 
BRANCH  28  30
HETATM   30  N   UNL     1     -11.547   6.498  69.042  1.00  0.00    -0.594 N  
HETATM   31  H   UNL     1     -12.546   6.671  68.925  1.00  0.00     0.000 HD 
BRANCH  30  32
HETATM   32  C   UNL     1     -10.716   6.339  67.893  1.00  0.00    -0.305 C  
HETATM   33  C   UNL     1     -10.296   7.487  67.023  1.00  0.00    -0.395 C  
HETATM   34  C   UNL     1      -9.300   6.846  67.941  1.00  0.00    -0.118 C  
ENDBRANCH  30  32
ENDBRANCH  28  30
ENDBRANCH  26  28
ENDBRANCH  21  26
ENDBRANCH  18  19
ENDBRANCH  11  18
ENDBRANCH   2   3
TORSDOF 8
ENDMDL
MODEL       46
REMARK 921   NORMALIZED FREE ENERGY PREDICTED BY IDOCK:   -5.90 KCAL/MOL
REMARK 922        TOTAL FREE ENERGY PREDICTED BY IDOCK:  -10.19 KCAL/MOL
REMARK 923 INTER-LIGAND FREE ENERGY PREDICTED BY IDOCK:   -9.87 KCAL/MOL
REMARK 924 INTRA-LIGAND FREE ENERGY PREDICTED BY IDOCK:   -0.32 KCAL/MOL
REMARK 927      BINDING AFFINITY PREDICTED BY RF-SCORE:    0.00 PKD
ROOT
HETATM    1  C   UNL     1     -10.563  19.468  65.711  1.00  0.00    -0.427 C  
HETATM    2  O   UNL     1      -9.664  18.363  65.769  1.00  0.00    -0.483 OA 
ENDROOT
BRANCH   2   3
HETATM    3  C   UNL     1     -10.235  17.149  66.047  1.00  0.00    -0.321 A  
HETATM    4  C   UNL     1     -10.168  16.640  67.352  1.00  0.00    -0.286 A  
HETATM    5  N   UNL     1     -11.795  14.458  64.230  1.00  0.00    -0.397 NA 
HETATM    6  C   UNL     1     -10.699  15.359  67.625  1.00  0.00    -0.292 A  
HETATM    7  C   UNL     1     -11.316  15.107  65.293  1.00  0.00    -0.318 A  
HETATM    8  C   UNL     1     -11.278  14.566  66.598  1.00  0.00    -0.346 A  
HETATM    9  C   UNL     1     -12.175  13.188  64.398  1.00  0.00    -0.398 A  
HETATM   10  C   UNL     1     -10.804  16.364  65.044  1.00  0.00    -0.289 A  
HETATM   11  C   UNL     1     -11.792  13.245  66.758  1.00  0.00    -0.394 A  
HETATM   12  C   UNL     1     -12.140  12.540  65.612  1.00  0.00    -0.464 A  
BRANCH   4  13
HETATM   13  C   UNL     1      -9.596  17.469  68.454  1.00  0.00    -0.303 C  
HETATM   14  H2  UNL     1      -7.825  16.360  68.506  1.00  0.00     0.000 HD 
HETATM   15  H1  UNL     1      -7.955  17.707  69.659  1.00  0.00     0.000 HD 
HETATM   16  O   UNL     1     -10.196  18.404  68.966  1.00  0.00    -0.367 OA 
HETATM   17  N   UNL     1      -8.345  17.140  68.906  1.00  0.00    -0.227 N  
ENDBRANCH   4  13
BRANCH  11  18
HETATM   18  O   UNL     1     -11.779  12.709  68.034  1.00  0.00    -0.321 OA 
BRANCH  18  19
HETATM   19  C   UNL     1     -11.514  11.379  68.313  1.00  0.00    -0.299 A  
HETATM   20  C   UNL     1     -11.724  10.990  69.642  1.00  0.00    -0.401 A  
HETATM   21  C   UNL     1     -10.675   8.821  69.258  1.00  0.00    -0.151 A  
HETATM   22  C   UNL     1     -11.320   9.722  70.109  1.00  0.00    -0.305 A  
HETATM   23  C   UNL     1     -10.485   9.204  67.930  1.00  0.00    -0.237 A  
HETATM   24 CL   UNL     1      -9.682   8.157  66.801  1.00  0.00    -0.279 Cl 
HETATM   25  C   UNL     1     -10.905  10.456  67.468  1.00  0.00    -0.358 A  
BRANCH  21  26
HETATM   26  N   UNL     1     -10.161   7.570  69.666  1.00  0.00    -0.200 N  
HETATM   27  H   UNL     1      -9.160   7.532  69.861  1.00  0.00     0.000 HD 
BRANCH  26  28
HETATM   28  C   UNL     1     -10.858   6.404  69.831  1.00  0.00    -0.310 C  
HETATM   29  O   UNL     1     -10.448   5.288  69.534  1.00  0.00    -0.273 OA 
BRANCH  28  30
HETATM   30  N   UNL     1     -12.109   6.601  70.377  1.00  0.00    -0.543 N  
HETATM   31  H   UNL     1     -12.903   6.800  69.768  1.00  0.00     0.000 HD 
BRANCH  30  32
HETATM   32  C   UNL     1     -12.300   6.528  71.789  1.00  0.00    -0.287 C  
HETATM   33  C   UNL     1     -11.636   5.495  72.652  1.00  0.00    -0.293 C  
HETATM   34  C   UNL     1     -11.166   6.918  72.700  1.00  0.00    -0.297 C  
ENDBRANCH  30  32
ENDBRANCH  28  30
ENDBRANCH  26  28
ENDBRANCH  21  26
ENDBRANCH  18  19
ENDBRANCH  11  18
ENDBRANCH   2   3
TORSDOF 8
ENDMDL
MODEL       47
REMARK 921   NORMALIZED FREE ENERGY PREDICTED BY IDOCK:   -5.89 KCAL/MOL
REMARK 922        TOTAL FREE ENERGY PREDICTED BY IDOCK:  -10.18 KCAL/MOL
REMARK 923 INTER-LIGAND FREE ENERGY PREDICTED BY IDOCK:   -8.85 KCAL/MOL
REMARK 924 INTRA-LIGAND FREE ENERGY PREDICTED BY IDOCK:   -1.33 KCAL/MOL
REMARK 927      BINDING AFFINITY PREDICTED BY RF-SCORE:    0.00 PKD
ROOT
HETATM    1  C   UNL     1      -9.073   3.176  72.220  1.00  0.00    -0.097 C  
HETATM    2  O   UNL     1     -10.086   4.180  72.234  1.00  0.00    -0.170 OA 
ENDROOT
BRANCH   2   3
HETATM    3  C   UNL     1      -9.977   5.143  71.266  1.00  0.00    -0.192 A  
HETATM    4  C   UNL     1      -9.553   6.431  71.621  1.00  0.00    -0.171 A  
HETATM    5  N   UNL     1     -10.771   5.510  67.771  1.00  0.00    -0.160 NA 
HETATM    6  C   UNL     1      -9.505   7.442  70.635  1.00  0.00    -0.164 A  
HETATM    7  C   UNL     1     -10.335   5.878  68.977  1.00  0.00    -0.233 A  
HETATM    8  C   UNL     1      -9.901   7.185  69.294  1.00  0.00    -0.161 A  
HETATM    9  C   UNL     1     -10.888   6.457  66.836  1.00  0.00    -0.357 A  
HETATM   10  C   UNL     1     -10.366   4.898  69.948  1.00  0.00    -0.220 A  
HETATM   11  C   UNL     1      -9.940   8.146  68.241  1.00  0.00    -0.186 A  
HETATM   12  C   UNL     1     -10.540   7.773  67.043  1.00  0.00    -0.396 A  
BRANCH   4  13
HETATM   13  C   UNL     1      -9.099   6.716  73.015  1.00  0.00    -0.127 C  
HETATM   14  H2  UNL     1     -11.008   7.311  73.624  1.00  0.00     0.000 HD 
HETATM   15  H1  UNL     1      -9.727   7.365  74.855  1.00  0.00     0.000 HD 
HETATM   16  O   UNL     1      -7.940   6.572  73.381  1.00  0.00    -0.099 OA 
HETATM   17  N   UNL     1     -10.037   7.171  73.903  1.00  0.00    -0.336 N  
ENDBRANCH   4  13
BRANCH  11  18
HETATM   18  O   UNL     1      -9.499   9.425  68.532  1.00  0.00    -0.144 OA 
BRANCH  18  19
HETATM   19  C   UNL     1     -10.340  10.489  68.812  1.00  0.00    -0.191 A  
HETATM   20  C   UNL     1     -10.110  11.651  68.065  1.00  0.00    -0.198 A  
HETATM   21  C   UNL     1     -11.646  12.944  69.450  1.00  0.00    -0.302 A  
HETATM   22  C   UNL     1     -10.762  12.863  68.371  1.00  0.00    -0.273 A  
HETATM   23  C   UNL     1     -11.888  11.780  70.181  1.00  0.00    -0.324 A  
HETATM   24 CL   UNL     1     -12.961  11.786  71.546  1.00  0.00    -0.504 Cl 
HETATM   25  C   UNL     1     -11.252  10.577  69.860  1.00  0.00    -0.374 A  
BRANCH  21  26
HETATM   26  N   UNL     1     -12.271  14.137  69.878  1.00  0.00    -0.346 N  
HETATM   27  H   UNL     1     -13.284  14.187  69.759  1.00  0.00     0.000 HD 
BRANCH  26  28
HETATM   28  C   UNL     1     -11.669  15.231  70.436  1.00  0.00    -0.310 C  
HETATM   29  O   UNL     1     -11.413  16.275  69.845  1.00  0.00    -0.301 OA 
BRANCH  28  30
HETATM   30  N   UNL     1     -11.360  15.052  71.767  1.00  0.00    -0.551 N  
HETATM   31  H   UNL     1     -10.702  14.322  72.042  1.00  0.00     0.000 HD 
BRANCH  30  32
HETATM   32  C   UNL     1     -11.956  15.880  72.765  1.00  0.00    -0.511 C  
HETATM   33  C   UNL     1     -13.410  15.803  73.130  1.00  0.00    -0.685 C  
HETATM   34  C   UNL     1     -12.376  15.261  74.071  1.00  0.00    -0.767 C  
ENDBRANCH  30  32
ENDBRANCH  28  30
ENDBRANCH  26  28
ENDBRANCH  21  26
ENDBRANCH  18  19
ENDBRANCH  11  18
ENDBRANCH   2   3
TORSDOF 8
ENDMDL
MODEL       48
REMARK 921   NORMALIZED FREE ENERGY PREDICTED BY IDOCK:   -5.86 KCAL/MOL
REMARK 922        TOTAL FREE ENERGY PREDICTED BY IDOCK:  -10.13 KCAL/MOL
REMARK 923 INTER-LIGAND FREE ENERGY PREDICTED BY IDOCK:   -9.18 KCAL/MOL
REMARK 924 INTRA-LIGAND FREE ENERGY PREDICTED BY IDOCK:   -0.95 KCAL/MOL
REMARK 927      BINDING AFFINITY PREDICTED BY RF-SCORE:    0.00 PKD
ROOT
HETATM    1  C   UNL     1     -10.434   7.469  67.059  1.00  0.00    -0.338 C  
HETATM    2  O   UNL     1      -9.879   8.684  66.556  1.00  0.00    -0.237 OA 
ENDROOT
BRANCH   2   3
HETATM    3  C   UNL     1     -10.454   9.836  67.027  1.00  0.00    -0.227 A  
HETATM    4  C   UNL     1     -10.490  10.972  66.206  1.00  0.00    -0.310 A  
HETATM    5  N   UNL     1     -11.810  11.062  70.131  1.00  0.00    -0.325 NA 
HETATM    6  C   UNL     1     -11.022  12.178  66.715  1.00  0.00    -0.325 A  
HETATM    7  C   UNL     1     -11.435  11.107  68.852  1.00  0.00    -0.295 A  
HETATM    8  C   UNL     1     -11.500  12.269  68.050  1.00  0.00    -0.378 A  
HETATM    9  C   UNL     1     -12.184  12.207  70.710  1.00  0.00    -0.271 A  
HETATM   10  C   UNL     1     -10.923   9.933  68.338  1.00  0.00    -0.235 A  
HETATM   11  C   UNL     1     -12.004  13.449  68.674  1.00  0.00    -0.327 A  
HETATM   12  C   UNL     1     -12.243  13.409  70.042  1.00  0.00    -0.367 A  
BRANCH   4  13
HETATM   13  C   UNL     1     -10.027  10.890  64.789  1.00  0.00    -0.307 C  
HETATM   14  H2  UNL     1      -8.254   9.919  65.318  1.00  0.00     0.000 HD 
HETATM   15  H1  UNL     1      -8.501  10.238  63.586  1.00  0.00     0.000 HD 
HETATM   16  O   UNL     1     -10.670  11.340  63.850  1.00  0.00    -0.363 OA 
HETATM   17  N   UNL     1      -8.817  10.293  64.554  1.00  0.00    -0.188 N  
ENDBRANCH   4  13
BRANCH  11  18
HETATM   18  O   UNL     1     -12.092  14.590  67.895  1.00  0.00    -0.325 OA 
BRANCH  18  19
HETATM   19  C   UNL     1     -11.013  15.397  67.579  1.00  0.00    -0.315 A  
HETATM   20  C   UNL     1     -10.824  15.641  66.213  1.00  0.00    -0.262 A  
HETATM   21  C   UNL     1      -8.655  16.684  66.615  1.00  0.00    -0.258 A  
HETATM   22  C   UNL     1      -9.665  16.287  65.735  1.00  0.00    -0.299 A  
HETATM   23  C   UNL     1      -8.855  16.457  67.978  1.00  0.00    -0.184 A  
HETATM   24 CL   UNL     1      -7.651  16.904  69.147  1.00  0.00    -0.206 Cl 
HETATM   25  C   UNL     1     -10.015  15.832  68.447  1.00  0.00    -0.217 A  
BRANCH  21  26
HETATM   26  N   UNL     1      -7.427  17.255  66.213  1.00  0.00    -0.304 N  
HETATM   27  H   UNL     1      -6.637  16.616  66.123  1.00  0.00     0.000 HD 
BRANCH  26  28
HETATM   28  C   UNL     1      -7.182  18.571  65.929  1.00  0.00    -0.230 C  
HETATM   29  O   UNL     1      -6.765  18.997  64.858  1.00  0.00    -0.478 OA 
BRANCH  28  30
HETATM   30  N   UNL     1      -7.454  19.407  66.991  1.00  0.00    -0.220 N  
HETATM   31  H   UNL     1      -6.862  19.381  67.822  1.00  0.00     0.000 HD 
BRANCH  30  32
HETATM   32  C   UNL     1      -8.559  20.309  66.937  1.00  0.00    -0.290 C  
HETATM   33  C   UNL     1      -9.878  19.949  66.319  1.00  0.00    -0.570 C  
HETATM   34  C   UNL     1      -9.757  20.048  67.810  1.00  0.00    -0.528 C  
ENDBRANCH  30  32
ENDBRANCH  28  30
ENDBRANCH  26  28
ENDBRANCH  21  26
ENDBRANCH  18  19
ENDBRANCH  11  18
ENDBRANCH   2   3
TORSDOF 8
ENDMDL
MODEL       49
REMARK 921   NORMALIZED FREE ENERGY PREDICTED BY IDOCK:   -5.85 KCAL/MOL
REMARK 922        TOTAL FREE ENERGY PREDICTED BY IDOCK:  -10.12 KCAL/MOL
REMARK 923 INTER-LIGAND FREE ENERGY PREDICTED BY IDOCK:   -9.07 KCAL/MOL
REMARK 924 INTRA-LIGAND FREE ENERGY PREDICTED BY IDOCK:   -1.05 KCAL/MOL
REMARK 927      BINDING AFFINITY PREDICTED BY RF-SCORE:    0.00 PKD
ROOT
HETATM    1  C   UNL     1      -9.233   3.808  68.449  1.00  0.00    -0.157 C  
HETATM    2  O   UNL     1      -8.609   5.088  68.369  1.00  0.00    -0.098 OA 
ENDROOT
BRANCH   2   3
HETATM    3  C   UNL     1      -9.331   6.131  68.889  1.00  0.00    -0.124 A  
HETATM    4  C   UNL     1      -8.797   7.426  68.843  1.00  0.00    -0.131 A  
HETATM    5  N   UNL     1     -12.371   6.595  70.764  1.00  0.00    -0.281 NA 
HETATM    6  C   UNL     1      -9.510   8.491  69.439  1.00  0.00    -0.161 A  
HETATM    7  C   UNL     1     -11.246   6.949  70.141  1.00  0.00    -0.313 A  
HETATM    8  C   UNL     1     -10.746   8.271  70.104  1.00  0.00    -0.239 A  
HETATM    9  C   UNL     1     -13.012   7.531  71.470  1.00  0.00    -0.359 A  
HETATM   10  C   UNL     1     -10.544   5.921  69.545  1.00  0.00    -0.378 A  
HETATM   11  C   UNL     1     -11.515   9.265  70.781  1.00  0.00    -0.292 A  
HETATM   12  C   UNL     1     -12.595   8.841  71.546  1.00  0.00    -0.372 A  
BRANCH   4  13
HETATM   13  C   UNL     1      -7.518   7.688  68.120  1.00  0.00    -0.108 C  
HETATM   14  H2  UNL     1      -8.461   7.718  66.255  1.00  0.00     0.000 HD 
HETATM   15  H1  UNL     1      -6.704   7.984  66.262  1.00  0.00     0.000 HD 
HETATM   16  O   UNL     1      -6.438   7.786  68.687  1.00  0.00    -0.045 OA 
HETATM   17  N   UNL     1      -7.577   7.805  66.756  1.00  0.00    -0.096 N  
ENDBRANCH   4  13
BRANCH  11  18
HETATM   18  O   UNL     1     -11.048  10.567  70.736  1.00  0.00    -0.250 OA 
BRANCH  18  19
HETATM   19  C   UNL     1     -11.507  11.523  69.847  1.00  0.00    -0.260 A  
HETATM   20  C   UNL     1     -11.486  11.148  68.497  1.00  0.00    -0.371 A  
HETATM   21  C   UNL     1     -12.015  13.418  67.774  1.00  0.00    -0.324 A  
HETATM   22  C   UNL     1     -11.747  12.080  67.471  1.00  0.00    -0.351 A  
HETATM   23  C   UNL     1     -12.054  13.784  69.120  1.00  0.00    -0.333 A  
HETATM   24 CL   UNL     1     -12.367  15.425  69.594  1.00  0.00    -0.301 Cl 
HETATM   25  C   UNL     1     -11.813  12.850  70.133  1.00  0.00    -0.319 A  
BRANCH  21  26
HETATM   26  N   UNL     1     -12.199  14.431  66.807  1.00  0.00    -0.515 N  
HETATM   27  H   UNL     1     -12.804  15.208  67.072  1.00  0.00     0.000 HD 
BRANCH  26  28
HETATM   28  C   UNL     1     -11.653  14.485  65.553  1.00  0.00    -0.350 C  
HETATM   29  O   UNL     1     -10.493  14.791  65.300  1.00  0.00    -0.346 OA 
BRANCH  28  30
HETATM   30  N   UNL     1     -12.554  14.154  64.563  1.00  0.00    -0.675 N  
HETATM   31  H   UNL     1     -13.511  14.502  64.612  1.00  0.00     0.000 HD 
BRANCH  30  32
HETATM   32  C   UNL     1     -12.155  13.328  63.470  1.00  0.00    -0.482 C  
HETATM   33  C   UNL     1     -11.300  12.106  63.638  1.00  0.00    -0.545 C  
HETATM   34  C   UNL     1     -12.760  11.956  63.334  1.00  0.00    -0.496 C  
ENDBRANCH  30  32
ENDBRANCH  28  30
ENDBRANCH  26  28
ENDBRANCH  21  26
ENDBRANCH  18  19
ENDBRANCH  11  18
ENDBRANCH   2   3
TORSDOF 8
ENDMDL
MODEL       50
REMARK 921   NORMALIZED FREE ENERGY PREDICTED BY IDOCK:   -5.80 KCAL/MOL
REMARK 922        TOTAL FREE ENERGY PREDICTED BY IDOCK:  -10.04 KCAL/MOL
REMARK 923 INTER-LIGAND FREE ENERGY PREDICTED BY IDOCK:   -9.09 KCAL/MOL
REMARK 924 INTRA-LIGAND FREE ENERGY PREDICTED BY IDOCK:   -0.95 KCAL/MOL
REMARK 927      BINDING AFFINITY PREDICTED BY RF-SCORE:    0.00 PKD
ROOT
HETATM    1  C   UNL     1     -11.418   5.032  73.170  1.00  0.00    -0.282 C  
HETATM    2  O   UNL     1     -10.589   6.185  73.305  1.00  0.00    -0.230 OA 
ENDROOT
BRANCH   2   3
HETATM    3  C   UNL     1     -10.768   7.157  72.356  1.00  0.00    -0.241 A  
HETATM    4  C   UNL     1      -9.974   7.145  71.201  1.00  0.00    -0.187 A  
HETATM    5  N   UNL     1     -12.662  10.198  71.981  1.00  0.00    -0.379 NA 
HETATM    6  C   UNL     1     -10.112   8.184  70.254  1.00  0.00    -0.192 A  
HETATM    7  C   UNL     1     -11.798   9.239  71.643  1.00  0.00    -0.383 A  
HETATM    8  C   UNL     1     -11.024   9.255  70.460  1.00  0.00    -0.318 A  
HETATM    9  C   UNL     1     -12.728  11.279  71.199  1.00  0.00    -0.390 A  
HETATM   10  C   UNL     1     -11.660   8.211  72.553  1.00  0.00    -0.468 A  
HETATM   11  C   UNL     1     -11.200  10.375  69.595  1.00  0.00    -0.277 A  
HETATM   12  C   UNL     1     -11.989  11.427  70.046  1.00  0.00    -0.442 A  
BRANCH   4  13
HETATM   13  C   UNL     1      -9.035   6.013  70.945  1.00  0.00    -0.143 C  
HETATM   14  H2  UNL     1     -10.388   5.042  69.684  1.00  0.00     0.000 HD 
HETATM   15  H1  UNL     1      -8.822   4.241  69.938  1.00  0.00     0.000 HD 
HETATM   16  O   UNL     1      -7.923   5.940  71.453  1.00  0.00    -0.109 OA 
HETATM   17  N   UNL     1      -9.464   5.014  70.113  1.00  0.00    -0.155 N  
ENDBRANCH   4  13
BRANCH  11  18
HETATM   18  O   UNL     1     -10.463  10.395  68.424  1.00  0.00    -0.170 OA 
BRANCH  18  19
HETATM   19  C   UNL     1     -10.448  11.458  67.537  1.00  0.00    -0.201 A  
HETATM   20  C   UNL     1      -9.240  12.163  67.465  1.00  0.00    -0.182 A  
HETATM   21  C   UNL     1     -10.251  13.918  66.104  1.00  0.00    -0.301 A  
HETATM   22  C   UNL     1      -9.137  13.373  66.749  1.00  0.00    -0.221 A  
HETATM   23  C   UNL     1     -11.448  13.203  66.162  1.00  0.00    -0.330 A  
HETATM   24 CL   UNL     1     -12.889  13.806  65.403  1.00  0.00    -0.512 Cl 
HETATM   25  C   UNL     1     -11.539  11.994  66.858  1.00  0.00    -0.389 A  
BRANCH  21  26
HETATM   26  N   UNL     1     -10.256  15.166  65.442  1.00  0.00    -0.360 N  
HETATM   27  H   UNL     1     -10.173  15.141  64.426  1.00  0.00     0.000 HD 
BRANCH  26  28
HETATM   28  C   UNL     1     -10.360  16.404  66.015  1.00  0.00    -0.352 C  
HETATM   29  O   UNL     1     -10.671  17.432  65.423  1.00  0.00    -0.595 OA 
BRANCH  28  30
HETATM   30  N   UNL     1     -10.075  16.396  67.363  1.00  0.00    -0.257 N  
HETATM   31  H   UNL     1      -9.123  16.207  67.679  1.00  0.00     0.000 HD 
BRANCH  30  32
HETATM   32  C   UNL     1     -11.101  16.650  68.321  1.00  0.00    -0.295 C  
HETATM   33  C   UNL     1     -11.866  15.558  69.009  1.00  0.00    -0.373 C  
HETATM   34  C   UNL     1     -10.839  16.340  69.771  1.00  0.00    -0.356 C  
ENDBRANCH  30  32
ENDBRANCH  28  30
ENDBRANCH  26  28
ENDBRANCH  21  26
ENDBRANCH  18  19
ENDBRANCH  11  18
ENDBRANCH   2   3
TORSDOF 8
ENDMDL
MODEL       51
REMARK 921   NORMALIZED FREE ENERGY PREDICTED BY IDOCK:   -5.77 KCAL/MOL
REMARK 922        TOTAL FREE ENERGY PREDICTED BY IDOCK:  -10.01 KCAL/MOL
REMARK 923 INTER-LIGAND FREE ENERGY PREDICTED BY IDOCK:   -8.57 KCAL/MOL
REMARK 924 INTRA-LIGAND FREE ENERGY PREDICTED BY IDOCK:   -1.44 KCAL/MOL
REMARK 927      BINDING AFFINITY PREDICTED BY RF-SCORE:    0.00 PKD
ROOT
HETATM    1  C   UNL     1     -10.242   7.501  67.720  1.00  0.00    -0.201 C  
HETATM    2  O   UNL     1     -10.772   8.499  68.591  1.00  0.00    -0.159 OA 
ENDROOT
BRANCH   2   3
HETATM    3  C   UNL     1     -10.782   9.775  68.092  1.00  0.00    -0.233 A  
HETATM    4  C   UNL     1     -11.201  10.831  68.913  1.00  0.00    -0.328 A  
HETATM    5  N   UNL     1     -10.264  11.400  64.919  1.00  0.00    -0.261 NA 
HETATM    6  C   UNL     1     -11.275  12.137  68.379  1.00  0.00    -0.314 A  
HETATM    7  C   UNL     1     -10.553  11.305  66.217  1.00  0.00    -0.263 A  
HETATM    8  C   UNL     1     -10.957  12.398  67.018  1.00  0.00    -0.303 A  
HETATM    9  C   UNL     1     -10.459  12.580  64.323  1.00  0.00    -0.378 A  
HETATM   10  C   UNL     1     -10.474  10.037  66.756  1.00  0.00    -0.267 A  
HETATM   11  C   UNL     1     -11.051  13.665  66.371  1.00  0.00    -0.303 A  
HETATM   12  C   UNL     1     -10.893  13.703  64.990  1.00  0.00    -0.358 A  
BRANCH   4  13
HETATM   13  C   UNL     1     -11.505  10.588  70.354  1.00  0.00    -0.341 C  
HETATM   14  H2  UNL     1     -13.315  11.627  70.252  1.00  0.00     0.000 HD 
HETATM   15  H1  UNL     1     -12.884  10.935  71.831  1.00  0.00     0.000 HD 
HETATM   16  O   UNL     1     -10.755   9.972  71.100  1.00  0.00    -0.213 OA 
HETATM   17  N   UNL     1     -12.676  11.101  70.847  1.00  0.00    -0.357 N  
ENDBRANCH   4  13
BRANCH  11  18
HETATM   18  O   UNL     1     -11.427  14.748  67.146  1.00  0.00    -0.354 OA 
BRANCH  18  19
HETATM   19  C   UNL     1     -10.638  15.869  67.344  1.00  0.00    -0.315 A  
HETATM   20  C   UNL     1      -9.851  15.854  68.503  1.00  0.00    -0.210 A  
HETATM   21  C   UNL     1      -9.229  18.195  68.209  1.00  0.00    -0.298 A  
HETATM   22  C   UNL     1      -9.145  16.998  68.926  1.00  0.00    -0.208 A  
HETATM   23  C   UNL     1      -9.998  18.201  67.045  1.00  0.00    -0.338 A  
HETATM   24 CL   UNL     1     -10.173  19.644  66.094  1.00  0.00    -0.567 Cl 
HETATM   25  C   UNL     1     -10.682  17.057  66.620  1.00  0.00    -0.092 A  
BRANCH  21  26
HETATM   26  N   UNL     1      -8.626  19.407  68.611  1.00  0.00    -0.363 N  
HETATM   27  H   UNL     1      -9.255  20.137  68.948  1.00  0.00     0.000 HD 
BRANCH  26  28
HETATM   28  C   UNL     1      -7.292  19.711  68.599  1.00  0.00    -0.340 C  
HETATM   29  O   UNL     1      -6.556  19.696  69.579  1.00  0.00    -0.326 OA 
BRANCH  28  30
HETATM   30  N   UNL     1      -6.832  20.048  67.344  1.00  0.00    -0.218 N  
HETATM   31  H   UNL     1      -7.120  20.928  66.917  1.00  0.00     0.000 HD 
BRANCH  30  32
HETATM   32  C   UNL     1      -5.953  19.172  66.637  1.00  0.00    -0.165 C  
HETATM   33  C   UNL     1      -5.919  17.690  66.865  1.00  0.00    -0.189 C  
HETATM   34  C   UNL     1      -6.529  18.236  65.609  1.00  0.00    -0.309 C  
ENDBRANCH  30  32
ENDBRANCH  28  30
ENDBRANCH  26  28
ENDBRANCH  21  26
ENDBRANCH  18  19
ENDBRANCH  11  18
ENDBRANCH   2   3
TORSDOF 8
ENDMDL
MODEL       52
REMARK 921   NORMALIZED FREE ENERGY PREDICTED BY IDOCK:   -5.74 KCAL/MOL
REMARK 922        TOTAL FREE ENERGY PREDICTED BY IDOCK:   -9.96 KCAL/MOL
REMARK 923 INTER-LIGAND FREE ENERGY PREDICTED BY IDOCK:   -8.67 KCAL/MOL
REMARK 924 INTRA-LIGAND FREE ENERGY PREDICTED BY IDOCK:   -1.29 KCAL/MOL
REMARK 927      BINDING AFFINITY PREDICTED BY RF-SCORE:    0.00 PKD
ROOT
HETATM    1  C   UNL     1     -10.151   6.270  74.464  1.00  0.00    -0.336 C  
HETATM    2  O   UNL     1     -10.087   6.089  73.051  1.00  0.00    -0.173 OA 
ENDROOT
BRANCH   2   3
HETATM    3  C   UNL     1     -10.390   7.194  72.299  1.00  0.00    -0.201 A  
HETATM    4  C   UNL     1      -9.472   7.647  71.341  1.00  0.00    -0.166 A  
HETATM    5  N   UNL     1     -12.963   9.713  72.179  1.00  0.00    -0.411 NA 
HETATM    6  C   UNL     1      -9.755   8.824  70.612  1.00  0.00    -0.239 A  
HETATM    7  C   UNL     1     -11.835   9.091  71.830  1.00  0.00    -0.376 A  
HETATM    8  C   UNL     1     -10.940   9.572  70.847  1.00  0.00    -0.407 A  
HETATM    9  C   UNL     1     -13.210  10.906  71.631  1.00  0.00    -0.367 A  
HETATM   10  C   UNL     1     -11.551   7.934  72.526  1.00  0.00    -0.443 A  
HETATM   11  C   UNL     1     -11.292  10.797  70.206  1.00  0.00    -0.290 A  
HETATM   12  C   UNL     1     -12.388  11.496  70.697  1.00  0.00    -0.457 A  
BRANCH   4  13
HETATM   13  C   UNL     1      -8.237   6.860  71.051  1.00  0.00    -0.118 C  
HETATM   14  H2  UNL     1      -9.091   5.947  69.376  1.00  0.00     0.000 HD 
HETATM   15  H1  UNL     1      -7.419   5.488  69.766  1.00  0.00     0.000 HD 
HETATM   16  O   UNL     1      -7.229   6.921  71.742  1.00  0.00    -0.077 OA 
HETATM   17  N   UNL     1      -8.262   6.026  69.964  1.00  0.00    -0.120 N  
ENDBRANCH   4  13
BRANCH  11  18
HETATM   18  O   UNL     1     -10.435  11.270  69.228  1.00  0.00    -0.197 OA 
BRANCH  18  19
HETATM   19  C   UNL     1     -10.665  11.139  67.869  1.00  0.00    -0.216 A  
HETATM   20  C   UNL     1     -10.038  10.046  67.255  1.00  0.00    -0.259 A  
HETATM   21  C   UNL     1     -10.635  10.849  65.030  1.00  0.00    -0.217 A  
HETATM   22  C   UNL     1     -10.031   9.895  65.854  1.00  0.00    -0.347 A  
HETATM   23  C   UNL     1     -11.275  11.925  65.645  1.00  0.00    -0.306 A  
HETATM   24 CL   UNL     1     -12.042  13.168  64.704  1.00  0.00    -0.433 Cl 
HETATM   25  C   UNL     1     -11.294  12.060  67.037  1.00  0.00    -0.396 A  
BRANCH  21  26
HETATM   26  N   UNL     1     -10.597  10.819  63.618  1.00  0.00    -0.509 N  
HETATM   27  H   UNL     1     -11.494  10.891  63.138  1.00  0.00     0.000 HD 
BRANCH  26  28
HETATM   28  C   UNL     1      -9.489  10.706  62.824  1.00  0.00    -0.328 C  
HETATM   29  O   UNL     1      -8.731  11.625  62.532  1.00  0.00    -0.259 OA 
BRANCH  28  30
HETATM   30  N   UNL     1      -9.291   9.422  62.362  1.00  0.00    -0.580 N  
HETATM   31  H   UNL     1     -10.026   8.954  61.832  1.00  0.00     0.000 HD 
BRANCH  30  32
HETATM   32  C   UNL     1      -8.063   8.742  62.621  1.00  0.00    -0.171 C  
HETATM   33  C   UNL     1      -7.865   7.831  63.796  1.00  0.00    -0.132 C  
HETATM   34  C   UNL     1      -7.997   7.252  62.420  1.00  0.00    -0.133 C  
ENDBRANCH  30  32
ENDBRANCH  28  30
ENDBRANCH  26  28
ENDBRANCH  21  26
ENDBRANCH  18  19
ENDBRANCH  11  18
ENDBRANCH   2   3
TORSDOF 8
ENDMDL
MODEL       53
REMARK 921   NORMALIZED FREE ENERGY PREDICTED BY IDOCK:   -5.74 KCAL/MOL
REMARK 922        TOTAL FREE ENERGY PREDICTED BY IDOCK:   -9.96 KCAL/MOL
REMARK 923 INTER-LIGAND FREE ENERGY PREDICTED BY IDOCK:   -9.03 KCAL/MOL
REMARK 924 INTRA-LIGAND FREE ENERGY PREDICTED BY IDOCK:   -0.93 KCAL/MOL
REMARK 927      BINDING AFFINITY PREDICTED BY RF-SCORE:    0.00 PKD
ROOT
HETATM    1  C   UNL     1     -10.306   7.585  73.275  1.00  0.00    -0.357 C  
HETATM    2  O   UNL     1     -11.343   8.191  72.505  1.00  0.00    -0.363 OA 
ENDROOT
BRANCH   2   3
HETATM    3  C   UNL     1     -10.924   9.001  71.483  1.00  0.00    -0.348 A  
HETATM    4  C   UNL     1     -11.760  10.036  71.040  1.00  0.00    -0.479 A  
HETATM    5  N   UNL     1      -8.174   9.158  69.161  1.00  0.00    -0.114 NA 
HETATM    6  C   UNL     1     -11.358  10.830  69.942  1.00  0.00    -0.385 A  
HETATM    7  C   UNL     1      -9.325   9.523  69.728  1.00  0.00    -0.211 A  
HETATM    8  C   UNL     1     -10.134  10.584  69.261  1.00  0.00    -0.244 A  
HETATM    9  C   UNL     1      -7.815   9.774  68.031  1.00  0.00    -0.086 A  
HETATM   10  C   UNL     1      -9.725   8.764  70.809  1.00  0.00    -0.257 A  
HETATM   11  C   UNL     1      -9.664  11.289  68.114  1.00  0.00    -0.185 A  
HETATM   12  C   UNL     1      -8.546  10.790  67.457  1.00  0.00    -0.125 A  
BRANCH   4  13
HETATM   13  C   UNL     1     -13.032  10.336  71.760  1.00  0.00    -0.469 C  
HETATM   14  H2  UNL     1     -12.719  12.400  71.663  1.00  0.00     0.000 HD 
HETATM   15  H1  UNL     1     -14.206  11.858  72.472  1.00  0.00     0.000 HD 
HETATM   16  O   UNL     1     -13.792   9.466  72.165  1.00  0.00    -0.414 OA 
HETATM   17  N   UNL     1     -13.337  11.654  71.980  1.00  0.00    -0.429 N  
ENDBRANCH   4  13
BRANCH  11  18
HETATM   18  O   UNL     1     -10.436  12.343  67.657  1.00  0.00    -0.211 OA 
BRANCH  18  19
HETATM   19  C   UNL     1     -10.370  13.629  68.168  1.00  0.00    -0.245 A  
HETATM   20  C   UNL     1     -11.573  14.347  68.145  1.00  0.00    -0.360 A  
HETATM   21  C   UNL     1     -10.445  16.415  68.781  1.00  0.00    -0.300 A  
HETATM   22  C   UNL     1     -11.614  15.721  68.458  1.00  0.00    -0.367 A  
HETATM   23  C   UNL     1      -9.252  15.692  68.822  1.00  0.00    -0.211 A  
HETATM   24 CL   UNL     1      -7.746  16.470  69.201  1.00  0.00    -0.233 Cl 
HETATM   25  C   UNL     1      -9.221  14.325  68.529  1.00  0.00    -0.197 A  
BRANCH  21  26
HETATM   26  N   UNL     1     -10.385  17.806  69.021  1.00  0.00    -0.392 N  
HETATM   27  H   UNL     1     -10.527  18.107  69.985  1.00  0.00     0.000 HD 
BRANCH  26  28
HETATM   28  C   UNL     1     -10.158  18.793  68.101  1.00  0.00    -0.379 C  
HETATM   29  O   UNL     1     -10.821  18.980  67.087  1.00  0.00    -0.462 OA 
BRANCH  28  30
HETATM   30  N   UNL     1      -9.078  19.587  68.425  1.00  0.00    -0.353 N  
HETATM   31  H   UNL     1      -8.895  19.821  69.401  1.00  0.00     0.000 HD 
BRANCH  30  32
HETATM   32  C   UNL     1      -8.214  20.083  67.403  1.00  0.00    -0.332 C  
HETATM   33  C   UNL     1      -6.737  20.261  67.597  1.00  0.00    -0.300 C  
HETATM   34  C   UNL     1      -7.246  19.138  66.743  1.00  0.00    -0.222 C  
ENDBRANCH  30  32
ENDBRANCH  28  30
ENDBRANCH  26  28
ENDBRANCH  21  26
ENDBRANCH  18  19
ENDBRANCH  11  18
ENDBRANCH   2   3
TORSDOF 8
ENDMDL
MODEL       54
REMARK 921   NORMALIZED FREE ENERGY PREDICTED BY IDOCK:   -5.71 KCAL/MOL
REMARK 922        TOTAL FREE ENERGY PREDICTED BY IDOCK:   -9.91 KCAL/MOL
REMARK 923 INTER-LIGAND FREE ENERGY PREDICTED BY IDOCK:   -8.80 KCAL/MOL
REMARK 924 INTRA-LIGAND FREE ENERGY PREDICTED BY IDOCK:   -1.11 KCAL/MOL
REMARK 927      BINDING AFFINITY PREDICTED BY RF-SCORE:    0.00 PKD
ROOT
HETATM    1  C   UNL     1      -7.033  17.225  65.848  1.00  0.00    -0.003 C  
HETATM    2  O   UNL     1      -7.824  16.919  66.994  1.00  0.00    -0.170 OA 
ENDROOT
BRANCH   2   3
HETATM    3  C   UNL     1      -8.642  15.826  66.874  1.00  0.00    -0.247 A  
HETATM    4  C   UNL     1      -8.204  14.583  67.354  1.00  0.00    -0.220 A  
HETATM    5  N   UNL     1     -11.785  15.008  65.315  1.00  0.00    -0.257 NA 
HETATM    6  C   UNL     1      -9.019  13.444  67.170  1.00  0.00    -0.227 A  
HETATM    7  C   UNL     1     -10.664  14.794  66.005  1.00  0.00    -0.312 A  
HETATM    8  C   UNL     1     -10.262  13.526  66.487  1.00  0.00    -0.283 A  
HETATM    9  C   UNL     1     -12.522  13.944  64.982  1.00  0.00    -0.419 A  
HETATM   10  C   UNL     1      -9.863  15.900  66.203  1.00  0.00    -0.343 A  
HETATM   11  C   UNL     1     -11.130  12.430  66.203  1.00  0.00    -0.302 A  
HETATM   12  C   UNL     1     -12.208  12.657  65.355  1.00  0.00    -0.517 A  
BRANCH   4  13
HETATM   13  C   UNL     1      -6.919  14.478  68.105  1.00  0.00    -0.122 C  
HETATM   14  H2  UNL     1      -7.840  14.875  69.938  1.00  0.00     0.000 HD 
HETATM   15  H1  UNL     1      -6.085  14.596  69.974  1.00  0.00     0.000 HD 
HETATM   16  O   UNL     1      -5.846  14.244  67.564  1.00  0.00    -0.343 OA 
HETATM   17  N   UNL     1      -6.963  14.669  69.461  1.00  0.00    -0.163 N  
ENDBRANCH   4  13
BRANCH  11  18
HETATM   18  O   UNL     1     -10.760  11.187  66.685  1.00  0.00    -0.258 OA 
BRANCH  18  19
HETATM   19  C   UNL     1     -10.821  10.825  68.020  1.00  0.00    -0.255 A  
HETATM   20  C   UNL     1     -10.126   9.656  68.359  1.00  0.00    -0.199 A  
HETATM   21  C   UNL     1     -11.098   9.630  70.597  1.00  0.00    -0.319 A  
HETATM   22  C   UNL     1     -10.253   9.070  69.635  1.00  0.00    -0.211 A  
HETATM   23  C   UNL     1     -11.774  10.804  70.263  1.00  0.00    -0.352 A  
HETATM   24 CL   UNL     1     -12.855  11.566  71.387  1.00  0.00    -0.520 Cl 
HETATM   25  C   UNL     1     -11.629  11.392  69.002  1.00  0.00    -0.383 A  
BRANCH  21  26
HETATM   26  N   UNL     1     -11.350   9.058  71.864  1.00  0.00    -0.369 N  
HETATM   27  H   UNL     1     -10.899   9.507  72.662  1.00  0.00     0.000 HD 
BRANCH  26  28
HETATM   28  C   UNL     1     -12.133   7.971  72.138  1.00  0.00    -0.343 C  
HETATM   29  O   UNL     1     -13.171   7.682  71.554  1.00  0.00    -0.343 OA 
BRANCH  28  30
HETATM   30  N   UNL     1     -11.635   7.199  73.167  1.00  0.00    -0.527 N  
HETATM   31  H   UNL     1     -11.953   7.361  74.123  1.00  0.00     0.000 HD 
BRANCH  30  32
HETATM   32  C   UNL     1     -10.677   6.175  72.904  1.00  0.00    -0.247 C  
HETATM   33  C   UNL     1     -11.053   4.735  72.708  1.00  0.00    -0.248 C  
HETATM   34  C   UNL     1     -10.625   5.560  71.531  1.00  0.00    -0.302 C  
ENDBRANCH  30  32
ENDBRANCH  28  30
ENDBRANCH  26  28
ENDBRANCH  21  26
ENDBRANCH  18  19
ENDBRANCH  11  18
ENDBRANCH   2   3
TORSDOF 8
ENDMDL
MODEL       55
REMARK 921   NORMALIZED FREE ENERGY PREDICTED BY IDOCK:   -5.69 KCAL/MOL
REMARK 922        TOTAL FREE ENERGY PREDICTED BY IDOCK:   -9.88 KCAL/MOL
REMARK 923 INTER-LIGAND FREE ENERGY PREDICTED BY IDOCK:   -8.57 KCAL/MOL
REMARK 924 INTRA-LIGAND FREE ENERGY PREDICTED BY IDOCK:   -1.31 KCAL/MOL
REMARK 927      BINDING AFFINITY PREDICTED BY RF-SCORE:    0.00 PKD
ROOT
HETATM    1  C   UNL     1     -10.435  18.088  65.964  1.00  0.00    -0.313 C  
HETATM    2  O   UNL     1     -10.623  17.146  67.018  1.00  0.00    -0.306 OA 
ENDROOT
BRANCH   2   3
HETATM    3  C   UNL     1     -10.564  15.827  66.652  1.00  0.00    -0.307 A  
HETATM    4  C   UNL     1      -9.612  14.989  67.250  1.00  0.00    -0.208 A  
HETATM    5  N   UNL     1     -12.070  13.676  64.186  1.00  0.00    -0.516 NA 
HETATM    6  C   UNL     1      -9.506  13.646  66.825  1.00  0.00    -0.275 A  
HETATM    7  C   UNL     1     -11.266  14.012  65.195  1.00  0.00    -0.329 A  
HETATM    8  C   UNL     1     -10.328  13.134  65.784  1.00  0.00    -0.294 A  
HETATM    9  C   UNL     1     -11.913  12.465  63.643  1.00  0.00    -0.539 A  
HETATM   10  C   UNL     1     -11.366  15.318  65.630  1.00  0.00    -0.197 A  
HETATM   11  C   UNL     1     -10.263  11.814  65.247  1.00  0.00    -0.267 A  
HETATM   12  C   UNL     1     -11.001  11.541  64.102  1.00  0.00    -0.434 A  
BRANCH   4  13
HETATM   13  C   UNL     1      -8.763  15.495  68.369  1.00  0.00    -0.174 C  
HETATM   14  H2  UNL     1      -7.218  16.055  67.077  1.00  0.00     0.000 HD 
HETATM   15  H1  UNL     1      -6.958  16.360  68.809  1.00  0.00     0.000 HD 
HETATM   16  O   UNL     1      -9.109  15.451  69.542  1.00  0.00    -0.260 OA 
HETATM   17  N   UNL     1      -7.538  16.014  68.045  1.00  0.00    -0.126 N  
ENDBRANCH   4  13
BRANCH  11  18
HETATM   18  O   UNL     1      -9.363  10.936  65.827  1.00  0.00    -0.187 OA 
BRANCH  18  19
HETATM   19  C   UNL     1      -9.711   9.979  66.765  1.00  0.00    -0.189 A  
HETATM   20  C   UNL     1      -9.924   8.690  66.258  1.00  0.00    -0.287 A  
HETATM   21  C   UNL     1     -10.819   7.911  68.390  1.00  0.00     0.082 A  
HETATM   22  C   UNL     1     -10.461   7.664  67.062  1.00  0.00    -0.419 A  
HETATM   23  C   UNL     1     -10.587   9.191  68.897  1.00  0.00    -0.191 A  
HETATM   24 CL   UNL     1     -11.010   9.596  70.532  1.00  0.00    -0.345 Cl 
HETATM   25  C   UNL     1     -10.037  10.199  68.100  1.00  0.00    -0.178 A  
BRANCH  21  26
HETATM   26  N   UNL     1     -11.443   6.967  69.235  1.00  0.00    -0.566 N  
HETATM   27  H   UNL     1     -12.462   6.998  69.277  1.00  0.00     0.000 HD 
BRANCH  26  28
HETATM   28  C   UNL     1     -10.831   6.015  70.003  1.00  0.00    -0.359 C  
HETATM   29  O   UNL     1     -10.056   5.161  69.585  1.00  0.00    -0.220 OA 
BRANCH  28  30
HETATM   30  N   UNL     1     -11.174   6.100  71.335  1.00  0.00    -0.289 N  
HETATM   31  H   UNL     1     -12.142   5.949  71.621  1.00  0.00     0.000 HD 
BRANCH  30  32
HETATM   32  C   UNL     1     -10.184   6.398  72.319  1.00  0.00    -0.185 C  
HETATM   33  C   UNL     1     -10.278   7.577  73.242  1.00  0.00    -0.398 C  
HETATM   34  C   UNL     1     -10.517   6.196  73.773  1.00  0.00    -0.295 C  
ENDBRANCH  30  32
ENDBRANCH  28  30
ENDBRANCH  26  28
ENDBRANCH  21  26
ENDBRANCH  18  19
ENDBRANCH  11  18
ENDBRANCH   2   3
TORSDOF 8
ENDMDL
MODEL       56
REMARK 921   NORMALIZED FREE ENERGY PREDICTED BY IDOCK:   -5.68 KCAL/MOL
REMARK 922        TOTAL FREE ENERGY PREDICTED BY IDOCK:   -9.88 KCAL/MOL
REMARK 923 INTER-LIGAND FREE ENERGY PREDICTED BY IDOCK:   -8.89 KCAL/MOL
REMARK 924 INTRA-LIGAND FREE ENERGY PREDICTED BY IDOCK:   -0.99 KCAL/MOL
REMARK 927      BINDING AFFINITY PREDICTED BY RF-SCORE:    0.00 PKD
ROOT
HETATM    1  C   UNL     1      -7.004   6.859  71.259  1.00  0.00    -0.062 C  
HETATM    2  O   UNL     1      -7.113   8.281  71.292  1.00  0.00    -0.052 OA 
ENDROOT
BRANCH   2   3
HETATM    3  C   UNL     1      -8.330   8.789  70.918  1.00  0.00    -0.165 A  
HETATM    4  C   UNL     1      -8.436   9.507  69.719  1.00  0.00    -0.185 A  
HETATM    5  N   UNL     1     -11.629   9.114  72.328  1.00  0.00    -0.210 NA 
HETATM    6  C   UNL     1      -9.675  10.088  69.366  1.00  0.00    -0.240 A  
HETATM    7  C   UNL     1     -10.660   9.260  71.423  1.00  0.00    -0.347 A  
HETATM    8  C   UNL     1     -10.810   9.980  70.215  1.00  0.00    -0.370 A  
HETATM    9  C   UNL     1     -12.777   9.765  72.120  1.00  0.00    -0.326 A  
HETATM   10  C   UNL     1      -9.447   8.688  71.748  1.00  0.00    -0.354 A  
HETATM   11  C   UNL     1     -12.086  10.572  69.978  1.00  0.00    -0.274 A  
HETATM   12  C   UNL     1     -13.022  10.533  71.004  1.00  0.00    -0.475 A  
BRANCH   4  13
HETATM   13  C   UNL     1      -7.268   9.604  68.794  1.00  0.00    -0.072 C  
HETATM   14  H2  UNL     1      -7.794   7.852  67.783  1.00  0.00     0.000 HD 
HETATM   15  H1  UNL     1      -6.330   8.687  67.219  1.00  0.00     0.000 HD 
HETATM   16  O   UNL     1      -6.442  10.505  68.854  1.00  0.00    -0.047 OA 
HETATM   17  N   UNL     1      -7.127   8.620  67.851  1.00  0.00    -0.081 N  
ENDBRANCH   4  13
BRANCH  11  18
HETATM   18  O   UNL     1     -12.253  11.263  68.790  1.00  0.00    -0.532 OA 
BRANCH  18  19
HETATM   19  C   UNL     1     -11.765  12.538  68.561  1.00  0.00    -0.324 A  
HETATM   20  C   UNL     1     -11.920  13.441  69.622  1.00  0.00    -0.386 A  
HETATM   21  C   UNL     1     -11.219  15.320  68.232  1.00  0.00    -0.314 A  
HETATM   22  C   UNL     1     -11.640  14.814  69.464  1.00  0.00    -0.339 A  
HETATM   23  C   UNL     1     -11.047  14.415  67.183  1.00  0.00    -0.312 A  
HETATM   24 CL   UNL     1     -10.539  14.952  65.611  1.00  0.00    -0.331 Cl 
HETATM   25  C   UNL     1     -11.308  13.052  67.351  1.00  0.00    -0.347 A  
BRANCH  21  26
HETATM   26  N   UNL     1     -11.003  16.691  67.966  1.00  0.00    -0.343 N  
HETATM   27  H   UNL     1     -11.600  17.114  67.255  1.00  0.00     0.000 HD 
BRANCH  26  28
HETATM   28  C   UNL     1     -10.083  17.512  68.558  1.00  0.00    -0.363 C  
HETATM   29  O   UNL     1      -8.983  17.160  68.969  1.00  0.00    -0.223 OA 
BRANCH  28  30
HETATM   30  N   UNL     1     -10.517  18.817  68.658  1.00  0.00    -0.413 N  
HETATM   31  H   UNL     1     -11.218  19.067  69.355  1.00  0.00     0.000 HD 
BRANCH  30  32
HETATM   32  C   UNL     1      -9.991  19.821  67.791  1.00  0.00    -0.409 C  
HETATM   33  C   UNL     1      -9.035  19.519  66.675  1.00  0.00    -0.399 C  
HETATM   34  C   UNL     1     -10.458  19.867  66.360  1.00  0.00    -0.589 C  
ENDBRANCH  30  32
ENDBRANCH  28  30
ENDBRANCH  26  28
ENDBRANCH  21  26
ENDBRANCH  18  19
ENDBRANCH  11  18
ENDBRANCH   2   3
TORSDOF 8
ENDMDL
MODEL       57
REMARK 921   NORMALIZED FREE ENERGY PREDICTED BY IDOCK:   -5.65 KCAL/MOL
REMARK 922        TOTAL FREE ENERGY PREDICTED BY IDOCK:   -9.83 KCAL/MOL
REMARK 923 INTER-LIGAND FREE ENERGY PREDICTED BY IDOCK:   -8.86 KCAL/MOL
REMARK 924 INTRA-LIGAND FREE ENERGY PREDICTED BY IDOCK:   -0.97 KCAL/MOL
REMARK 927      BINDING AFFINITY PREDICTED BY RF-SCORE:    0.00 PKD
ROOT
HETATM    1  C   UNL     1      -7.660  19.509  68.988  1.00  0.00    -0.321 C  
HETATM    2  O   UNL     1      -7.270  18.988  67.718  1.00  0.00    -0.231 OA 
ENDROOT
BRANCH   2   3
HETATM    3  C   UNL     1      -7.971  17.892  67.288  1.00  0.00    -0.211 A  
HETATM    4  C   UNL     1      -7.498  16.609  67.597  1.00  0.00    -0.168 A  
HETATM    5  N   UNL     1     -10.801  17.201  65.170  1.00  0.00    -0.598 NA 
HETATM    6  C   UNL     1      -8.183  15.479  67.098  1.00  0.00    -0.246 A  
HETATM    7  C   UNL     1      -9.767  16.926  65.966  1.00  0.00    -0.233 A  
HETATM    8  C   UNL     1      -9.328  15.617  66.267  1.00  0.00    -0.358 A  
HETATM    9  C   UNL     1     -11.397  16.179  64.550  1.00  0.00    -0.267 A  
HETATM   10  C   UNL     1      -9.094  18.021  66.471  1.00  0.00    -0.283 A  
HETATM   11  C   UNL     1     -10.057  14.545  65.670  1.00  0.00    -0.359 A  
HETATM   12  C   UNL     1     -11.028  14.864  64.729  1.00  0.00    -0.390 A  
BRANCH   4  13
HETATM   13  C   UNL     1      -6.318  16.438  68.496  1.00  0.00    -0.129 C  
HETATM   14  H2  UNL     1      -7.484  15.654  70.043  1.00  0.00     0.000 HD 
HETATM   15  H1  UNL     1      -5.740  15.799  70.356  1.00  0.00     0.000 HD 
HETATM   16  O   UNL     1      -5.181  16.754  68.172  1.00  0.00    -0.110 OA 
HETATM   17  N   UNL     1      -6.545  15.916  69.742  1.00  0.00    -0.179 N  
ENDBRANCH   4  13
BRANCH  11  18
HETATM   18  O   UNL     1      -9.651  13.257  65.972  1.00  0.00    -0.249 OA 
BRANCH  18  19
HETATM   19  C   UNL     1     -10.385  12.376  66.749  1.00  0.00    -0.221 A  
HETATM   20  C   UNL     1     -11.211  12.970  67.713  1.00  0.00    -0.313 A  
HETATM   21  C   UNL     1     -11.698  10.812  68.742  1.00  0.00    -0.245 A  
HETATM   22  C   UNL     1     -11.869  12.198  68.692  1.00  0.00    -0.358 A  
HETATM   23  C   UNL     1     -10.890  10.222  67.769  1.00  0.00    -0.292 A  
HETATM   24 CL   UNL     1     -10.607   8.508  67.757  1.00  0.00    -0.276 Cl 
HETATM   25  C   UNL     1     -10.255  10.991  66.789  1.00  0.00    -0.272 A  
BRANCH  21  26
HETATM   26  N   UNL     1     -12.248   9.977  69.740  1.00  0.00    -0.478 N  
HETATM   27  H   UNL     1     -12.914   9.271  69.426  1.00  0.00     0.000 HD 
BRANCH  26  28
HETATM   28  C   UNL     1     -11.985  10.012  71.082  1.00  0.00    -0.392 C  
HETATM   29  O   UNL     1     -12.802  10.284  71.956  1.00  0.00    -0.417 OA 
BRANCH  28  30
HETATM   30  N   UNL     1     -10.674   9.704  71.379  1.00  0.00    -0.276 N  
HETATM   31  H   UNL     1      -9.965  10.438  71.364  1.00  0.00     0.000 HD 
BRANCH  30  32
HETATM   32  C   UNL     1     -10.302   8.366  71.707  1.00  0.00    -0.262 C  
HETATM   33  C   UNL     1     -10.631   7.725  73.023  1.00  0.00    -0.441 C  
HETATM   34  C   UNL     1     -11.372   7.310  71.788  1.00  0.00    -0.285 C  
ENDBRANCH  30  32
ENDBRANCH  28  30
ENDBRANCH  26  28
ENDBRANCH  21  26
ENDBRANCH  18  19
ENDBRANCH  11  18
ENDBRANCH   2   3
TORSDOF 8
ENDMDL
MODEL       58
REMARK 921   NORMALIZED FREE ENERGY PREDICTED BY IDOCK:   -5.63 KCAL/MOL
REMARK 922        TOTAL FREE ENERGY PREDICTED BY IDOCK:   -9.80 KCAL/MOL
REMARK 923 INTER-LIGAND FREE ENERGY PREDICTED BY IDOCK:   -9.36 KCAL/MOL
REMARK 924 INTRA-LIGAND FREE ENERGY PREDICTED BY IDOCK:   -0.44 KCAL/MOL
REMARK 927      BINDING AFFINITY PREDICTED BY RF-SCORE:    0.00 PKD
ROOT
HETATM    1  C   UNL     1      -8.229   6.702  65.299  1.00  0.00    -0.133 C  
HETATM    2  O   UNL     1      -8.229   8.094  64.989  1.00  0.00    -0.147 OA 
ENDROOT
BRANCH   2   3
HETATM    3  C   UNL     1      -9.114   8.859  65.703  1.00  0.00    -0.212 A  
HETATM    4  C   UNL     1      -9.685   9.990  65.104  1.00  0.00    -0.380 A  
HETATM    5  N   UNL     1     -10.363   9.038  69.077  1.00  0.00    -0.215 NA 
HETATM    6  C   UNL     1     -10.546  10.816  65.861  1.00  0.00    -0.216 A  
HETATM    7  C   UNL     1     -10.220   9.395  67.800  1.00  0.00    -0.222 A  
HETATM    8  C   UNL     1     -10.825  10.537  67.227  1.00  0.00    -0.338 A  
HETATM    9  C   UNL     1     -11.045   9.861  69.880  1.00  0.00    -0.275 A  
HETATM   10  C   UNL     1      -9.390   8.592  67.045  1.00  0.00    -0.204 A  
HETATM   11  C   UNL     1     -11.634  11.334  68.090  1.00  0.00    -0.289 A  
HETATM   12  C   UNL     1     -11.640  11.024  69.445  1.00  0.00    -0.383 A  
BRANCH   4  13
HETATM   13  C   UNL     1      -9.435  10.284  63.661  1.00  0.00    -0.299 C  
HETATM   14  H2  UNL     1      -9.841  12.320  63.902  1.00  0.00     0.000 HD 
HETATM   15  H1  UNL     1      -9.405  11.783  62.264  1.00  0.00     0.000 HD 
HETATM   16  O   UNL     1      -9.128   9.422  62.848  1.00  0.00    -0.234 OA 
HETATM   17  N   UNL     1      -9.576  11.582  63.249  1.00  0.00    -0.352 N  
ENDBRANCH   4  13
BRANCH  11  18
HETATM   18  O   UNL     1     -12.249  12.443  67.537  1.00  0.00    -0.442 OA 
BRANCH  18  19
HETATM   19  C   UNL     1     -11.943  13.749  67.880  1.00  0.00    -0.356 A  
HETATM   20  C   UNL     1     -11.255  14.482  66.904  1.00  0.00    -0.340 A  
HETATM   21  C   UNL     1     -10.839  16.316  68.458  1.00  0.00    -0.330 A  
HETATM   22  C   UNL     1     -10.718  15.755  67.184  1.00  0.00    -0.312 A  
HETATM   23  C   UNL     1     -11.542  15.593  69.422  1.00  0.00    -0.370 A  
HETATM   24 CL   UNL     1     -11.734  16.203  71.036  1.00  0.00    -0.441 Cl 
HETATM   25  C   UNL     1     -12.088  14.338  69.133  1.00  0.00    -0.337 A  
BRANCH  21  26
HETATM   26  N   UNL     1     -10.255  17.543  68.845  1.00  0.00    -0.358 N  
HETATM   27  H   UNL     1      -9.826  17.570  69.770  1.00  0.00     0.000 HD 
BRANCH  26  28
HETATM   28  C   UNL     1     -10.202  18.699  68.116  1.00  0.00    -0.382 C  
HETATM   29  O   UNL     1     -10.985  19.008  67.224  1.00  0.00    -0.459 OA 
BRANCH  28  30
HETATM   30  N   UNL     1      -9.154  19.516  68.482  1.00  0.00    -0.360 N  
HETATM   31  H   UNL     1      -9.326  20.499  68.694  1.00  0.00     0.000 HD 
BRANCH  30  32
HETATM   32  C   UNL     1      -7.828  18.995  68.568  1.00  0.00    -0.340 C  
HETATM   33  C   UNL     1      -6.628  19.722  68.036  1.00  0.00    -0.284 C  
HETATM   34  C   UNL     1      -6.851  19.638  69.516  1.00  0.00    -0.350 C  
ENDBRANCH  30  32
ENDBRANCH  28  30
ENDBRANCH  26  28
ENDBRANCH  21  26
ENDBRANCH  18  19
ENDBRANCH  11  18
ENDBRANCH   2   3
TORSDOF 8
ENDMDL
MODEL       59
REMARK 921   NORMALIZED FREE ENERGY PREDICTED BY IDOCK:   -5.59 KCAL/MOL
REMARK 922        TOTAL FREE ENERGY PREDICTED BY IDOCK:   -9.74 KCAL/MOL
REMARK 923 INTER-LIGAND FREE ENERGY PREDICTED BY IDOCK:   -8.61 KCAL/MOL
REMARK 924 INTRA-LIGAND FREE ENERGY PREDICTED BY IDOCK:   -1.13 KCAL/MOL
REMARK 927      BINDING AFFINITY PREDICTED BY RF-SCORE:    0.00 PKD
ROOT
HETATM    1  C   UNL     1      -6.886   6.204  69.180  1.00  0.00    -0.062 C  
HETATM    2  O   UNL     1      -8.235   5.897  68.833  1.00  0.00    -0.101 OA 
ENDROOT
BRANCH   2   3
HETATM    3  C   UNL     1      -9.098   6.961  68.813  1.00  0.00    -0.133 A  
HETATM    4  C   UNL     1      -9.348   7.620  67.602  1.00  0.00    -0.158 A  
HETATM    5  N   UNL     1     -10.914   8.964  71.193  1.00  0.00    -0.263 NA 
HETATM    6  C   UNL     1     -10.186   8.758  67.592  1.00  0.00    -0.298 A  
HETATM    7  C   UNL     1     -10.475   8.578  69.994  1.00  0.00    -0.223 A  
HETATM    8  C   UNL     1     -10.761   9.262  68.790  1.00  0.00    -0.184 A  
HETATM    9  C   UNL     1     -11.588  10.116  71.267  1.00  0.00    -0.306 A  
HETATM   10  C   UNL     1      -9.664   7.462  69.986  1.00  0.00    -0.175 A  
HETATM   11  C   UNL     1     -11.573  10.430  68.896  1.00  0.00    -0.139 A  
HETATM   12  C   UNL     1     -11.887  10.891  70.169  1.00  0.00    -0.438 A  
BRANCH   4  13
HETATM   13  C   UNL     1      -8.785   7.089  66.325  1.00  0.00    -0.146 C  
HETATM   14  H2  UNL     1      -7.365   8.617  66.198  1.00  0.00     0.000 HD 
HETATM   15  H1  UNL     1      -7.357   7.412  64.891  1.00  0.00     0.000 HD 
HETATM   16  O   UNL     1      -9.220   6.090  65.769  1.00  0.00    -0.120 OA 
HETATM   17  N   UNL     1      -7.742   7.776  65.762  1.00  0.00    -0.094 N  
ENDBRANCH   4  13
BRANCH  11  18
HETATM   18  O   UNL     1     -11.878  11.099  67.723  1.00  0.00    -0.608 OA 
BRANCH  18  19
HETATM   19  C   UNL     1     -11.373  12.343  67.388  1.00  0.00    -0.321 A  
HETATM   20  C   UNL     1     -12.150  13.086  66.489  1.00  0.00    -0.410 A  
HETATM   21  C   UNL     1     -10.390  14.754  66.218  1.00  0.00    -0.297 A  
HETATM   22  C   UNL     1     -11.671  14.282  65.918  1.00  0.00    -0.375 A  
HETATM   23  C   UNL     1      -9.626  14.022  67.128  1.00  0.00    -0.245 A  
HETATM   24 CL   UNL     1      -8.018  14.522  67.554  1.00  0.00    -0.191 Cl 
HETATM   25  C   UNL     1     -10.114  12.845  67.705  1.00  0.00    -0.229 A  
BRANCH  21  26
HETATM   26  N   UNL     1      -9.802  15.892  65.624  1.00  0.00    -0.330 N  
HETATM   27  H   UNL     1      -8.915  15.746  65.141  1.00  0.00     0.000 HD 
BRANCH  26  28
HETATM   28  C   UNL     1     -10.291  17.170  65.626  1.00  0.00    -0.183 C  
HETATM   29  O   UNL     1     -11.160  17.595  64.873  1.00  0.00    -0.854 OA 
BRANCH  28  30
HETATM   30  N   UNL     1      -9.698  17.968  66.581  1.00  0.00    -0.317 N  
HETATM   31  H   UNL     1      -8.681  18.004  66.653  1.00  0.00     0.000 HD 
BRANCH  30  32
HETATM   32  C   UNL     1     -10.498  18.746  67.471  1.00  0.00    -0.435 C  
HETATM   33  C   UNL     1      -9.981  19.295  68.768  1.00  0.00    -0.511 C  
HETATM   34  C   UNL     1     -10.214  20.218  67.609  1.00  0.00    -0.469 C  
ENDBRANCH  30  32
ENDBRANCH  28  30
ENDBRANCH  26  28
ENDBRANCH  21  26
ENDBRANCH  18  19
ENDBRANCH  11  18
ENDBRANCH   2   3
TORSDOF 8
ENDMDL
MODEL       60
REMARK 921   NORMALIZED FREE ENERGY PREDICTED BY IDOCK:   -5.55 KCAL/MOL
REMARK 922        TOTAL FREE ENERGY PREDICTED BY IDOCK:   -9.68 KCAL/MOL
REMARK 923 INTER-LIGAND FREE ENERGY PREDICTED BY IDOCK:   -8.68 KCAL/MOL
REMARK 924 INTRA-LIGAND FREE ENERGY PREDICTED BY IDOCK:   -1.00 KCAL/MOL
REMARK 927      BINDING AFFINITY PREDICTED BY RF-SCORE:    0.00 PKD
ROOT
HETATM    1  C   UNL     1     -10.427  18.472  67.518  1.00  0.00    -0.418 C  
HETATM    2  O   UNL     1     -10.864  17.485  66.585  1.00  0.00    -0.153 OA 
ENDROOT
BRANCH   2   3
HETATM    3  C   UNL     1     -10.171  16.303  66.607  1.00  0.00    -0.284 A  
HETATM    4  C   UNL     1     -10.502  15.294  65.692  1.00  0.00    -0.377 A  
HETATM    5  N   UNL     1      -7.679  14.713  68.666  1.00  0.00    -0.129 NA 
HETATM    6  C   UNL     1      -9.833  14.051  65.758  1.00  0.00    -0.280 A  
HETATM    7  C   UNL     1      -8.551  14.831  67.664  1.00  0.00    -0.174 A  
HETATM    8  C   UNL     1      -8.848  13.794  66.750  1.00  0.00    -0.156 A  
HETATM    9  C   UNL     1      -7.124  13.514  68.870  1.00  0.00    -0.093 A  
HETATM   10  C   UNL     1      -9.204  16.044  67.579  1.00  0.00    -0.214 A  
HETATM   11  C   UNL     1      -8.157  12.560  66.935  1.00  0.00    -0.036 A  
HETATM   12  C   UNL     1      -7.373  12.419  68.074  1.00  0.00    -0.108 A  
BRANCH   4  13
HETATM   13  C   UNL     1     -11.508  15.552  64.619  1.00  0.00    -0.324 C  
HETATM   14  H2  UNL     1     -12.483  13.735  64.956  1.00  0.00     0.000 HD 
HETATM   15  H1  UNL     1     -13.148  14.770  63.672  1.00  0.00     0.000 HD 
HETATM   16  O   UNL     1     -11.503  16.564  63.930  1.00  0.00    -1.145 OA 
HETATM   17  N   UNL     1     -12.461  14.593  64.404  1.00  0.00    -0.405 N  
ENDBRANCH   4  13
BRANCH  11  18
HETATM   18  O   UNL     1      -8.423  11.543  66.035  1.00  0.00    -0.124 OA 
BRANCH  18  19
HETATM   19  C   UNL     1      -9.163  10.414  66.341  1.00  0.00    -0.161 A  
HETATM   20  C   UNL     1     -10.184  10.601  67.283  1.00  0.00    -0.250 A  
HETATM   21  C   UNL     1     -10.579   8.199  67.453  1.00  0.00    -0.255 A  
HETATM   22  C   UNL     1     -10.892   9.509  67.825  1.00  0.00    -0.258 A  
HETATM   23  C   UNL     1      -9.575   8.017  66.500  1.00  0.00    -0.226 A  
HETATM   24 CL   UNL     1      -9.108   6.427  65.984  1.00  0.00    -0.149 Cl 
HETATM   25  C   UNL     1      -8.889   9.106  65.952  1.00  0.00    -0.209 A  
BRANCH  21  26
HETATM   26  N   UNL     1     -11.177   7.048  68.012  1.00  0.00    -0.527 N  
HETATM   27  H   UNL     1     -11.824   6.535  67.412  1.00  0.00     0.000 HD 
BRANCH  26  28
HETATM   28  C   UNL     1     -10.984   6.546  69.270  1.00  0.00    -0.331 C  
HETATM   29  O   UNL     1     -10.087   5.775  69.593  1.00  0.00    -0.178 OA 
BRANCH  28  30
HETATM   30  N   UNL     1     -11.920   6.997  70.176  1.00  0.00    -0.614 N  
HETATM   31  H   UNL     1     -12.894   6.705  70.087  1.00  0.00     0.000 HD 
BRANCH  30  32
HETATM   32  C   UNL     1     -11.537   7.870  71.237  1.00  0.00    -0.276 C  
HETATM   33  C   UNL     1     -11.869   9.333  71.252  1.00  0.00    -0.415 C  
HETATM   34  C   UNL     1     -12.597   8.396  72.168  1.00  0.00    -0.412 C  
ENDBRANCH  30  32
ENDBRANCH  28  30
ENDBRANCH  26  28
ENDBRANCH  21  26
ENDBRANCH  18  19
ENDBRANCH  11  18
ENDBRANCH   2   3
TORSDOF 8
ENDMDL
MODEL       61
REMARK 921   NORMALIZED FREE ENERGY PREDICTED BY IDOCK:   -5.54 KCAL/MOL
REMARK 922        TOTAL FREE ENERGY PREDICTED BY IDOCK:   -9.67 KCAL/MOL
REMARK 923 INTER-LIGAND FREE ENERGY PREDICTED BY IDOCK:   -8.79 KCAL/MOL
REMARK 924 INTRA-LIGAND FREE ENERGY PREDICTED BY IDOCK:   -0.88 KCAL/MOL
REMARK 927      BINDING AFFINITY PREDICTED BY RF-SCORE:    0.00 PKD
ROOT
HETATM    1  C   UNL     1     -12.183  16.107  73.127  1.00  0.00    -0.542 C  
HETATM    2  O   UNL     1     -13.181  15.719  72.184  1.00  0.00    -0.452 OA 
ENDROOT
BRANCH   2   3
HETATM    3  C   UNL     1     -12.714  15.161  71.023  1.00  0.00    -0.392 A  
HETATM    4  C   UNL     1     -12.745  13.768  70.869  1.00  0.00    -0.394 A  
HETATM    5  N   UNL     1     -11.014  16.248  68.039  1.00  0.00    -0.340 NA 
HETATM    6  C   UNL     1     -12.202  13.188  69.701  1.00  0.00    -0.241 A  
HETATM    7  C   UNL     1     -11.578  15.386  68.887  1.00  0.00    -0.354 A  
HETATM    8  C   UNL     1     -11.603  13.986  68.689  1.00  0.00    -0.360 A  
HETATM    9  C   UNL     1     -10.355  15.747  66.990  1.00  0.00    -0.292 A  
HETATM   10  C   UNL     1     -12.122  15.939  70.028  1.00  0.00    -0.264 A  
HETATM   11  C   UNL     1     -10.981  13.496  67.502  1.00  0.00    -0.268 A  
HETATM   12  C   UNL     1     -10.272  14.400  66.720  1.00  0.00    -0.270 A  
BRANCH   4  13
HETATM   13  C   UNL     1     -13.401  12.911  71.901  1.00  0.00    -0.435 C  
HETATM   14  H2  UNL     1     -12.366  11.203  71.287  1.00  0.00     0.000 HD 
HETATM   15  H1  UNL     1     -13.497  11.003  72.643  1.00  0.00     0.000 HD 
HETATM   16  O   UNL     1     -14.234  13.337  72.690  1.00  0.00    -0.724 OA 
HETATM   17  N   UNL     1     -13.049  11.588  71.938  1.00  0.00    -0.459 N  
ENDBRANCH   4  13
BRANCH  11  18
HETATM   18  O   UNL     1     -11.015  12.130  67.286  1.00  0.00    -0.237 OA 
BRANCH  18  19
HETATM   19  C   UNL     1     -10.183  11.224  67.921  1.00  0.00    -0.181 A  
HETATM   20  C   UNL     1     -10.795  10.035  68.339  1.00  0.00    -0.277 A  
HETATM   21  C   UNL     1      -8.816   9.363  69.599  1.00  0.00    -0.172 A  
HETATM   22  C   UNL     1     -10.118   9.109  69.159  1.00  0.00    -0.199 A  
HETATM   23  C   UNL     1      -8.203  10.539  69.165  1.00  0.00    -0.150 A  
HETATM   24 CL   UNL     1      -6.592  10.947  69.669  1.00  0.00    -0.108 Cl 
HETATM   25  C   UNL     1      -8.873  11.445  68.337  1.00  0.00    -0.167 A  
BRANCH  21  26
HETATM   26  N   UNL     1      -8.101   8.533  70.490  1.00  0.00    -0.104 N  
HETATM   27  H   UNL     1      -7.155   8.275  70.211  1.00  0.00     0.000 HD 
BRANCH  26  28
HETATM   28  C   UNL     1      -8.539   8.038  71.688  1.00  0.00    -0.129 C  
HETATM   29  O   UNL     1      -8.883   8.716  72.650  1.00  0.00    -0.371 OA 
BRANCH  28  30
HETATM   30  N   UNL     1      -8.559   6.660  71.722  1.00  0.00    -0.126 N  
HETATM   31  H   UNL     1      -7.685   6.142  71.811  1.00  0.00     0.000 HD 
BRANCH  30  32
HETATM   32  C   UNL     1      -9.796   5.952  71.633  1.00  0.00    -0.165 C  
HETATM   33  C   UNL     1     -10.499   5.698  70.332  1.00  0.00    -0.355 C  
HETATM   34  C   UNL     1      -9.804   4.571  71.035  1.00  0.00    -0.266 C  
ENDBRANCH  30  32
ENDBRANCH  28  30
ENDBRANCH  26  28
ENDBRANCH  21  26
ENDBRANCH  18  19
ENDBRANCH  11  18
ENDBRANCH   2   3
TORSDOF 8
ENDMDL
MODEL       62
REMARK 921   NORMALIZED FREE ENERGY PREDICTED BY IDOCK:   -5.54 KCAL/MOL
REMARK 922        TOTAL FREE ENERGY PREDICTED BY IDOCK:   -9.66 KCAL/MOL
REMARK 923 INTER-LIGAND FREE ENERGY PREDICTED BY IDOCK:   -8.55 KCAL/MOL
REMARK 924 INTRA-LIGAND FREE ENERGY PREDICTED BY IDOCK:   -1.12 KCAL/MOL
REMARK 927      BINDING AFFINITY PREDICTED BY RF-SCORE:    0.00 PKD
ROOT
HETATM    1  C   UNL     1      -9.779   3.975  70.738  1.00  0.00    -0.193 C  
HETATM    2  O   UNL     1      -9.379   5.265  71.196  1.00  0.00    -0.144 OA 
ENDROOT
BRANCH   2   3
HETATM    3  C   UNL     1      -9.603   6.298  70.323  1.00  0.00    -0.164 A  
HETATM    4  C   UNL     1     -10.599   7.241  70.615  1.00  0.00    -0.240 A  
HETATM    5  N   UNL     1      -8.495   7.307  67.048  1.00  0.00    -0.117 NA 
HETATM    6  C   UNL     1     -10.875   8.267  69.684  1.00  0.00    -0.154 A  
HETATM    7  C   UNL     1      -9.193   7.372  68.182  1.00  0.00    -0.133 A  
HETATM    8  C   UNL     1     -10.181   8.349  68.446  1.00  0.00    -0.239 A  
HETATM    9  C   UNL     1      -8.815   8.160  66.070  1.00  0.00    -0.172 A  
HETATM   10  C   UNL     1      -8.926   6.383  69.106  1.00  0.00    -0.129 A  
HETATM   11  C   UNL     1     -10.421   9.310  67.420  1.00  0.00    -0.273 A  
HETATM   12  C   UNL     1      -9.790   9.125  66.196  1.00  0.00    -0.363 A  
BRANCH   4  13
HETATM   13  C   UNL     1     -11.317   7.197  71.923  1.00  0.00    -0.260 C  
HETATM   14  H2  UNL     1      -9.901   8.418  72.856  1.00  0.00     0.000 HD 
HETATM   15  H1  UNL     1     -11.258   7.861  73.861  1.00  0.00     0.000 HD 
HETATM   16  O   UNL     1     -12.351   6.565  72.096  1.00  0.00    -0.297 OA 
HETATM   17  N   UNL     1     -10.767   7.891  72.968  1.00  0.00    -0.376 N  
ENDBRANCH   4  13
BRANCH  11  18
HETATM   18  O   UNL     1     -11.371  10.284  67.673  1.00  0.00    -0.335 OA 
BRANCH  18  19
HETATM   19  C   UNL     1     -11.210  11.622  67.355  1.00  0.00    -0.298 A  
HETATM   20  C   UNL     1     -10.572  12.400  68.330  1.00  0.00    -0.236 A  
HETATM   21  C   UNL     1     -11.102  14.466  67.146  1.00  0.00    -0.312 A  
HETATM   22  C   UNL     1     -10.507  13.804  68.223  1.00  0.00    -0.251 A  
HETATM   23  C   UNL     1     -11.720  13.688  66.167  1.00  0.00    -0.364 A  
HETATM   24 CL   UNL     1     -12.497  14.421  64.797  1.00  0.00    -0.424 Cl 
HETATM   25  C   UNL     1     -11.764  12.293  66.268  1.00  0.00    -0.431 A  
BRANCH  21  26
HETATM   26  N   UNL     1     -11.159  15.871  67.009  1.00  0.00    -0.194 N  
HETATM   27  H   UNL     1     -11.934  16.341  67.478  1.00  0.00     0.000 HD 
BRANCH  26  28
HETATM   28  C   UNL     1     -10.291  16.670  66.317  1.00  0.00    -0.317 C  
HETATM   29  O   UNL     1      -9.451  16.273  65.517  1.00  0.00    -0.451 OA 
BRANCH  28  30
HETATM   30  N   UNL     1     -10.446  18.008  66.609  1.00  0.00    -0.350 N  
HETATM   31  H   UNL     1     -10.668  18.668  65.864  1.00  0.00     0.000 HD 
BRANCH  30  32
HETATM   32  C   UNL     1     -10.298  18.477  67.949  1.00  0.00    -0.392 C  
HETATM   33  C   UNL     1      -8.983  18.923  68.519  1.00  0.00    -0.388 C  
HETATM   34  C   UNL     1     -10.032  19.940  68.185  1.00  0.00    -0.551 C  
ENDBRANCH  30  32
ENDBRANCH  28  30
ENDBRANCH  26  28
ENDBRANCH  21  26
ENDBRANCH  18  19
ENDBRANCH  11  18
ENDBRANCH   2   3
TORSDOF 8
ENDMDL
MODEL       63
REMARK 921   NORMALIZED FREE ENERGY PREDICTED BY IDOCK:   -5.50 KCAL/MOL
REMARK 922        TOTAL FREE ENERGY PREDICTED BY IDOCK:   -9.61 KCAL/MOL
REMARK 923 INTER-LIGAND FREE ENERGY PREDICTED BY IDOCK:   -8.41 KCAL/MOL
REMARK 924 INTRA-LIGAND FREE ENERGY PREDICTED BY IDOCK:   -1.19 KCAL/MOL
REMARK 927      BINDING AFFINITY PREDICTED BY RF-SCORE:    0.00 PKD
ROOT
HETATM    1  C   UNL     1     -10.343  19.247  65.758  1.00  0.00    -0.316 C  
HETATM    2  O   UNL     1      -9.554  18.060  65.828  1.00  0.00    -0.505 OA 
ENDROOT
BRANCH   2   3
HETATM    3  C   UNL     1     -10.255  16.892  65.977  1.00  0.00    -0.336 A  
HETATM    4  C   UNL     1     -10.379  16.322  67.251  1.00  0.00    -0.285 A  
HETATM    5  N   UNL     1     -11.821  14.436  63.858  1.00  0.00    -0.238 NA 
HETATM    6  C   UNL     1     -11.044  15.083  67.395  1.00  0.00    -0.324 A  
HETATM    7  C   UNL     1     -11.413  14.992  64.999  1.00  0.00    -0.364 A  
HETATM    8  C   UNL     1     -11.569  14.392  66.270  1.00  0.00    -0.377 A  
HETATM    9  C   UNL     1     -12.325  13.200  63.913  1.00  0.00    -0.365 A  
HETATM   10  C   UNL     1     -10.771  16.207  64.876  1.00  0.00    -0.297 A  
HETATM   11  C   UNL     1     -12.208  13.117  66.301  1.00  0.00    -0.355 A  
HETATM   12  C   UNL     1     -12.483  12.498  65.087  1.00  0.00    -0.451 A  
BRANCH   4  13
HETATM   13  C   UNL     1      -9.867  17.046  68.452  1.00  0.00    -0.283 C  
HETATM   14  H2  UNL     1      -7.995  16.123  68.336  1.00  0.00     0.000 HD 
HETATM   15  H1  UNL     1      -8.231  17.281  69.665  1.00  0.00     0.000 HD 
HETATM   16  O   UNL     1     -10.545  17.837  69.094  1.00  0.00    -0.213 OA 
HETATM   17  N   UNL     1      -8.581  16.786  68.845  1.00  0.00    -0.243 N  
ENDBRANCH   4  13
BRANCH  11  18
HETATM   18  O   UNL     1     -12.386  12.526  67.540  1.00  0.00    -0.316 OA 
BRANCH  18  19
HETATM   19  C   UNL     1     -11.545  11.559  68.064  1.00  0.00    -0.300 A  
HETATM   20  C   UNL     1     -11.885  11.095  69.342  1.00  0.00    -0.415 A  
HETATM   21  C   UNL     1      -9.784   9.871  69.545  1.00  0.00    -0.220 A  
HETATM   22  C   UNL     1     -11.022  10.252  70.071  1.00  0.00    -0.371 A  
HETATM   23  C   UNL     1      -9.458  10.319  68.265  1.00  0.00    -0.142 A  
HETATM   24 CL   UNL     1      -7.937   9.908  67.532  1.00  0.00    -0.105 Cl 
HETATM   25  C   UNL     1     -10.327  11.139  67.538  1.00  0.00    -0.228 A  
BRANCH  21  26
HETATM   26  N   UNL     1      -8.825   9.104  70.243  1.00  0.00    -0.192 N  
HETATM   27  H   UNL     1      -8.069   9.622  70.692  1.00  0.00     0.000 HD 
BRANCH  26  28
HETATM   28  C   UNL     1      -8.799   7.744  70.385  1.00  0.00    -0.146 C  
HETATM   29  O   UNL     1      -8.721   7.146  71.452  1.00  0.00    -0.124 OA 
BRANCH  28  30
HETATM   30  N   UNL     1      -8.871   7.079  69.179  1.00  0.00    -0.135 N  
HETATM   31  H   UNL     1      -8.026   6.944  68.623  1.00  0.00     0.000 HD 
BRANCH  30  32
HETATM   32  C   UNL     1     -10.119   6.579  68.702  1.00  0.00    -0.161 C  
HETATM   33  C   UNL     1     -10.590   6.768  67.290  1.00  0.00    -0.390 C  
HETATM   34  C   UNL     1     -10.121   5.418  67.744  1.00  0.00    -0.215 C  
ENDBRANCH  30  32
ENDBRANCH  28  30
ENDBRANCH  26  28
ENDBRANCH  21  26
ENDBRANCH  18  19
ENDBRANCH  11  18
ENDBRANCH   2   3
TORSDOF 8
ENDMDL
MODEL       64
REMARK 921   NORMALIZED FREE ENERGY PREDICTED BY IDOCK:   -5.50 KCAL/MOL
REMARK 922        TOTAL FREE ENERGY PREDICTED BY IDOCK:   -9.60 KCAL/MOL
REMARK 923 INTER-LIGAND FREE ENERGY PREDICTED BY IDOCK:   -7.99 KCAL/MOL
REMARK 924 INTRA-LIGAND FREE ENERGY PREDICTED BY IDOCK:   -1.61 KCAL/MOL
REMARK 927      BINDING AFFINITY PREDICTED BY RF-SCORE:    0.00 PKD
ROOT
HETATM    1  C   UNL     1     -11.552  14.802  66.043  1.00  0.00    -0.286 C  
HETATM    2  O   UNL     1     -10.546  14.053  66.723  1.00  0.00    -0.275 OA 
ENDROOT
BRANCH   2   3
HETATM    3  C   UNL     1     -10.990  13.270  67.757  1.00  0.00    -0.258 A  
HETATM    4  C   UNL     1     -11.015  11.877  67.602  1.00  0.00    -0.286 A  
HETATM    5  N   UNL     1     -12.512  13.733  70.988  1.00  0.00    -0.367 NA 
HETATM    6  C   UNL     1     -11.534  11.073  68.641  1.00  0.00    -0.375 A  
HETATM    7  C   UNL     1     -12.024  13.059  69.946  1.00  0.00    -0.311 A  
HETATM    8  C   UNL     1     -12.054  11.650  69.832  1.00  0.00    -0.373 A  
HETATM    9  C   UNL     1     -13.148  13.037  71.936  1.00  0.00    -0.384 A  
HETATM   10  C   UNL     1     -11.503  13.830  68.927  1.00  0.00    -0.344 A  
HETATM   11  C   UNL     1     -12.647  10.934  70.913  1.00  0.00    -0.397 A  
HETATM   12  C   UNL     1     -13.281  11.667  71.909  1.00  0.00    -0.475 A  
BRANCH   4  13
HETATM   13  C   UNL     1     -10.443  11.246  66.376  1.00  0.00    -0.257 C  
HETATM   14  H2  UNL     1      -8.702  10.655  67.370  1.00  0.00     0.000 HD 
HETATM   15  H1  UNL     1      -8.819  10.229  65.648  1.00  0.00     0.000 HD 
HETATM   16  O   UNL     1     -11.018  11.244  65.295  1.00  0.00    -0.234 OA 
HETATM   17  N   UNL     1      -9.210  10.660  66.485  1.00  0.00    -0.163 N  
ENDBRANCH   4  13
BRANCH  11  18
HETATM   18  O   UNL     1     -12.666   9.552  70.825  1.00  0.00    -0.203 OA 
BRANCH  18  19
HETATM   19  C   UNL     1     -11.836   8.719  71.555  1.00  0.00    -0.311 A  
HETATM   20  C   UNL     1     -10.510   9.154  71.686  1.00  0.00    -0.403 A  
HETATM   21  C   UNL     1      -9.821   7.025  72.656  1.00  0.00    -0.163 A  
HETATM   22  C   UNL     1      -9.516   8.323  72.240  1.00  0.00    -0.341 A  
HETATM   23  C   UNL     1     -11.146   6.601  72.542  1.00  0.00    -0.261 A  
HETATM   24 CL   UNL     1     -11.619   5.000  73.022  1.00  0.00    -0.359 Cl 
HETATM   25  C   UNL     1     -12.132   7.437  72.009  1.00  0.00    -0.325 A  
BRANCH  21  26
HETATM   26  N   UNL     1      -8.869   6.099  73.138  1.00  0.00    -0.131 N  
HETATM   27  H   UNL     1      -8.886   5.911  74.141  1.00  0.00     0.000 HD 
BRANCH  26  28
HETATM   28  C   UNL     1      -7.927   5.427  72.408  1.00  0.00    -0.103 C  
HETATM   29  O   UNL     1      -6.758   5.773  72.275  1.00  0.00    -0.067 OA 
BRANCH  28  30
HETATM   30  N   UNL     1      -8.424   4.288  71.813  1.00  0.00    -0.103 N  
HETATM   31  H   UNL     1      -8.734   3.507  72.392  1.00  0.00     0.000 HD 
BRANCH  30  32
HETATM   32  C   UNL     1      -8.509   4.193  70.391  1.00  0.00    -0.072 C  
HETATM   33  C   UNL     1      -9.809   4.255  69.644  1.00  0.00    -0.244 C  
HETATM   34  C   UNL     1      -8.868   5.422  69.599  1.00  0.00    -0.123 C  
ENDBRANCH  30  32
ENDBRANCH  28  30
ENDBRANCH  26  28
ENDBRANCH  21  26
ENDBRANCH  18  19
ENDBRANCH  11  18
ENDBRANCH   2   3
TORSDOF 8
ENDMDL
MODEL       65
REMARK 921   NORMALIZED FREE ENERGY PREDICTED BY IDOCK:   -5.49 KCAL/MOL
REMARK 922        TOTAL FREE ENERGY PREDICTED BY IDOCK:   -9.59 KCAL/MOL
REMARK 923 INTER-LIGAND FREE ENERGY PREDICTED BY IDOCK:   -8.27 KCAL/MOL
REMARK 924 INTRA-LIGAND FREE ENERGY PREDICTED BY IDOCK:   -1.32 KCAL/MOL
REMARK 927      BINDING AFFINITY PREDICTED BY RF-SCORE:    0.00 PKD
ROOT
HETATM    1  C   UNL     1     -12.758  11.753  63.282  1.00  0.00    -0.180 C  
HETATM    2  O   UNL     1     -11.518  12.451  63.185  1.00  0.00    -0.389 OA 
ENDROOT
BRANCH   2   3
HETATM    3  C   UNL     1     -10.772  12.494  64.334  1.00  0.00    -0.350 A  
HETATM    4  C   UNL     1     -10.933  13.570  65.218  1.00  0.00    -0.303 A  
HETATM    5  N   UNL     1      -8.060  10.649  65.821  1.00  0.00    -0.162 NA 
HETATM    6  C   UNL     1     -10.117  13.649  66.369  1.00  0.00    -0.295 A  
HETATM    7  C   UNL     1      -8.978  11.610  65.715  1.00  0.00    -0.064 A  
HETATM    8  C   UNL     1      -9.120  12.673  66.636  1.00  0.00    -0.193 A  
HETATM    9  C   UNL     1      -7.164  10.751  66.808  1.00  0.00    -0.128 A  
HETATM   10  C   UNL     1      -9.790  11.540  64.601  1.00  0.00    -0.283 A  
HETATM   11  C   UNL     1      -8.213  12.690  67.737  1.00  0.00    -0.171 A  
HETATM   12  C   UNL     1      -7.174  11.766  67.738  1.00  0.00    -0.097 A  
BRANCH   4  13
HETATM   13  C   UNL     1     -11.997  14.589  64.977  1.00  0.00    -0.399 C  
HETATM   14  H2  UNL     1     -10.659  15.925  64.089  1.00  0.00     0.000 HD 
HETATM   15  H1  UNL     1     -12.352  16.453  64.203  1.00  0.00     0.000 HD 
HETATM   16  O   UNL     1     -13.164  14.427  65.310  1.00  0.00    -0.619 OA 
HETATM   17  N   UNL     1     -11.625  15.758  64.368  1.00  0.00    -0.338 N  
ENDBRANCH   4  13
BRANCH  11  18
HETATM   18  O   UNL     1      -8.352  13.713  68.658  1.00  0.00    -0.133 OA 
BRANCH  18  19
HETATM   19  C   UNL     1      -7.879  15.000  68.463  1.00  0.00    -0.137 A  
HETATM   20  C   UNL     1      -8.650  16.018  69.041  1.00  0.00    -0.244 A  
HETATM   21  C   UNL     1      -7.372  17.749  67.891  1.00  0.00    -0.215 A  
HETATM   22  C   UNL     1      -8.394  17.377  68.768  1.00  0.00    -0.223 A  
HETATM   23  C   UNL     1      -6.594  16.734  67.333  1.00  0.00    -0.160 A  
HETATM   24 CL   UNL     1      -5.310  17.098  66.222  1.00  0.00    -0.150 Cl 
HETATM   25  C   UNL     1      -6.841  15.388  67.622  1.00  0.00    -0.208 A  
BRANCH  21  26
HETATM   26  N   UNL     1      -7.107  19.080  67.496  1.00  0.00    -0.209 N  
HETATM   27  H   UNL     1      -6.356  19.560  67.992  1.00  0.00     0.000 HD 
BRANCH  26  28
HETATM   28  C   UNL     1      -7.748  19.795  66.522  1.00  0.00    -0.289 C  
HETATM   29  O   UNL     1      -7.454  19.787  65.331  1.00  0.00    -0.391 OA 
BRANCH  28  30
HETATM   30  N   UNL     1      -8.790  20.553  67.012  1.00  0.00    -0.537 N  
HETATM   31  H   UNL     1      -8.599  21.325  67.651  1.00  0.00     0.000 HD 
BRANCH  30  32
HETATM   32  C   UNL     1     -10.135  20.265  66.631  1.00  0.00    -0.405 C  
HETATM   33  C   UNL     1     -10.526  19.020  65.891  1.00  0.00    -0.468 C  
HETATM   34  C   UNL     1     -10.875  19.164  67.342  1.00  0.00    -0.533 C  
ENDBRANCH  30  32
ENDBRANCH  28  30
ENDBRANCH  26  28
ENDBRANCH  21  26
ENDBRANCH  18  19
ENDBRANCH  11  18
ENDBRANCH   2   3
TORSDOF 8
ENDMDL
MODEL       66
REMARK 921   NORMALIZED FREE ENERGY PREDICTED BY IDOCK:   -5.46 KCAL/MOL
REMARK 922        TOTAL FREE ENERGY PREDICTED BY IDOCK:   -9.54 KCAL/MOL
REMARK 923 INTER-LIGAND FREE ENERGY PREDICTED BY IDOCK:   -8.60 KCAL/MOL
REMARK 924 INTRA-LIGAND FREE ENERGY PREDICTED BY IDOCK:   -0.94 KCAL/MOL
REMARK 927      BINDING AFFINITY PREDICTED BY RF-SCORE:    0.00 PKD
ROOT
HETATM    1  C   UNL     1     -11.068  16.044  64.372  1.00  0.00    -0.124 C  
HETATM    2  O   UNL     1     -11.567  15.065  65.282  1.00  0.00    -0.331 OA 
ENDROOT
BRANCH   2   3
HETATM    3  C   UNL     1     -10.626  14.233  65.831  1.00  0.00    -0.302 A  
HETATM    4  C   UNL     1     -10.719  12.851  65.614  1.00  0.00    -0.295 A  
HETATM    5  N   UNL     1      -7.847  14.490  68.108  1.00  0.00    -0.125 NA 
HETATM    6  C   UNL     1      -9.788  11.989  66.234  1.00  0.00    -0.250 A  
HETATM    7  C   UNL     1      -8.720  13.889  67.298  1.00  0.00    -0.217 A  
HETATM    8  C   UNL     1      -8.773  12.491  67.093  1.00  0.00    -0.200 A  
HETATM    9  C   UNL     1      -7.037  13.715  68.835  1.00  0.00    -0.102 A  
HETATM   10  C   UNL     1      -9.629  14.720  66.676  1.00  0.00    -0.289 A  
HETATM   11  C   UNL     1      -7.822  11.703  67.807  1.00  0.00    -0.129 A  
HETATM   12  C   UNL     1      -7.030  12.341  68.754  1.00  0.00    -0.098 A  
BRANCH   4  13
HETATM   13  C   UNL     1     -11.754  12.303  64.688  1.00  0.00    -0.356 C  
HETATM   14  H2  UNL     1     -10.323  11.400  63.461  1.00  0.00     0.000 HD 
HETATM   15  H1  UNL     1     -12.023  11.192  62.986  1.00  0.00     0.000 HD 
HETATM   16  O   UNL     1     -12.953  12.494  64.839  1.00  0.00    -0.821 OA 
HETATM   17  N   UNL     1     -11.316  11.567  63.619  1.00  0.00    -0.391 N  
ENDBRANCH   4  13
BRANCH  11  18
HETATM   18  O   UNL     1      -7.850  10.335  67.601  1.00  0.00    -0.098 OA 
BRANCH  18  19
HETATM   19  C   UNL     1      -8.870   9.507  68.036  1.00  0.00    -0.123 A  
HETATM   20  C   UNL     1      -9.210   9.632  69.390  1.00  0.00    -0.196 A  
HETATM   21  C   UNL     1     -10.648   7.663  69.295  1.00  0.00    -0.201 A  
HETATM   22  C   UNL     1     -10.096   8.729  70.011  1.00  0.00    -0.200 A  
HETATM   23  C   UNL     1     -10.322   7.552  67.943  1.00  0.00    -0.210 A  
HETATM   24 CL   UNL     1     -10.948   6.254  66.974  1.00  0.00    -0.449 Cl 
HETATM   25  C   UNL     1      -9.457   8.463  67.327  1.00  0.00    -0.196 A  
BRANCH  21  26
HETATM   26  N   UNL     1     -11.471   6.665  69.862  1.00  0.00    -0.522 N  
HETATM   27  H   UNL     1     -11.538   5.786  69.349  1.00  0.00     0.000 HD 
BRANCH  26  28
HETATM   28  C   UNL     1     -12.188   6.748  71.024  1.00  0.00    -0.352 C  
HETATM   29  O   UNL     1     -11.863   6.242  72.093  1.00  0.00    -0.322 OA 
BRANCH  28  30
HETATM   30  N   UNL     1     -13.351   7.475  70.884  1.00  0.00    -0.592 N  
HETATM   31  H   UNL     1     -13.987   7.271  70.113  1.00  0.00     0.000 HD 
BRANCH  30  32
HETATM   32  C   UNL     1     -13.672   8.511  71.812  1.00  0.00    -0.407 C  
HETATM   33  C   UNL     1     -12.642   9.197  72.660  1.00  0.00    -0.204 C  
HETATM   34  C   UNL     1     -13.256   9.923  71.501  1.00  0.00    -0.501 C  
ENDBRANCH  30  32
ENDBRANCH  28  30
ENDBRANCH  26  28
ENDBRANCH  21  26
ENDBRANCH  18  19
ENDBRANCH  11  18
ENDBRANCH   2   3
TORSDOF 8
ENDMDL
MODEL       67
REMARK 921   NORMALIZED FREE ENERGY PREDICTED BY IDOCK:   -5.45 KCAL/MOL
REMARK 922        TOTAL FREE ENERGY PREDICTED BY IDOCK:   -9.53 KCAL/MOL
REMARK 923 INTER-LIGAND FREE ENERGY PREDICTED BY IDOCK:   -8.29 KCAL/MOL
REMARK 924 INTRA-LIGAND FREE ENERGY PREDICTED BY IDOCK:   -1.24 KCAL/MOL
REMARK 927      BINDING AFFINITY PREDICTED BY RF-SCORE:    0.00 PKD
ROOT
HETATM    1  C   UNL     1     -10.103   6.314  74.476  1.00  0.00    -0.336 C  
HETATM    2  O   UNL     1     -10.894   7.163  73.647  1.00  0.00    -0.352 OA 
ENDROOT
BRANCH   2   3
HETATM    3  C   UNL     1     -10.491   7.256  72.341  1.00  0.00    -0.229 A  
HETATM    4  C   UNL     1     -11.422   7.622  71.359  1.00  0.00    -0.290 A  
HETATM    5  N   UNL     1      -7.544   6.529  70.402  1.00  0.00    -0.094 NA 
HETATM    6  C   UNL     1     -11.024   7.654  70.004  1.00  0.00    -0.237 A  
HETATM    7  C   UNL     1      -8.797   6.923  70.630  1.00  0.00    -0.150 A  
HETATM    8  C   UNL     1      -9.704   7.299  69.613  1.00  0.00    -0.159 A  
HETATM    9  C   UNL     1      -7.155   6.397  69.131  1.00  0.00    -0.084 A  
HETATM   10  C   UNL     1      -9.198   6.907  71.951  1.00  0.00    -0.144 A  
HETATM   11  C   UNL     1      -9.219   7.247  68.273  1.00  0.00    -0.133 A  
HETATM   12  C   UNL     1      -7.964   6.690  68.056  1.00  0.00    -0.110 A  
BRANCH   4  13
HETATM   13  C   UNL     1     -12.804   8.034  71.748  1.00  0.00    -0.332 C  
HETATM   14  H2  UNL     1     -12.168   9.912  72.406  1.00  0.00     0.000 HD 
HETATM   15  H1  UNL     1     -13.906   9.566  72.546  1.00  0.00     0.000 HD 
HETATM   16  O   UNL     1     -13.778   7.303  71.622  1.00  0.00    -0.380 OA 
HETATM   17  N   UNL     1     -12.963   9.285  72.280  1.00  0.00    -0.412 N  
ENDBRANCH   4  13
BRANCH  11  18
HETATM   18  O   UNL     1     -10.089   7.632  67.267  1.00  0.00    -0.188 OA 
BRANCH  18  19
HETATM   19  C   UNL     1      -9.977   8.816  66.559  1.00  0.00    -0.290 A  
HETATM   20  C   UNL     1     -10.757   9.879  67.035  1.00  0.00    -0.237 A  
HETATM   21  C   UNL     1     -10.252  11.237  65.073  1.00  0.00    -0.284 A  
HETATM   22  C   UNL     1     -10.885  11.080  66.308  1.00  0.00    -0.234 A  
HETATM   23  C   UNL     1      -9.461  10.185  64.610  1.00  0.00    -0.297 A  
HETATM   24 CL   UNL     1      -8.645  10.282  63.080  1.00  0.00    -0.173 Cl 
HETATM   25  C   UNL     1      -9.323   9.003  65.345  1.00  0.00    -0.213 A  
BRANCH  21  26
HETATM   26  N   UNL     1     -10.399  12.370  64.241  1.00  0.00    -0.346 N  
HETATM   27  H   UNL     1      -9.659  12.532  63.559  1.00  0.00     0.000 HD 
BRANCH  26  28
HETATM   28  C   UNL     1     -11.427  13.273  64.251  1.00  0.00    -0.396 C  
HETATM   29  O   UNL     1     -12.589  13.024  63.948  1.00  0.00    -0.652 OA 
BRANCH  28  30
HETATM   30  N   UNL     1     -11.028  14.533  64.644  1.00  0.00    -0.566 N  
HETATM   31  H   UNL     1     -11.150  15.324  64.011  1.00  0.00     0.000 HD 
BRANCH  30  32
HETATM   32  C   UNL     1     -10.446  14.738  65.931  1.00  0.00    -0.312 C  
HETATM   33  C   UNL     1     -10.562  16.030  66.683  1.00  0.00    -0.297 C  
HETATM   34  C   UNL     1     -11.347  14.835  67.132  1.00  0.00    -0.363 C  
ENDBRANCH  30  32
ENDBRANCH  28  30
ENDBRANCH  26  28
ENDBRANCH  21  26
ENDBRANCH  18  19
ENDBRANCH  11  18
ENDBRANCH   2   3
TORSDOF 8
ENDMDL
MODEL       68
REMARK 921   NORMALIZED FREE ENERGY PREDICTED BY IDOCK:   -5.42 KCAL/MOL
REMARK 922        TOTAL FREE ENERGY PREDICTED BY IDOCK:   -9.49 KCAL/MOL
REMARK 923 INTER-LIGAND FREE ENERGY PREDICTED BY IDOCK:   -8.09 KCAL/MOL
REMARK 924 INTRA-LIGAND FREE ENERGY PREDICTED BY IDOCK:   -1.40 KCAL/MOL
REMARK 927      BINDING AFFINITY PREDICTED BY RF-SCORE:    0.00 PKD
ROOT
HETATM    1  C   UNL     1      -9.119  11.017  62.363  1.00  0.00    -0.281 C  
HETATM    2  O   UNL     1      -9.331   9.903  63.228  1.00  0.00    -0.277 OA 
ENDROOT
BRANCH   2   3
HETATM    3  C   UNL     1      -9.564  10.211  64.543  1.00  0.00    -0.311 A  
HETATM    4  C   UNL     1      -9.008   9.405  65.546  1.00  0.00    -0.248 A  
HETATM    5  N   UNL     1     -11.578  12.533  66.420  1.00  0.00    -0.372 NA 
HETATM    6  C   UNL     1      -9.302   9.683  66.900  1.00  0.00    -0.183 A  
HETATM    7  C   UNL     1     -10.721  11.530  66.224  1.00  0.00    -0.272 A  
HETATM    8  C   UNL     1     -10.169  10.748  67.265  1.00  0.00    -0.245 A  
HETATM    9  C   UNL     1     -12.008  12.749  67.667  1.00  0.00    -0.273 A  
HETATM   10  C   UNL     1     -10.416  11.254  64.907  1.00  0.00    -0.375 A  
HETATM   11  C   UNL     1     -10.570  11.077  68.593  1.00  0.00    -0.196 A  
HETATM   12  C   UNL     1     -11.577  12.022  68.754  1.00  0.00    -0.366 A  
BRANCH   4  13
HETATM   13  C   UNL     1      -8.066   8.302  65.191  1.00  0.00    -0.142 C  
HETATM   14  H2  UNL     1      -6.486   9.626  64.850  1.00  0.00     0.000 HD 
HETATM   15  H1  UNL     1      -6.142   7.898  64.613  1.00  0.00     0.000 HD 
HETATM   16  O   UNL     1      -8.395   7.123  65.175  1.00  0.00    -0.136 OA 
HETATM   17  N   UNL     1      -6.785   8.651  64.856  1.00  0.00    -0.068 N  
ENDBRANCH   4  13
BRANCH  11  18
HETATM   18  O   UNL     1     -10.023  10.332  69.624  1.00  0.00    -0.228 OA 
BRANCH  18  19
HETATM   19  C   UNL     1     -10.631   9.222  70.185  1.00  0.00    -0.231 A  
HETATM   20  C   UNL     1     -11.325   9.457  71.380  1.00  0.00    -0.451 A  
HETATM   21  C   UNL     1     -11.637   7.067  71.762  1.00  0.00    -0.280 A  
HETATM   22  C   UNL     1     -11.832   8.394  72.155  1.00  0.00    -0.441 A  
HETATM   23  C   UNL     1     -10.962   6.838  70.562  1.00  0.00    -0.280 A  
HETATM   24 CL   UNL     1     -10.660   5.224  69.998  1.00  0.00    -0.356 Cl 
HETATM   25  C   UNL     1     -10.478   7.897  69.788  1.00  0.00    -0.233 A  
BRANCH  21  26
HETATM   26  N   UNL     1     -12.034   5.946  72.523  1.00  0.00    -0.497 N  
HETATM   27  H   UNL     1     -13.002   5.644  72.417  1.00  0.00     0.000 HD 
BRANCH  26  28
HETATM   28  C   UNL     1     -11.261   5.219  73.388  1.00  0.00    -0.250 C  
HETATM   29  O   UNL     1     -11.173   3.996  73.399  1.00  0.00    -0.244 OA 
BRANCH  28  30
HETATM   30  N   UNL     1     -10.567   6.010  74.278  1.00  0.00    -0.361 N  
HETATM   31  H   UNL     1     -11.067   6.492  75.026  1.00  0.00     0.000 HD 
BRANCH  30  32
HETATM   32  C   UNL     1      -9.152   6.159  74.162  1.00  0.00    -0.134 C  
HETATM   33  C   UNL     1      -8.446   6.247  72.841  1.00  0.00    -0.118 C  
HETATM   34  C   UNL     1      -8.593   7.474  73.689  1.00  0.00    -0.242 C  
ENDBRANCH  30  32
ENDBRANCH  28  30
ENDBRANCH  26  28
ENDBRANCH  21  26
ENDBRANCH  18  19
ENDBRANCH  11  18
ENDBRANCH   2   3
TORSDOF 8
ENDMDL
MODEL       69
REMARK 921   NORMALIZED FREE ENERGY PREDICTED BY IDOCK:   -5.41 KCAL/MOL
REMARK 922        TOTAL FREE ENERGY PREDICTED BY IDOCK:   -9.47 KCAL/MOL
REMARK 923 INTER-LIGAND FREE ENERGY PREDICTED BY IDOCK:   -8.45 KCAL/MOL
REMARK 924 INTRA-LIGAND FREE ENERGY PREDICTED BY IDOCK:   -1.03 KCAL/MOL
REMARK 927      BINDING AFFINITY PREDICTED BY RF-SCORE:    0.00 PKD
ROOT
HETATM    1  C   UNL     1     -10.327  17.964  66.146  1.00  0.00    -0.352 C  
HETATM    2  O   UNL     1     -10.727  17.045  67.161  1.00  0.00    -0.282 OA 
ENDROOT
BRANCH   2   3
HETATM    3  C   UNL     1     -10.575  15.718  66.852  1.00  0.00    -0.317 A  
HETATM    4  C   UNL     1      -9.876  14.883  67.734  1.00  0.00    -0.217 A  
HETATM    5  N   UNL     1     -11.253  13.536  64.067  1.00  0.00    -0.306 NA 
HETATM    6  C   UNL     1      -9.661  13.531  67.384  1.00  0.00    -0.227 A  
HETATM    7  C   UNL     1     -10.806  13.883  65.275  1.00  0.00    -0.333 A  
HETATM    8  C   UNL     1     -10.117  13.007  66.144  1.00  0.00    -0.287 A  
HETATM    9  C   UNL     1     -10.950  12.314  63.620  1.00  0.00    -0.471 A  
HETATM   10  C   UNL     1     -11.019  15.198  65.635  1.00  0.00    -0.359 A  
HETATM   11  C   UNL     1      -9.905  11.677  65.675  1.00  0.00    -0.240 A  
HETATM   12  C   UNL     1     -10.245  11.390  64.358  1.00  0.00    -0.361 A  
BRANCH   4  13
HETATM   13  C   UNL     1      -9.418  15.401  69.057  1.00  0.00    -0.236 C  
HETATM   14  H2  UNL     1      -7.506  15.840  68.337  1.00  0.00     0.000 HD 
HETATM   15  H1  UNL     1      -7.816  16.209  70.048  1.00  0.00     0.000 HD 
HETATM   16  O   UNL     1     -10.134  15.422  70.050  1.00  0.00    -0.287 OA 
HETATM   17  N   UNL     1      -8.129  15.855  69.145  1.00  0.00    -0.228 N  
ENDBRANCH   4  13
BRANCH  11  18
HETATM   18  O   UNL     1      -9.250  10.801  66.524  1.00  0.00    -0.163 OA 
BRANCH  18  19
HETATM   19  C   UNL     1      -9.861   9.729  67.152  1.00  0.00    -0.188 A  
HETATM   20  C   UNL     1     -10.073   9.880  68.529  1.00  0.00    -0.186 A  
HETATM   21  C   UNL     1     -10.728   7.542  68.766  1.00  0.00    -0.095 A  
HETATM   22  C   UNL     1     -10.512   8.804  69.326  1.00  0.00    -0.228 A  
HETATM   23  C   UNL     1     -10.535   7.400  67.392  1.00  0.00    -0.296 A  
HETATM   24 CL   UNL     1     -10.767   5.868  66.607  1.00  0.00    -0.351 Cl 
HETATM   25  C   UNL     1     -10.117   8.477  66.602  1.00  0.00    -0.364 A  
BRANCH  21  26
HETATM   26  N   UNL     1     -11.082   6.392  69.507  1.00  0.00    -0.363 N  
HETATM   27  H   UNL     1     -10.976   5.496  69.032  1.00  0.00     0.000 HD 
BRANCH  26  28
HETATM   28  C   UNL     1     -11.551   6.350  70.792  1.00  0.00    -0.338 C  
HETATM   29  O   UNL     1     -12.543   6.942  71.202  1.00  0.00    -0.376 OA 
BRANCH  28  30
HETATM   30  N   UNL     1     -10.782   5.556  71.616  1.00  0.00    -0.245 N  
HETATM   31  H   UNL     1     -10.175   4.842  71.211  1.00  0.00     0.000 HD 
BRANCH  30  32
HETATM   32  C   UNL     1     -10.828   5.725  73.032  1.00  0.00    -0.271 C  
HETATM   33  C   UNL     1     -10.668   4.588  73.997  1.00  0.00    -0.340 C  
HETATM   34  C   UNL     1      -9.558   5.580  73.826  1.00  0.00    -0.142 C  
ENDBRANCH  30  32
ENDBRANCH  28  30
ENDBRANCH  26  28
ENDBRANCH  21  26
ENDBRANCH  18  19
ENDBRANCH  11  18
ENDBRANCH   2   3
TORSDOF 8
ENDMDL
MODEL       70
REMARK 921   NORMALIZED FREE ENERGY PREDICTED BY IDOCK:   -5.41 KCAL/MOL
REMARK 922        TOTAL FREE ENERGY PREDICTED BY IDOCK:   -9.47 KCAL/MOL
REMARK 923 INTER-LIGAND FREE ENERGY PREDICTED BY IDOCK:   -8.80 KCAL/MOL
REMARK 924 INTRA-LIGAND FREE ENERGY PREDICTED BY IDOCK:   -0.68 KCAL/MOL
REMARK 927      BINDING AFFINITY PREDICTED BY RF-SCORE:    0.00 PKD
ROOT
HETATM    1  C   UNL     1     -11.668   7.654  72.192  1.00  0.00    -0.311 C  
HETATM    2  O   UNL     1     -11.171   8.981  72.031  1.00  0.00    -0.361 OA 
ENDROOT
BRANCH   2   3
HETATM    3  C   UNL     1     -10.979   9.389  70.737  1.00  0.00    -0.304 A  
HETATM    4  C   UNL     1     -11.707  10.482  70.246  1.00  0.00    -0.420 A  
HETATM    5  N   UNL     1      -9.197   8.251  67.821  1.00  0.00    -0.134 NA 
HETATM    6  C   UNL     1     -11.559  10.861  68.892  1.00  0.00    -0.378 A  
HETATM    7  C   UNL     1      -9.999   9.036  68.541  1.00  0.00    -0.176 A  
HETATM    8  C   UNL     1     -10.706  10.141  68.013  1.00  0.00    -0.305 A  
HETATM    9  C   UNL     1      -9.132   8.469  66.504  1.00  0.00    -0.176 A  
HETATM   10  C   UNL     1     -10.145   8.685  69.868  1.00  0.00    -0.197 A  
HETATM   11  C   UNL     1     -10.528  10.408  66.623  1.00  0.00    -0.215 A  
HETATM   12  C   UNL     1      -9.811   9.486  65.870  1.00  0.00    -0.360 A  
BRANCH   4  13
HETATM   13  C   UNL     1     -12.582  11.275  71.159  1.00  0.00    -0.397 C  
HETATM   14  H2  UNL     1     -11.892  13.097  70.402  1.00  0.00     0.000 HD 
HETATM   15  H1  UNL     1     -13.113  13.182  71.691  1.00  0.00     0.000 HD 
HETATM   16  O   UNL     1     -13.331  10.761  71.978  1.00  0.00    -0.447 OA 
HETATM   17  N   UNL     1     -12.515  12.640  71.067  1.00  0.00    -0.335 N  
ENDBRANCH   4  13
BRANCH  11  18
HETATM   18  O   UNL     1     -11.198  11.498  66.096  1.00  0.00    -0.286 OA 
BRANCH  18  19
HETATM   19  C   UNL     1     -10.643  12.760  65.969  1.00  0.00    -0.268 A  
HETATM   20  C   UNL     1      -9.573  13.036  66.831  1.00  0.00    -0.243 A  
HETATM   21  C   UNL     1      -9.572  15.395  66.208  1.00  0.00    -0.313 A  
HETATM   22  C   UNL     1      -9.035  14.334  66.943  1.00  0.00    -0.255 A  
HETATM   23  C   UNL     1     -10.625  15.113  65.336  1.00  0.00    -0.391 A  
HETATM   24 CL   UNL     1     -11.365  16.368  64.391  1.00  0.00    -0.279 Cl 
HETATM   25  C   UNL     1     -11.142  13.819  65.216  1.00  0.00    -0.315 A  
BRANCH  21  26
HETATM   26  N   UNL     1      -9.152  16.738  66.327  1.00  0.00    -0.285 N  
HETATM   27  H   UNL     1      -8.922  17.221  65.458  1.00  0.00     0.000 HD 
BRANCH  26  28
HETATM   28  C   UNL     1      -9.020  17.463  67.480  1.00  0.00    -0.231 C  
HETATM   29  O   UNL     1      -8.535  18.587  67.556  1.00  0.00    -0.258 OA 
BRANCH  28  30
HETATM   30  N   UNL     1      -9.496  16.796  68.588  1.00  0.00    -0.247 N  
HETATM   31  H   UNL     1      -8.866  16.211  69.137  1.00  0.00     0.000 HD 
BRANCH  30  32
HETATM   32  C   UNL     1     -10.864  16.919  68.974  1.00  0.00    -0.255 C  
HETATM   33  C   UNL     1     -11.834  15.775  68.923  1.00  0.00    -0.354 C  
HETATM   34  C   UNL     1     -11.325  16.261  70.247  1.00  0.00    -0.299 C  
ENDBRANCH  30  32
ENDBRANCH  28  30
ENDBRANCH  26  28
ENDBRANCH  21  26
ENDBRANCH  18  19
ENDBRANCH  11  18
ENDBRANCH   2   3
TORSDOF 8
ENDMDL
MODEL       71
REMARK 921   NORMALIZED FREE ENERGY PREDICTED BY IDOCK:   -5.37 KCAL/MOL
REMARK 922        TOTAL FREE ENERGY PREDICTED BY IDOCK:   -9.41 KCAL/MOL
REMARK 923 INTER-LIGAND FREE ENERGY PREDICTED BY IDOCK:   -8.20 KCAL/MOL
REMARK 924 INTRA-LIGAND FREE ENERGY PREDICTED BY IDOCK:   -1.22 KCAL/MOL
REMARK 927      BINDING AFFINITY PREDICTED BY RF-SCORE:    0.00 PKD
ROOT
HETATM    1  C   UNL     1     -12.375  13.426  63.501  1.00  0.00    -0.326 C  
HETATM    2  O   UNL     1     -11.155  13.812  64.131  1.00  0.00    -0.329 OA 
ENDROOT
BRANCH   2   3
HETATM    3  C   UNL     1     -10.612  12.887  64.984  1.00  0.00    -0.315 A  
HETATM    4  C   UNL     1     -10.396  13.232  66.326  1.00  0.00    -0.290 A  
HETATM    5  N   UNL     1      -9.174   9.591  64.776  1.00  0.00    -0.231 NA 
HETATM    6  C   UNL     1      -9.775  12.302  67.189  1.00  0.00    -0.203 A  
HETATM    7  C   UNL     1      -9.564  10.726  65.357  1.00  0.00    -0.223 A  
HETATM    8  C   UNL     1      -9.341  11.033  66.719  1.00  0.00    -0.199 A  
HETATM    9  C   UNL     1      -8.451   8.735  65.505  1.00  0.00    -0.165 A  
HETATM   10  C   UNL     1     -10.182  11.640  64.528  1.00  0.00    -0.337 A  
HETATM   11  C   UNL     1      -8.659  10.048  67.493  1.00  0.00    -0.122 A  
HETATM   12  C   UNL     1      -8.133   8.948  66.827  1.00  0.00    -0.111 A  
BRANCH   4  13
HETATM   13  C   UNL     1     -10.875  14.545  66.851  1.00  0.00    -0.305 C  
HETATM   14  H2  UNL     1      -9.060  15.491  66.425  1.00  0.00     0.000 HD 
HETATM   15  H1  UNL     1     -10.328  16.496  67.163  1.00  0.00     0.000 HD 
HETATM   16  O   UNL     1     -11.992  14.708  67.324  1.00  0.00    -0.391 OA 
HETATM   17  N   UNL     1     -10.001  15.599  66.804  1.00  0.00    -0.243 N  
ENDBRANCH   4  13
BRANCH  11  18
HETATM   18  O   UNL     1      -8.452  10.326  68.833  1.00  0.00    -0.120 OA 
BRANCH  18  19
HETATM   19  C   UNL     1      -9.276   9.879  69.852  1.00  0.00    -0.212 A  
HETATM   20  C   UNL     1      -8.856   8.706  70.494  1.00  0.00    -0.182 A  
HETATM   21  C   UNL     1     -10.966   8.517  71.704  1.00  0.00    -0.292 A  
HETATM   22  C   UNL     1      -9.685   8.038  71.418  1.00  0.00    -0.205 A  
HETATM   23  C   UNL     1     -11.374   9.695  71.078  1.00  0.00    -0.374 A  
HETATM   24 CL   UNL     1     -12.952  10.361  71.361  1.00  0.00    -0.510 Cl 
HETATM   25  C   UNL     1     -10.539  10.365  70.177  1.00  0.00    -0.245 A  
BRANCH  21  26
HETATM   26  N   UNL     1     -11.891   7.861  72.547  1.00  0.00    -0.502 N  
HETATM   27  H   UNL     1     -11.914   8.166  73.520  1.00  0.00     0.000 HD 
BRANCH  26  28
HETATM   28  C   UNL     1     -12.760   6.863  72.200  1.00  0.00    -0.088 C  
HETATM   29  O   UNL     1     -13.724   6.992  71.454  1.00  0.00    -0.324 OA 
BRANCH  28  30
HETATM   30  N   UNL     1     -12.447   5.654  72.785  1.00  0.00    -0.422 N  
HETATM   31  H   UNL     1     -13.190   5.063  73.157  1.00  0.00     0.000 HD 
BRANCH  30  32
HETATM   32  C   UNL     1     -11.088   5.224  72.873  1.00  0.00    -0.305 C  
HETATM   33  C   UNL     1     -10.386   4.999  74.180  1.00  0.00    -0.307 C  
HETATM   34  C   UNL     1     -10.796   3.824  73.343  1.00  0.00    -0.315 C  
ENDBRANCH  30  32
ENDBRANCH  28  30
ENDBRANCH  26  28
ENDBRANCH  21  26
ENDBRANCH  18  19
ENDBRANCH  11  18
ENDBRANCH   2   3
TORSDOF 8
ENDMDL
MODEL       72
REMARK 921   NORMALIZED FREE ENERGY PREDICTED BY IDOCK:   -5.37 KCAL/MOL
REMARK 922        TOTAL FREE ENERGY PREDICTED BY IDOCK:   -9.41 KCAL/MOL
REMARK 923 INTER-LIGAND FREE ENERGY PREDICTED BY IDOCK:   -8.27 KCAL/MOL
REMARK 924 INTRA-LIGAND FREE ENERGY PREDICTED BY IDOCK:   -1.15 KCAL/MOL
REMARK 927      BINDING AFFINITY PREDICTED BY RF-SCORE:    0.00 PKD
ROOT
HETATM    1  C   UNL     1     -11.356   6.120  72.307  1.00  0.00    -0.300 C  
HETATM    2  O   UNL     1     -11.304   6.375  70.905  1.00  0.00    -0.304 OA 
ENDROOT
BRANCH   2   3
HETATM    3  C   UNL     1     -11.481   7.683  70.534  1.00  0.00    -0.218 A  
HETATM    4  C   UNL     1     -10.889   8.149  69.352  1.00  0.00    -0.096 A  
HETATM    5  N   UNL     1     -12.925  10.675  71.927  1.00  0.00    -0.469 NA 
HETATM    6  C   UNL     1     -11.015   9.513  69.005  1.00  0.00    -0.127 A  
HETATM    7  C   UNL     1     -12.282   9.923  71.033  1.00  0.00    -0.353 A  
HETATM    8  C   UNL     1     -11.710  10.427  69.842  1.00  0.00    -0.341 A  
HETATM    9  C   UNL     1     -12.949  11.996  71.727  1.00  0.00    -0.340 A  
HETATM   10  C   UNL     1     -12.160   8.586  71.353  1.00  0.00    -0.345 A  
HETATM   11  C   UNL     1     -11.847  11.828  69.610  1.00  0.00    -0.339 A  
HETATM   12  C   UNL     1     -12.386  12.606  70.628  1.00  0.00    -0.375 A  
BRANCH   4  13
HETATM   13  C   UNL     1     -10.185   7.201  68.439  1.00  0.00    -0.174 C  
HETATM   14  H2  UNL     1     -11.964   6.611  67.515  1.00  0.00     0.000 HD 
HETATM   15  H1  UNL     1     -10.471   5.846  66.927  1.00  0.00     0.000 HD 
HETATM   16  O   UNL     1      -8.974   7.026  68.463  1.00  0.00    -0.125 OA 
HETATM   17  N   UNL     1     -10.952   6.494  67.551  1.00  0.00    -0.348 N  
ENDBRANCH   4  13
BRANCH  11  18
HETATM   18  O   UNL     1     -11.310  12.333  68.438  1.00  0.00    -0.245 OA 
BRANCH  18  19
HETATM   19  C   UNL     1     -10.831  13.624  68.301  1.00  0.00    -0.251 A  
HETATM   20  C   UNL     1     -11.673  14.508  67.613  1.00  0.00    -0.410 A  
HETATM   21  C   UNL     1      -9.938  16.221  67.524  1.00  0.00    -0.248 A  
HETATM   22  C   UNL     1     -11.238  15.795  67.238  1.00  0.00    -0.140 A  
HETATM   23  C   UNL     1      -9.108  15.345  68.225  1.00  0.00    -0.187 A  
HETATM   24 CL   UNL     1      -7.472  15.780  68.614  1.00  0.00    -0.142 Cl 
HETATM   25  C   UNL     1      -9.551  14.076  68.611  1.00  0.00    -0.159 A  
BRANCH  21  26
HETATM   26  N   UNL     1      -9.395  17.457  67.107  1.00  0.00    -0.240 N  
HETATM   27  H   UNL     1      -8.736  17.424  66.329  1.00  0.00     0.000 HD 
BRANCH  26  28
HETATM   28  C   UNL     1      -9.657  18.693  67.631  1.00  0.00    -0.300 C  
HETATM   29  O   UNL     1     -10.666  19.354  67.411  1.00  0.00    -0.460 OA 
BRANCH  28  30
HETATM   30  N   UNL     1      -8.652  19.147  68.458  1.00  0.00    -0.354 N  
HETATM   31  H   UNL     1      -8.841  19.305  69.448  1.00  0.00     0.000 HD 
BRANCH  30  32
HETATM   32  C   UNL     1      -7.347  19.399  67.937  1.00  0.00    -0.260 C  
HETATM   33  C   UNL     1      -7.034  20.564  67.045  1.00  0.00    -0.346 C  
HETATM   34  C   UNL     1      -6.564  20.570  68.468  1.00  0.00    -0.269 C  
ENDBRANCH  30  32
ENDBRANCH  28  30
ENDBRANCH  26  28
ENDBRANCH  21  26
ENDBRANCH  18  19
ENDBRANCH  11  18
ENDBRANCH   2   3
TORSDOF 8
ENDMDL
MODEL       73
REMARK 921   NORMALIZED FREE ENERGY PREDICTED BY IDOCK:   -5.32 KCAL/MOL
REMARK 922        TOTAL FREE ENERGY PREDICTED BY IDOCK:   -9.34 KCAL/MOL
REMARK 923 INTER-LIGAND FREE ENERGY PREDICTED BY IDOCK:   -8.14 KCAL/MOL
REMARK 924 INTRA-LIGAND FREE ENERGY PREDICTED BY IDOCK:   -1.20 KCAL/MOL
REMARK 927      BINDING AFFINITY PREDICTED BY RF-SCORE:    0.00 PKD
ROOT
HETATM    1  C   UNL     1      -9.502   3.572  68.194  1.00  0.00    -0.155 C  
HETATM    2  O   UNL     1      -8.652   4.623  68.650  1.00  0.00    -0.088 OA 
ENDROOT
BRANCH   2   3
HETATM    3  C   UNL     1      -9.291   5.755  69.083  1.00  0.00    -0.123 A  
HETATM    4  C   UNL     1      -8.708   7.008  68.845  1.00  0.00    -0.131 A  
HETATM    5  N   UNL     1     -12.175   6.592  71.073  1.00  0.00    -0.344 NA 
HETATM    6  C   UNL     1      -9.334   8.170  69.349  1.00  0.00    -0.155 A  
HETATM    7  C   UNL     1     -11.081   6.812  70.342  1.00  0.00    -0.308 A  
HETATM    8  C   UNL     1     -10.530   8.094  70.112  1.00  0.00    -0.225 A  
HETATM    9  C   UNL     1     -12.726   7.637  71.697  1.00  0.00    -0.343 A  
HETATM   10  C   UNL     1     -10.465   5.687  69.834  1.00  0.00    -0.378 A  
HETATM   11  C   UNL     1     -11.208   9.198  70.708  1.00  0.00    -0.277 A  
HETATM   12  C   UNL     1     -12.251   8.924  71.585  1.00  0.00    -0.409 A  
BRANCH   4  13
HETATM   13  C   UNL     1      -7.471   7.116  68.016  1.00  0.00    -0.099 C  
HETATM   14  H2  UNL     1      -6.227   7.151  69.695  1.00  0.00     0.000 HD 
HETATM   15  H1  UNL     1      -5.428   7.252  68.110  1.00  0.00     0.000 HD 
HETATM   16  O   UNL     1      -7.490   7.164  66.793  1.00  0.00    -0.085 OA 
HETATM   17  N   UNL     1      -6.273   7.178  68.676  1.00  0.00    -0.030 N  
ENDBRANCH   4  13
BRANCH  11  18
HETATM   18  O   UNL     1     -10.691  10.461  70.475  1.00  0.00    -0.236 OA 
BRANCH  18  19
HETATM   19  C   UNL     1     -11.291  11.403  69.657  1.00  0.00    -0.275 A  
HETATM   20  C   UNL     1     -11.411  11.040  68.309  1.00  0.00    -0.374 A  
HETATM   21  C   UNL     1     -12.116  13.290  67.682  1.00  0.00    -0.249 A  
HETATM   22  C   UNL     1     -11.829  11.968  67.333  1.00  0.00    -0.268 A  
HETATM   23  C   UNL     1     -12.014  13.644  69.028  1.00  0.00    -0.353 A  
HETATM   24 CL   UNL     1     -12.338  15.266  69.556  1.00  0.00    -0.260 Cl 
HETATM   25  C   UNL     1     -11.617  12.714  69.994  1.00  0.00    -0.199 A  
BRANCH  21  26
HETATM   26  N   UNL     1     -12.454  14.302  66.755  1.00  0.00    -0.547 N  
HETATM   27  H   UNL     1     -13.198  14.943  67.034  1.00  0.00     0.000 HD 
BRANCH  26  28
HETATM   28  C   UNL     1     -11.893  14.517  65.526  1.00  0.00    -0.330 C  
HETATM   29  O   UNL     1     -12.470  14.381  64.453  1.00  0.00    -0.635 OA 
BRANCH  28  30
HETATM   30  N   UNL     1     -10.575  14.914  65.602  1.00  0.00    -0.321 N  
HETATM   31  H   UNL     1      -9.877  14.469  65.006  1.00  0.00     0.000 HD 
BRANCH  30  32
HETATM   32  C   UNL     1     -10.181  15.943  66.508  1.00  0.00    -0.290 C  
HETATM   33  C   UNL     1      -8.960  16.791  66.301  1.00  0.00    -0.325 C  
HETATM   34  C   UNL     1     -10.321  17.381  66.085  1.00  0.00    -0.329 C  
ENDBRANCH  30  32
ENDBRANCH  28  30
ENDBRANCH  26  28
ENDBRANCH  21  26
ENDBRANCH  18  19
ENDBRANCH  11  18
ENDBRANCH   2   3
TORSDOF 8
ENDMDL
MODEL       74
REMARK 921   NORMALIZED FREE ENERGY PREDICTED BY IDOCK:   -5.32 KCAL/MOL
REMARK 922        TOTAL FREE ENERGY PREDICTED BY IDOCK:   -9.34 KCAL/MOL
REMARK 923 INTER-LIGAND FREE ENERGY PREDICTED BY IDOCK:   -8.17 KCAL/MOL
REMARK 924 INTRA-LIGAND FREE ENERGY PREDICTED BY IDOCK:   -1.18 KCAL/MOL
REMARK 927      BINDING AFFINITY PREDICTED BY RF-SCORE:    0.00 PKD
ROOT
HETATM    1  C   UNL     1     -12.284  14.599  64.609  1.00  0.00    -0.434 C  
HETATM    2  O   UNL     1     -11.003  14.153  65.049  1.00  0.00    -0.342 OA 
ENDROOT
BRANCH   2   3
HETATM    3  C   UNL     1     -11.011  13.283  66.107  1.00  0.00    -0.279 A  
HETATM    4  C   UNL     1     -10.639  11.947  65.902  1.00  0.00    -0.306 A  
HETATM    5  N   UNL     1     -12.043  13.294  69.558  1.00  0.00    -0.290 NA 
HETATM    6  C   UNL     1     -10.711  11.034  66.978  1.00  0.00    -0.319 A  
HETATM    7  C   UNL     1     -11.554  12.790  68.425  1.00  0.00    -0.325 A  
HETATM    8  C   UNL     1     -11.175  11.438  68.260  1.00  0.00    -0.326 A  
HETATM    9  C   UNL     1     -12.272  12.447  70.567  1.00  0.00    -0.295 A  
HETATM   10  C   UNL     1     -11.467  13.672  67.367  1.00  0.00    -0.365 A  
HETATM   11  C   UNL     1     -11.335  10.586  69.392  1.00  0.00    -0.269 A  
HETATM   12  C   UNL     1     -11.987  11.102  70.507  1.00  0.00    -0.475 A  
BRANCH   4  13
HETATM   13  C   UNL     1     -10.115  11.507  64.575  1.00  0.00    -0.278 C  
HETATM   14  H2  UNL     1     -11.993  11.653  63.671  1.00  0.00     0.000 HD 
HETATM   15  H1  UNL     1     -10.650  11.124  62.634  1.00  0.00     0.000 HD 
HETATM   16  O   UNL     1      -8.942  11.212  64.385  1.00  0.00    -0.107 OA 
HETATM   17  N   UNL     1     -11.008  11.424  63.540  1.00  0.00    -0.380 N  
ENDBRANCH   4  13
BRANCH  11  18
HETATM   18  O   UNL     1     -10.950   9.264  69.252  1.00  0.00    -0.191 OA 
BRANCH  18  19
HETATM   19  C   UNL     1     -10.788   8.388  70.312  1.00  0.00    -0.239 A  
HETATM   20  C   UNL     1     -11.725   7.348  70.382  1.00  0.00    -0.163 A  
HETATM   21  C   UNL     1     -10.941   6.682  72.594  1.00  0.00    -0.255 A  
HETATM   22  C   UNL     1     -11.795   6.497  71.503  1.00  0.00    -0.386 A  
HETATM   23  C   UNL     1      -9.997   7.706  72.513  1.00  0.00    -0.208 A  
HETATM   24 CL   UNL     1      -8.902   8.020  73.824  1.00  0.00    -0.331 Cl 
HETATM   25  C   UNL     1      -9.920   8.535  71.390  1.00  0.00    -0.301 A  
BRANCH  21  26
HETATM   26  N   UNL     1     -11.004   5.932  73.790  1.00  0.00    -0.412 N  
HETATM   27  H   UNL     1     -11.251   6.446  74.636  1.00  0.00     0.000 HD 
BRANCH  26  28
HETATM   28  C   UNL     1     -10.772   4.592  73.937  1.00  0.00    -0.294 C  
HETATM   29  O   UNL     1     -11.532   3.699  73.579  1.00  0.00    -0.212 OA 
BRANCH  28  30
HETATM   30  N   UNL     1      -9.566   4.322  74.548  1.00  0.00    -0.111 N  
HETATM   31  H   UNL     1      -9.455   4.490  75.548  1.00  0.00     0.000 HD 
BRANCH  30  32
HETATM   32  C   UNL     1      -8.470   3.809  73.790  1.00  0.00    -0.090 C  
HETATM   33  C   UNL     1      -8.391   3.914  72.296  1.00  0.00    -0.093 C  
HETATM   34  C   UNL     1      -7.510   4.776  73.150  1.00  0.00    -0.087 C  
ENDBRANCH  30  32
ENDBRANCH  28  30
ENDBRANCH  26  28
ENDBRANCH  21  26
ENDBRANCH  18  19
ENDBRANCH  11  18
ENDBRANCH   2   3
TORSDOF 8
ENDMDL
MODEL       75
REMARK 921   NORMALIZED FREE ENERGY PREDICTED BY IDOCK:   -5.31 KCAL/MOL
REMARK 922        TOTAL FREE ENERGY PREDICTED BY IDOCK:   -9.33 KCAL/MOL
REMARK 923 INTER-LIGAND FREE ENERGY PREDICTED BY IDOCK:   -8.43 KCAL/MOL
REMARK 924 INTRA-LIGAND FREE ENERGY PREDICTED BY IDOCK:   -0.90 KCAL/MOL
REMARK 927      BINDING AFFINITY PREDICTED BY RF-SCORE:    0.00 PKD
ROOT
HETATM    1  C   UNL     1      -7.782   7.938  66.348  1.00  0.00    -0.096 C  
HETATM    2  O   UNL     1      -8.949   8.370  65.650  1.00  0.00    -0.179 OA 
ENDROOT
BRANCH   2   3
HETATM    3  C   UNL     1      -9.692   9.333  66.279  1.00  0.00    -0.271 A  
HETATM    4  C   UNL     1      -9.894  10.568  65.647  1.00  0.00    -0.311 A  
HETATM    5  N   UNL     1     -11.234   9.832  69.496  1.00  0.00    -0.187 NA 
HETATM    6  C   UNL     1     -10.604  11.585  66.323  1.00  0.00    -0.309 A  
HETATM    7  C   UNL     1     -10.862  10.137  68.252  1.00  0.00    -0.252 A  
HETATM    8  C   UNL     1     -11.097  11.390  67.642  1.00  0.00    -0.325 A  
HETATM    9  C   UNL     1     -11.778  10.802  70.238  1.00  0.00    -0.352 A  
HETATM   10  C   UNL     1     -10.177   9.149  67.574  1.00  0.00    -0.304 A  
HETATM   11  C   UNL     1     -11.776  12.367  68.429  1.00  0.00    -0.336 A  
HETATM   12  C   UNL     1     -12.014  12.074  69.767  1.00  0.00    -0.370 A  
BRANCH   4  13
HETATM   13  C   UNL     1      -9.417  10.784  64.249  1.00  0.00    -0.264 C  
HETATM   14  H2  UNL     1     -11.310  11.371  63.586  1.00  0.00     0.000 HD 
HETATM   15  H1  UNL     1     -10.011  11.357  62.373  1.00  0.00     0.000 HD 
HETATM   16  O   UNL     1      -8.260  10.588  63.901  1.00  0.00    -0.147 OA 
HETATM   17  N   UNL     1     -10.337  11.209  63.327  1.00  0.00    -0.348 N  
ENDBRANCH   4  13
BRANCH  11  18
HETATM   18  O   UNL     1     -12.031  13.593  67.838  1.00  0.00    -0.358 OA 
BRANCH  18  19
HETATM   19  C   UNL     1     -11.209  14.699  67.965  1.00  0.00    -0.293 A  
HETATM   20  C   UNL     1     -11.719  15.740  68.753  1.00  0.00    -0.387 A  
HETATM   21  C   UNL     1      -9.919  17.242  68.077  1.00  0.00    -0.304 A  
HETATM   22  C   UNL     1     -11.077  16.993  68.819  1.00  0.00    -0.086 A  
HETATM   23  C   UNL     1      -9.404  16.198  67.309  1.00  0.00    -0.213 A  
HETATM   24 CL   UNL     1      -7.976  16.416  66.344  1.00  0.00    -0.341 Cl 
HETATM   25  C   UNL     1     -10.034  14.950  67.263  1.00  0.00    -0.230 A  
BRANCH  21  26
HETATM   26  N   UNL     1      -9.267  18.494  68.017  1.00  0.00    -0.290 N  
HETATM   27  H   UNL     1      -8.597  18.693  68.760  1.00  0.00     0.000 HD 
BRANCH  26  28
HETATM   28  C   UNL     1      -9.434  19.468  67.071  1.00  0.00    -0.337 C  
HETATM   29  O   UNL     1     -10.179  19.389  66.100  1.00  0.00    -0.421 OA 
BRANCH  28  30
HETATM   30  N   UNL     1      -8.663  20.585  67.311  1.00  0.00    -0.455 N  
HETATM   31  H   UNL     1      -9.002  21.309  67.945  1.00  0.00     0.000 HD 
BRANCH  30  32
HETATM   32  C   UNL     1      -7.392  20.736  66.679  1.00  0.00    -0.139 C  
HETATM   33  C   UNL     1      -6.267  19.761  66.864  1.00  0.00    -0.192 C  
HETATM   34  C   UNL     1      -7.015  19.795  65.566  1.00  0.00    -0.330 C  
ENDBRANCH  30  32
ENDBRANCH  28  30
ENDBRANCH  26  28
ENDBRANCH  21  26
ENDBRANCH  18  19
ENDBRANCH  11  18
ENDBRANCH   2   3
TORSDOF 8
ENDMDL
MODEL       76
REMARK 921   NORMALIZED FREE ENERGY PREDICTED BY IDOCK:   -5.30 KCAL/MOL
REMARK 922        TOTAL FREE ENERGY PREDICTED BY IDOCK:   -9.32 KCAL/MOL
REMARK 923 INTER-LIGAND FREE ENERGY PREDICTED BY IDOCK:   -7.91 KCAL/MOL
REMARK 924 INTRA-LIGAND FREE ENERGY PREDICTED BY IDOCK:   -1.41 KCAL/MOL
REMARK 927      BINDING AFFINITY PREDICTED BY RF-SCORE:    0.00 PKD
ROOT
HETATM    1  C   UNL     1      -7.156   4.921  64.268  1.00  0.00    -0.050 C  
HETATM    2  O   UNL     1      -7.995   6.067  64.138  1.00  0.00    -0.116 OA 
ENDROOT
BRANCH   2   3
HETATM    3  C   UNL     1      -8.513   6.557  65.308  1.00  0.00    -0.087 A  
HETATM    4  C   UNL     1      -8.107   7.819  65.764  1.00  0.00    -0.125 A  
HETATM    5  N   UNL     1     -10.611   5.385  67.991  1.00  0.00    -0.134 NA 
HETATM    6  C   UNL     1      -8.590   8.296  67.003  1.00  0.00    -0.124 A  
HETATM    7  C   UNL     1      -9.835   6.239  67.322  1.00  0.00    -0.137 A  
HETATM    8  C   UNL     1      -9.459   7.512  67.809  1.00  0.00    -0.157 A  
HETATM    9  C   UNL     1     -10.978   5.719  69.232  1.00  0.00    -0.260 A  
HETATM   10  C   UNL     1      -9.365   5.791  66.105  1.00  0.00    -0.160 A  
HETATM   11  C   UNL     1      -9.957   7.878  69.095  1.00  0.00    -0.184 A  
HETATM   12  C   UNL     1     -10.634   6.911  69.829  1.00  0.00    -0.261 A  
BRANCH   4  13
HETATM   13  C   UNL     1      -7.224   8.676  64.919  1.00  0.00    -0.084 C  
HETATM   14  H2  UNL     1      -5.486   7.959  65.832  1.00  0.00     0.000 HD 
HETATM   15  H1  UNL     1      -5.269   9.172  64.550  1.00  0.00     0.000 HD 
HETATM   16  O   UNL     1      -7.654   9.449  64.073  1.00  0.00    -0.107 OA 
HETATM   17  N   UNL     1      -5.873   8.587  65.127  1.00  0.00    -0.048 N  
ENDBRANCH   4  13
BRANCH  11  18
HETATM   18  O   UNL     1      -9.614   9.130  69.576  1.00  0.00    -0.160 OA 
BRANCH  18  19
HETATM   19  C   UNL     1     -10.478  10.211  69.605  1.00  0.00    -0.252 A  
HETATM   20  C   UNL     1     -10.208  11.222  68.672  1.00  0.00    -0.214 A  
HETATM   21  C   UNL     1     -11.837  12.719  69.701  1.00  0.00    -0.317 A  
HETATM   22  C   UNL     1     -10.886  12.457  68.711  1.00  0.00    -0.263 A  
HETATM   23  C   UNL     1     -12.117  11.703  70.616  1.00  0.00    -0.335 A  
HETATM   24 CL   UNL     1     -13.275  11.939  71.889  1.00  0.00    -0.554 Cl 
HETATM   25  C   UNL     1     -11.455  10.473  70.561  1.00  0.00    -0.433 A  
BRANCH  21  26
HETATM   26  N   UNL     1     -12.496  13.958  69.864  1.00  0.00    -0.314 N  
HETATM   27  H   UNL     1     -13.506  13.958  69.718  1.00  0.00     0.000 HD 
BRANCH  26  28
HETATM   28  C   UNL     1     -11.928  15.157  70.197  1.00  0.00    -0.334 C  
HETATM   29  O   UNL     1     -11.870  16.139  69.464  1.00  0.00    -0.272 OA 
BRANCH  28  30
HETATM   30  N   UNL     1     -11.407  15.166  71.473  1.00  0.00    -0.510 N  
HETATM   31  H   UNL     1     -10.568  14.624  71.682  1.00  0.00     0.000 HD 
BRANCH  30  32
HETATM   32  C   UNL     1     -12.032  15.930  72.503  1.00  0.00    -0.517 C  
HETATM   33  C   UNL     1     -13.470  15.753  72.894  1.00  0.00    -0.666 C  
HETATM   34  C   UNL     1     -12.385  15.253  73.801  1.00  0.00    -0.731 C  
ENDBRANCH  30  32
ENDBRANCH  28  30
ENDBRANCH  26  28
ENDBRANCH  21  26
ENDBRANCH  18  19
ENDBRANCH  11  18
ENDBRANCH   2   3
TORSDOF 8
ENDMDL
MODEL       77
REMARK 921   NORMALIZED FREE ENERGY PREDICTED BY IDOCK:   -5.30 KCAL/MOL
REMARK 922        TOTAL FREE ENERGY PREDICTED BY IDOCK:   -9.31 KCAL/MOL
REMARK 923 INTER-LIGAND FREE ENERGY PREDICTED BY IDOCK:   -8.33 KCAL/MOL
REMARK 924 INTRA-LIGAND FREE ENERGY PREDICTED BY IDOCK:   -0.98 KCAL/MOL
REMARK 927      BINDING AFFINITY PREDICTED BY RF-SCORE:    0.00 PKD
ROOT
HETATM    1  C   UNL     1      -8.572  19.189  68.460  1.00  0.00    -0.363 C  
HETATM    2  O   UNL     1      -7.968  18.564  67.329  1.00  0.00    -0.233 OA 
ENDROOT
BRANCH   2   3
HETATM    3  C   UNL     1      -8.606  17.446  66.860  1.00  0.00    -0.249 A  
HETATM    4  C   UNL     1      -8.086  16.179  67.161  1.00  0.00    -0.223 A  
HETATM    5  N   UNL     1     -11.342  16.670  64.649  1.00  0.00    -0.782 NA 
HETATM    6  C   UNL     1      -8.706  15.029  66.623  1.00  0.00    -0.289 A  
HETATM    7  C   UNL     1     -10.320  16.427  65.470  1.00  0.00    -0.313 A  
HETATM    8  C   UNL     1      -9.832  15.132  65.762  1.00  0.00    -0.384 A  
HETATM    9  C   UNL     1     -11.875  15.634  63.995  1.00  0.00     0.068 A  
HETATM   10  C   UNL     1      -9.711  17.540  66.013  1.00  0.00    -0.160 A  
HETATM   11  C   UNL     1     -10.495  14.041  65.126  1.00  0.00    -0.397 A  
HETATM   12  C   UNL     1     -11.453  14.334  64.162  1.00  0.00    -0.149 A  
BRANCH   4  13
HETATM   13  C   UNL     1      -6.926  16.044  68.091  1.00  0.00    -0.122 C  
HETATM   14  H2  UNL     1      -8.124  16.297  69.784  1.00  0.00     0.000 HD 
HETATM   15  H1  UNL     1      -6.388  16.047  70.069  1.00  0.00     0.000 HD 
HETATM   16  O   UNL     1      -5.778  15.867  67.705  1.00  0.00    -0.137 OA 
HETATM   17  N   UNL     1      -7.180  16.140  69.434  1.00  0.00    -0.223 N  
ENDBRANCH   4  13
BRANCH  11  18
HETATM   18  O   UNL     1     -10.041  12.766  65.417  1.00  0.00    -0.286 OA 
BRANCH  18  19
HETATM   19  C   UNL     1     -10.631  11.929  66.349  1.00  0.00    -0.248 A  
HETATM   20  C   UNL     1     -11.382  12.570  67.344  1.00  0.00    -0.371 A  
HETATM   21  C   UNL     1     -11.622  10.499  68.611  1.00  0.00    -0.171 A  
HETATM   22  C   UNL     1     -11.881  11.863  68.456  1.00  0.00    -0.357 A  
HETATM   23  C   UNL     1     -10.891   9.860  67.609  1.00  0.00    -0.257 A  
HETATM   24 CL   UNL     1     -10.507   8.169  67.719  1.00  0.00    -0.291 Cl 
HETATM   25  C   UNL     1     -10.414  10.562  66.497  1.00  0.00    -0.276 A  
BRANCH  21  26
HETATM   26  N   UNL     1     -12.008   9.738  69.737  1.00  0.00    -0.448 N  
HETATM   27  H   UNL     1     -12.509   8.869  69.548  1.00  0.00     0.000 HD 
BRANCH  26  28
HETATM   28  C   UNL     1     -11.784  10.038  71.053  1.00  0.00    -0.392 C  
HETATM   29  O   UNL     1     -10.785   9.721  71.689  1.00  0.00    -0.130 OA 
BRANCH  28  30
HETATM   30  N   UNL     1     -12.817  10.752  71.622  1.00  0.00    -0.449 N  
HETATM   31  H   UNL     1     -13.734  10.318  71.730  1.00  0.00     0.000 HD 
BRANCH  30  32
HETATM   32  C   UNL     1     -12.611  12.094  72.062  1.00  0.00     0.190 C  
HETATM   33  C   UNL     1     -12.836  13.286  71.180  1.00  0.00    -0.363 C  
HETATM   34  C   UNL     1     -13.807  12.981  72.280  1.00  0.00    -0.529 C  
ENDBRANCH  30  32
ENDBRANCH  28  30
ENDBRANCH  26  28
ENDBRANCH  21  26
ENDBRANCH  18  19
ENDBRANCH  11  18
ENDBRANCH   2   3
TORSDOF 8
ENDMDL
MODEL       78
REMARK 921   NORMALIZED FREE ENERGY PREDICTED BY IDOCK:   -5.29 KCAL/MOL
REMARK 922        TOTAL FREE ENERGY PREDICTED BY IDOCK:   -9.30 KCAL/MOL
REMARK 923 INTER-LIGAND FREE ENERGY PREDICTED BY IDOCK:   -8.02 KCAL/MOL
REMARK 924 INTRA-LIGAND FREE ENERGY PREDICTED BY IDOCK:   -1.29 KCAL/MOL
REMARK 927      BINDING AFFINITY PREDICTED BY RF-SCORE:    0.00 PKD
ROOT
HETATM    1  C   UNL     1      -9.671   4.025  71.476  1.00  0.00    -0.176 C  
HETATM    2  O   UNL     1     -10.581   4.917  70.834  1.00  0.00    -0.147 OA 
ENDROOT
BRANCH   2   3
HETATM    3  C   UNL     1     -10.044   5.695  69.842  1.00  0.00    -0.222 A  
HETATM    4  C   UNL     1     -10.023   7.089  69.996  1.00  0.00    -0.188 A  
HETATM    5  N   UNL     1      -8.776   5.252  66.499  1.00  0.00    -0.115 NA 
HETATM    6  C   UNL     1      -9.531   7.895  68.945  1.00  0.00    -0.150 A  
HETATM    7  C   UNL     1      -9.130   5.916  67.601  1.00  0.00    -0.106 A  
HETATM    8  C   UNL     1      -9.080   7.323  67.724  1.00  0.00    -0.124 A  
HETATM    9  C   UNL     1      -8.443   5.968  65.421  1.00  0.00    -0.145 A  
HETATM   10  C   UNL     1      -9.602   5.141  68.640  1.00  0.00    -0.194 A  
HETATM   11  C   UNL     1      -8.618   8.050  66.587  1.00  0.00    -0.136 A  
HETATM   12  C   UNL     1      -8.403   7.344  65.409  1.00  0.00    -0.122 A  
BRANCH   4  13
HETATM   13  C   UNL     1     -10.458   7.710  71.282  1.00  0.00    -0.206 C  
HETATM   14  H2  UNL     1      -8.523   7.677  72.070  1.00  0.00     0.000 HD 
HETATM   15  H1  UNL     1      -9.795   8.353  73.111  1.00  0.00     0.000 HD 
HETATM   16  O   UNL     1     -11.621   8.013  71.517  1.00  0.00    -0.260 OA 
HETATM   17  N   UNL     1      -9.498   7.928  72.233  1.00  0.00    -0.172 N  
ENDBRANCH   4  13
BRANCH  11  18
HETATM   18  O   UNL     1      -8.545   9.427  66.700  1.00  0.00    -0.128 OA 
BRANCH  18  19
HETATM   19  C   UNL     1      -9.598  10.283  66.424  1.00  0.00    -0.185 A  
HETATM   20  C   UNL     1      -9.864  10.489  65.064  1.00  0.00    -0.369 A  
HETATM   21  C   UNL     1     -11.434  12.289  65.560  1.00  0.00    -0.361 A  
HETATM   22  C   UNL     1     -10.779  11.472  64.635  1.00  0.00    -0.379 A  
HETATM   23  C   UNL     1     -11.181  12.068  66.915  1.00  0.00    -0.320 A  
HETATM   24 CL   UNL     1     -11.938  13.041  68.138  1.00  0.00    -0.368 Cl 
HETATM   25  C   UNL     1     -10.287  11.079  67.334  1.00  0.00    -0.242 A  
BRANCH  21  26
HETATM   26  N   UNL     1     -12.296  13.353  65.212  1.00  0.00    -0.441 N  
HETATM   27  H   UNL     1     -13.277  13.246  65.470  1.00  0.00     0.000 HD 
BRANCH  26  28
HETATM   28  C   UNL     1     -11.958  14.512  64.569  1.00  0.00    -0.468 C  
HETATM   29  O   UNL     1     -12.745  15.255  63.992  1.00  0.00    -0.710 OA 
BRANCH  28  30
HETATM   30  N   UNL     1     -10.608  14.781  64.625  1.00  0.00    -0.590 N  
HETATM   31  H   UNL     1      -9.958  14.237  64.057  1.00  0.00     0.000 HD 
BRANCH  30  32
HETATM   32  C   UNL     1     -10.112  15.817  65.472  1.00  0.00    -0.351 C  
HETATM   33  C   UNL     1     -10.512  15.957  66.911  1.00  0.00    -0.309 C  
HETATM   34  C   UNL     1      -9.139  15.463  66.565  1.00  0.00    -0.334 C  
ENDBRANCH  30  32
ENDBRANCH  28  30
ENDBRANCH  26  28
ENDBRANCH  21  26
ENDBRANCH  18  19
ENDBRANCH  11  18
ENDBRANCH   2   3
TORSDOF 8
ENDMDL
MODEL       79
REMARK 921   NORMALIZED FREE ENERGY PREDICTED BY IDOCK:   -5.28 KCAL/MOL
REMARK 922        TOTAL FREE ENERGY PREDICTED BY IDOCK:   -9.28 KCAL/MOL
REMARK 923 INTER-LIGAND FREE ENERGY PREDICTED BY IDOCK:   -7.85 KCAL/MOL
REMARK 924 INTRA-LIGAND FREE ENERGY PREDICTED BY IDOCK:   -1.44 KCAL/MOL
REMARK 927      BINDING AFFINITY PREDICTED BY RF-SCORE:    0.00 PKD
ROOT
HETATM    1  C   UNL     1     -10.777  15.357  65.005  1.00  0.00    -0.438 C  
HETATM    2  O   UNL     1     -11.688  14.800  65.950  1.00  0.00    -0.336 OA 
ENDROOT
BRANCH   2   3
HETATM    3  C   UNL     1     -11.260  13.665  66.587  1.00  0.00    -0.313 A  
HETATM    4  C   UNL     1     -10.862  13.738  67.929  1.00  0.00    -0.257 A  
HETATM    5  N   UNL     1     -10.513  10.248  65.726  1.00  0.00    -0.150 NA 
HETATM    6  C   UNL     1     -10.357  12.582  68.566  1.00  0.00    -0.233 A  
HETATM    7  C   UNL     1     -10.621  11.321  66.510  1.00  0.00    -0.266 A  
HETATM    8  C   UNL     1     -10.222  11.352  67.866  1.00  0.00    -0.201 A  
HETATM    9  C   UNL     1      -9.906   9.168  66.229  1.00  0.00    -0.289 A  
HETATM   10  C   UNL     1     -11.123  12.455  65.905  1.00  0.00    -0.349 A  
HETATM   11  C   UNL     1      -9.676  10.147  68.400  1.00  0.00    -0.147 A  
HETATM   12  C   UNL     1      -9.436   9.097  67.521  1.00  0.00    -0.169 A  
BRANCH   4  13
HETATM   13  C   UNL     1     -11.027  15.008  68.695  1.00  0.00    -0.257 C  
HETATM   14  H2  UNL     1      -8.979  15.161  69.081  1.00  0.00     0.000 HD 
HETATM   15  H1  UNL     1     -10.011  16.452  69.736  1.00  0.00     0.000 HD 
HETATM   16  O   UNL     1     -12.115  15.537  68.884  1.00  0.00    -0.311 OA 
HETATM   17  N   UNL     1      -9.898  15.584  69.213  1.00  0.00    -0.252 N  
ENDBRANCH   4  13
BRANCH  11  18
HETATM   18  O   UNL     1      -9.300  10.156  69.732  1.00  0.00    -0.211 OA 
BRANCH  18  19
HETATM   19  C   UNL     1      -9.884   9.366  70.707  1.00  0.00    -0.279 A  
HETATM   20  C   UNL     1      -9.010   8.867  71.681  1.00  0.00    -0.243 A  
HETATM   21  C   UNL     1     -10.732   7.400  72.593  1.00  0.00    -0.288 A  
HETATM   22  C   UNL     1      -9.429   7.904  72.621  1.00  0.00    -0.284 A  
HETATM   23  C   UNL     1     -11.606   7.912  71.634  1.00  0.00    -0.272 A  
HETATM   24 CL   UNL     1     -13.241   7.338  71.513  1.00  0.00    -0.440 Cl 
HETATM   25  C   UNL     1     -11.189   8.882  70.716  1.00  0.00    -0.321 A  
BRANCH  21  26
HETATM   26  N   UNL     1     -11.206   6.372  73.439  1.00  0.00    -0.455 N  
HETATM   27  H   UNL     1     -11.621   6.667  74.323  1.00  0.00     0.000 HD 
BRANCH  26  28
HETATM   28  C   UNL     1     -11.170   5.025  73.203  1.00  0.00    -0.335 C  
HETATM   29  O   UNL     1     -12.107   4.253  73.372  1.00  0.00    -0.026 OA 
BRANCH  28  30
HETATM   30  N   UNL     1      -9.943   4.596  72.742  1.00  0.00    -0.149 N  
HETATM   31  H   UNL     1      -9.121   4.671  73.341  1.00  0.00     0.000 HD 
BRANCH  30  32
HETATM   32  C   UNL     1      -9.816   4.048  71.430  1.00  0.00    -0.179 C  
HETATM   33  C   UNL     1     -10.266   4.770  70.195  1.00  0.00    -0.259 C  
HETATM   34  C   UNL     1      -8.801   4.638  70.488  1.00  0.00    -0.141 C  
ENDBRANCH  30  32
ENDBRANCH  28  30
ENDBRANCH  26  28
ENDBRANCH  21  26
ENDBRANCH  18  19
ENDBRANCH  11  18
ENDBRANCH   2   3
TORSDOF 8
ENDMDL
MODEL       80
REMARK 921   NORMALIZED FREE ENERGY PREDICTED BY IDOCK:   -5.26 KCAL/MOL
REMARK 922        TOTAL FREE ENERGY PREDICTED BY IDOCK:   -9.25 KCAL/MOL
REMARK 923 INTER-LIGAND FREE ENERGY PREDICTED BY IDOCK:   -8.03 KCAL/MOL
REMARK 924 INTRA-LIGAND FREE ENERGY PREDICTED BY IDOCK:   -1.22 KCAL/MOL
REMARK 927      BINDING AFFINITY PREDICTED BY RF-SCORE:    0.00 PKD
ROOT
HETATM    1  C   UNL     1      -9.853  20.058  67.882  1.00  0.00    -0.406 C  
HETATM    2  O   UNL     1      -8.903  19.114  68.372  1.00  0.00    -0.322 OA 
ENDROOT
BRANCH   2   3
HETATM    3  C   UNL     1      -9.291  17.801  68.317  1.00  0.00    -0.288 A  
HETATM    4  C   UNL     1      -8.649  16.931  67.425  1.00  0.00    -0.214 A  
HETATM    5  N   UNL     1     -11.889  15.731  69.709  1.00  0.00    -0.351 NA 
HETATM    6  C   UNL     1      -9.094  15.593  67.321  1.00  0.00    -0.217 A  
HETATM    7  C   UNL     1     -10.824  16.030  68.964  1.00  0.00    -0.283 A  
HETATM    8  C   UNL     1     -10.194  15.119  68.085  1.00  0.00    -0.227 A  
HETATM    9  C   UNL     1     -12.445  14.527  69.544  1.00  0.00    -0.125 A  
HETATM   10  C   UNL     1     -10.372  17.330  69.064  1.00  0.00    -0.330 A  
HETATM   11  C   UNL     1     -10.752  13.808  68.014  1.00  0.00    -0.250 A  
HETATM   12  C   UNL     1     -11.948  13.574  68.684  1.00  0.00    -0.378 A  
BRANCH   4  13
HETATM   13  C   UNL     1      -7.469  17.396  66.638  1.00  0.00    -0.253 C  
HETATM   14  H2  UNL     1      -6.115  16.460  67.925  1.00  0.00     0.000 HD 
HETATM   15  H1  UNL     1      -5.422  17.346  66.549  1.00  0.00     0.000 HD 
HETATM   16  O   UNL     1      -7.567  18.090  65.634  1.00  0.00    -0.545 OA 
HETATM   17  N   UNL     1      -6.228  17.029  67.087  1.00  0.00    -0.156 N  
ENDBRANCH   4  13
BRANCH  11  18
HETATM   18  O   UNL     1     -10.134  12.900  67.173  1.00  0.00    -0.237 OA 
BRANCH  18  19
HETATM   19  C   UNL     1      -9.827  11.598  67.531  1.00  0.00    -0.188 A  
HETATM   20  C   UNL     1     -10.543  10.603  66.852  1.00  0.00    -0.311 A  
HETATM   21  C   UNL     1      -9.694   8.864  68.338  1.00  0.00    -0.161 A  
HETATM   22  C   UNL     1     -10.470   9.250  67.242  1.00  0.00    -0.334 A  
HETATM   23  C   UNL     1      -8.968   9.855  69.001  1.00  0.00    -0.160 A  
HETATM   24 CL   UNL     1      -7.985   9.474  70.381  1.00  0.00    -0.185 Cl 
HETATM   25  C   UNL     1      -9.029  11.192  68.597  1.00  0.00    -0.162 A  
BRANCH  21  26
HETATM   26  N   UNL     1      -9.636   7.548  68.848  1.00  0.00    -0.149 N  
HETATM   27  H   UNL     1      -8.709   7.128  68.918  1.00  0.00     0.000 HD 
BRANCH  26  28
HETATM   28  C   UNL     1     -10.687   6.775  69.259  1.00  0.00    -0.253 C  
HETATM   29  O   UNL     1     -11.376   6.073  68.527  1.00  0.00    -0.230 OA 
BRANCH  28  30
HETATM   30  N   UNL     1     -10.913   6.857  70.617  1.00  0.00    -0.252 N  
HETATM   31  H   UNL     1     -10.665   6.074  71.221  1.00  0.00     0.000 HD 
BRANCH  30  32
HETATM   32  C   UNL     1     -11.493   8.032  71.183  1.00  0.00    -0.276 C  
HETATM   33  C   UNL     1     -12.815   8.031  71.891  1.00  0.00    -0.343 C  
HETATM   34  C   UNL     1     -11.548   8.169  72.681  1.00  0.00    -0.441 C  
ENDBRANCH  30  32
ENDBRANCH  28  30
ENDBRANCH  26  28
ENDBRANCH  21  26
ENDBRANCH  18  19
ENDBRANCH  11  18
ENDBRANCH   2   3
TORSDOF 8
ENDMDL
MODEL       81
REMARK 921   NORMALIZED FREE ENERGY PREDICTED BY IDOCK:   -5.24 KCAL/MOL
REMARK 922        TOTAL FREE ENERGY PREDICTED BY IDOCK:   -9.23 KCAL/MOL
REMARK 923 INTER-LIGAND FREE ENERGY PREDICTED BY IDOCK:   -8.03 KCAL/MOL
REMARK 924 INTRA-LIGAND FREE ENERGY PREDICTED BY IDOCK:   -1.21 KCAL/MOL
REMARK 927      BINDING AFFINITY PREDICTED BY RF-SCORE:    0.00 PKD
ROOT
HETATM    1  C   UNL     1     -10.114   5.224  71.142  1.00  0.00    -0.217 C  
HETATM    2  O   UNL     1     -11.266   5.924  70.676  1.00  0.00    -0.294 OA 
ENDROOT
BRANCH   2   3
HETATM    3  C   UNL     1     -11.016   7.090  70.001  1.00  0.00    -0.270 A  
HETATM    4  C   UNL     1     -11.331   8.316  70.605  1.00  0.00    -0.257 A  
HETATM    5  N   UNL     1      -9.931   8.086  66.714  1.00  0.00    -0.256 NA 
HETATM    6  C   UNL     1     -11.135   9.514  69.883  1.00  0.00    -0.244 A  
HETATM    7  C   UNL     1     -10.355   8.247  67.968  1.00  0.00    -0.213 A  
HETATM    8  C   UNL     1     -10.649   9.502  68.548  1.00  0.00    -0.247 A  
HETATM    9  C   UNL     1      -9.868   9.171  65.935  1.00  0.00    -0.235 A  
HETATM   10  C   UNL     1     -10.540   7.085  68.689  1.00  0.00    -0.238 A  
HETATM   11  C   UNL     1     -10.468  10.648  67.718  1.00  0.00    -0.221 A  
HETATM   12  C   UNL     1     -10.173  10.439  66.376  1.00  0.00    -0.292 A  
BRANCH   4  13
HETATM   13  C   UNL     1     -11.809   8.356  72.018  1.00  0.00    -0.353 C  
HETATM   14  H2  UNL     1     -13.710   9.025  71.462  1.00  0.00     0.000 HD 
HETATM   15  H1  UNL     1     -13.426   8.789  73.201  1.00  0.00     0.000 HD 
HETATM   16  O   UNL     1     -11.101   8.059  72.972  1.00  0.00    -0.382 OA 
HETATM   17  N   UNL     1     -13.100   8.762  72.236  1.00  0.00    -0.396 N  
ENDBRANCH   4  13
BRANCH  11  18
HETATM   18  O   UNL     1     -10.732  11.886  68.279  1.00  0.00    -0.204 OA 
BRANCH  18  19
HETATM   19  C   UNL     1      -9.988  13.025  68.025  1.00  0.00    -0.233 A  
HETATM   20  C   UNL     1     -10.668  14.050  67.354  1.00  0.00    -0.285 A  
HETATM   21  C   UNL     1      -8.606  15.312  67.022  1.00  0.00    -0.227 A  
HETATM   22  C   UNL     1      -9.989  15.186  66.867  1.00  0.00    -0.243 A  
HETATM   23  C   UNL     1      -7.935  14.298  67.707  1.00  0.00    -0.168 A  
HETATM   24 CL   UNL     1      -6.214  14.360  67.937  1.00  0.00    -0.159 Cl 
HETATM   25  C   UNL     1      -8.616  13.183  68.204  1.00  0.00    -0.181 A  
BRANCH  21  26
HETATM   26  N   UNL     1      -7.839  16.371  66.488  1.00  0.00    -0.284 N  
HETATM   27  H   UNL     1      -7.439  16.220  65.561  1.00  0.00     0.000 HD 
BRANCH  26  28
HETATM   28  C   UNL     1      -7.573  17.577  67.077  1.00  0.00    -0.207 C  
HETATM   29  O   UNL     1      -6.875  17.738  68.072  1.00  0.00    -0.184 OA 
BRANCH  28  30
HETATM   30  N   UNL     1      -8.181  18.632  66.432  1.00  0.00    -0.286 N  
HETATM   31  H   UNL     1      -7.693  19.116  65.678  1.00  0.00     0.000 HD 
BRANCH  30  32
HETATM   32  C   UNL     1      -9.491  19.054  66.813  1.00  0.00    -0.329 C  
HETATM   33  C   UNL     1     -10.213  20.184  66.140  1.00  0.00    -0.518 C  
HETATM   34  C   UNL     1     -10.645  18.770  65.890  1.00  0.00    -0.405 C  
ENDBRANCH  30  32
ENDBRANCH  28  30
ENDBRANCH  26  28
ENDBRANCH  21  26
ENDBRANCH  18  19
ENDBRANCH  11  18
ENDBRANCH   2   3
TORSDOF 8
ENDMDL
MODEL       82
REMARK 921   NORMALIZED FREE ENERGY PREDICTED BY IDOCK:   -5.24 KCAL/MOL
REMARK 922        TOTAL FREE ENERGY PREDICTED BY IDOCK:   -9.23 KCAL/MOL
REMARK 923 INTER-LIGAND FREE ENERGY PREDICTED BY IDOCK:   -7.75 KCAL/MOL
REMARK 924 INTRA-LIGAND FREE ENERGY PREDICTED BY IDOCK:   -1.48 KCAL/MOL
REMARK 927      BINDING AFFINITY PREDICTED BY RF-SCORE:    0.00 PKD
ROOT
HETATM    1  C   UNL     1      -7.490   6.378  67.277  1.00  0.00    -0.088 C  
HETATM    2  O   UNL     1      -7.268   7.744  67.623  1.00  0.00    -0.086 OA 
ENDROOT
BRANCH   2   3
HETATM    3  C   UNL     1      -8.394   8.473  67.906  1.00  0.00    -0.126 A  
HETATM    4  C   UNL     1      -8.865   9.403  66.969  1.00  0.00    -0.139 A  
HETATM    5  N   UNL     1     -10.602   8.985  70.706  1.00  0.00    -0.221 NA 
HETATM    6  C   UNL     1      -9.986  10.201  67.289  1.00  0.00    -0.241 A  
HETATM    7  C   UNL     1     -10.119   9.158  69.475  1.00  0.00    -0.197 A  
HETATM    8  C   UNL     1     -10.631  10.098  68.551  1.00  0.00    -0.245 A  
HETATM    9  C   UNL     1     -11.567   9.813  71.118  1.00  0.00    -0.392 A  
HETATM   10  C   UNL     1      -9.031   8.377  69.144  1.00  0.00    -0.147 A  
HETATM   11  C   UNL     1     -11.732  10.892  68.990  1.00  0.00    -0.320 A  
HETATM   12  C   UNL     1     -12.112  10.796  70.323  1.00  0.00    -0.433 A  
BRANCH   4  13
HETATM   13  C   UNL     1      -8.226   9.505  65.624  1.00  0.00    -0.120 C  
HETATM   14  H2  UNL     1      -9.436   8.001  64.823  1.00  0.00     0.000 HD 
HETATM   15  H1  UNL     1      -8.250   8.738  63.723  1.00  0.00     0.000 HD 
HETATM   16  O   UNL     1      -7.316  10.284  65.374  1.00  0.00    -0.139 OA 
HETATM   17  N   UNL     1      -8.686   8.668  64.642  1.00  0.00    -0.094 N  
ENDBRANCH   4  13
BRANCH  11  18
HETATM   18  O   UNL     1     -12.257  11.802  68.089  1.00  0.00    -0.507 OA 
BRANCH  18  19
HETATM   19  C   UNL     1     -11.753  13.077  67.895  1.00  0.00    -0.357 A  
HETATM   20  C   UNL     1     -11.699  13.883  69.040  1.00  0.00    -0.378 A  
HETATM   21  C   UNL     1     -11.141  15.859  67.723  1.00  0.00    -0.288 A  
HETATM   22  C   UNL     1     -11.386  15.255  68.959  1.00  0.00    -0.311 A  
HETATM   23  C   UNL     1     -11.177  15.050  66.586  1.00  0.00    -0.311 A  
HETATM   24 CL   UNL     1     -10.899  15.713  65.006  1.00  0.00    -0.452 Cl 
HETATM   25  C   UNL     1     -11.470  13.686  66.676  1.00  0.00    -0.365 A  
BRANCH  21  26
HETATM   26  N   UNL     1     -10.908  17.241  67.545  1.00  0.00    -0.269 N  
HETATM   27  H   UNL     1     -11.615  17.757  67.020  1.00  0.00     0.000 HD 
BRANCH  26  28
HETATM   28  C   UNL     1      -9.839  17.964  68.000  1.00  0.00    -0.320 C  
HETATM   29  O   UNL     1      -9.840  18.672  69.001  1.00  0.00    -0.363 OA 
BRANCH  28  30
HETATM   30  N   UNL     1      -8.722  17.823  67.205  1.00  0.00    -0.234 N  
HETATM   31  H   UNL     1      -8.747  18.135  66.234  1.00  0.00     0.000 HD 
BRANCH  30  32
HETATM   32  C   UNL     1      -7.528  17.245  67.732  1.00  0.00    -0.176 C  
HETATM   33  C   UNL     1      -7.534  16.113  68.717  1.00  0.00    -0.189 C  
HETATM   34  C   UNL     1      -7.135  15.859  67.295  1.00  0.00    -0.242 C  
ENDBRANCH  30  32
ENDBRANCH  28  30
ENDBRANCH  26  28
ENDBRANCH  21  26
ENDBRANCH  18  19
ENDBRANCH  11  18
ENDBRANCH   2   3
TORSDOF 8
ENDMDL
MODEL       83
REMARK 921   NORMALIZED FREE ENERGY PREDICTED BY IDOCK:   -5.24 KCAL/MOL
REMARK 922        TOTAL FREE ENERGY PREDICTED BY IDOCK:   -9.22 KCAL/MOL
REMARK 923 INTER-LIGAND FREE ENERGY PREDICTED BY IDOCK:   -7.94 KCAL/MOL
REMARK 924 INTRA-LIGAND FREE ENERGY PREDICTED BY IDOCK:   -1.29 KCAL/MOL
REMARK 927      BINDING AFFINITY PREDICTED BY RF-SCORE:    0.00 PKD
ROOT
HETATM    1  C   UNL     1      -8.535   4.623  68.888  1.00  0.00    -0.080 C  
HETATM    2  O   UNL     1      -8.569   5.931  69.457  1.00  0.00    -0.115 OA 
ENDROOT
BRANCH   2   3
HETATM    3  C   UNL     1      -8.908   6.942  68.597  1.00  0.00    -0.124 A  
HETATM    4  C   UNL     1     -10.082   7.674  68.824  1.00  0.00    -0.202 A  
HETATM    5  N   UNL     1      -7.738   8.278  65.463  1.00  0.00    -0.096 NA 
HETATM    6  C   UNL     1     -10.466   8.672  67.900  1.00  0.00    -0.269 A  
HETATM    7  C   UNL     1      -8.528   8.166  66.531  1.00  0.00    -0.130 A  
HETATM    8  C   UNL     1      -9.698   8.933  66.733  1.00  0.00    -0.282 A  
HETATM    9  C   UNL     1      -8.129   9.101  64.485  1.00  0.00    -0.139 A  
HETATM   10  C   UNL     1      -8.160   7.202  67.448  1.00  0.00    -0.112 A  
HETATM   11  C   UNL     1     -10.027   9.878  65.716  1.00  0.00    -0.277 A  
HETATM   12  C   UNL     1      -9.273   9.864  64.548  1.00  0.00    -0.315 A  
BRANCH   4  13
HETATM   13  C   UNL     1     -10.885   7.443  70.061  1.00  0.00    -0.252 C  
HETATM   14  H2  UNL     1      -9.949   9.006  71.083  1.00  0.00     0.000 HD 
HETATM   15  H1  UNL     1     -11.196   8.107  71.975  1.00  0.00     0.000 HD 
HETATM   16  O   UNL     1     -11.723   6.555  70.156  1.00  0.00    -0.418 OA 
HETATM   17  N   UNL     1     -10.647   8.265  71.130  1.00  0.00    -0.209 N  
ENDBRANCH   4  13
BRANCH  11  18
HETATM   18  O   UNL     1     -11.158  10.651  65.909  1.00  0.00     0.054 OA 
BRANCH  18  19
HETATM   19  C   UNL     1     -11.142  11.926  66.449  1.00  0.00    -0.309 A  
HETATM   20  C   UNL     1     -11.644  12.033  67.753  1.00  0.00    -0.400 A  
HETATM   21  C   UNL     1     -11.599  14.471  67.656  1.00  0.00    -0.378 A  
HETATM   22  C   UNL     1     -11.860  13.289  68.355  1.00  0.00    -0.395 A  
HETATM   23  C   UNL     1     -11.082  14.360  66.365  1.00  0.00    -0.326 A  
HETATM   24 CL   UNL     1     -10.738  15.771  65.413  1.00  0.00    -0.404 Cl 
HETATM   25  C   UNL     1     -10.852  13.111  65.779  1.00  0.00    -0.289 A  
BRANCH  21  26
HETATM   26  N   UNL     1     -11.870  15.765  68.152  1.00  0.00    -0.344 N  
HETATM   27  H   UNL     1     -12.626  16.277  67.696  1.00  0.00     0.000 HD 
BRANCH  26  28
HETATM   28  C   UNL     1     -11.231  16.407  69.177  1.00  0.00    -0.275 C  
HETATM   29  O   UNL     1     -11.555  16.349  70.358  1.00  0.00    -0.256 OA 
BRANCH  28  30
HETATM   30  N   UNL     1     -10.154  17.154  68.751  1.00  0.00    -0.311 N  
HETATM   31  H   UNL     1      -9.265  16.695  68.553  1.00  0.00     0.000 HD 
BRANCH  30  32
HETATM   32  C   UNL     1     -10.273  18.567  68.586  1.00  0.00    -0.325 C  
HETATM   33  C   UNL     1      -9.278  19.387  67.819  1.00  0.00    -0.382 C  
HETATM   34  C   UNL     1     -10.630  19.115  67.230  1.00  0.00    -0.573 C  
ENDBRANCH  30  32
ENDBRANCH  28  30
ENDBRANCH  26  28
ENDBRANCH  21  26
ENDBRANCH  18  19
ENDBRANCH  11  18
ENDBRANCH   2   3
TORSDOF 8
ENDMDL
MODEL       84
REMARK 921   NORMALIZED FREE ENERGY PREDICTED BY IDOCK:   -5.23 KCAL/MOL
REMARK 922        TOTAL FREE ENERGY PREDICTED BY IDOCK:   -9.21 KCAL/MOL
REMARK 923 INTER-LIGAND FREE ENERGY PREDICTED BY IDOCK:   -8.12 KCAL/MOL
REMARK 924 INTRA-LIGAND FREE ENERGY PREDICTED BY IDOCK:   -1.09 KCAL/MOL
REMARK 927      BINDING AFFINITY PREDICTED BY RF-SCORE:    0.00 PKD
ROOT
HETATM    1  C   UNL     1      -6.956   5.540  68.218  1.00  0.00    -0.061 C  
HETATM    2  O   UNL     1      -8.292   5.578  67.721  1.00  0.00    -0.101 OA 
ENDROOT
BRANCH   2   3
HETATM    3  C   UNL     1      -8.647   6.729  67.067  1.00  0.00    -0.114 A  
HETATM    4  C   UNL     1      -9.646   7.548  67.610  1.00  0.00    -0.171 A  
HETATM    5  N   UNL     1      -7.923   8.341  63.928  1.00  0.00    -0.147 NA 
HETATM    6  C   UNL     1     -10.059   8.700  66.903  1.00  0.00    -0.355 A  
HETATM    7  C   UNL     1      -8.504   8.173  65.117  1.00  0.00    -0.116 A  
HETATM    8  C   UNL     1      -9.499   9.030  65.639  1.00  0.00    -0.273 A  
HETATM    9  C   UNL     1      -8.377   9.328  63.149  1.00  0.00    -0.196 A  
HETATM   10  C   UNL     1      -8.103   7.058  65.825  1.00  0.00    -0.123 A  
HETATM   11  C   UNL     1      -9.883  10.136  64.823  1.00  0.00    -0.312 A  
HETATM   12  C   UNL     1      -9.373  10.198  63.531  1.00  0.00    -0.333 A  
BRANCH   4  13
HETATM   13  C   UNL     1     -10.224   7.241  68.952  1.00  0.00    -0.193 C  
HETATM   14  H2  UNL     1     -11.638   5.925  68.154  1.00  0.00     0.000 HD 
HETATM   15  H1  UNL     1     -11.663   6.146  69.918  1.00  0.00     0.000 HD 
HETATM   16  O   UNL     1      -9.815   7.750  69.987  1.00  0.00    -0.179 OA 
HETATM   17  N   UNL     1     -11.269   6.356  69.001  1.00  0.00    -0.353 N  
ENDBRANCH   4  13
BRANCH  11  18
HETATM   18  O   UNL     1     -10.842  10.996  65.330  1.00  0.00    -0.210 OA 
BRANCH  18  19
HETATM   19  C   UNL     1     -10.603  12.323  65.642  1.00  0.00    -0.260 A  
HETATM   20  C   UNL     1     -11.429  13.251  64.993  1.00  0.00    -0.329 A  
HETATM   21  C   UNL     1     -10.082  15.125  65.783  1.00  0.00    -0.346 A  
HETATM   22  C   UNL     1     -11.180  14.636  65.071  1.00  0.00    -0.388 A  
HETATM   23  C   UNL     1      -9.272  14.200  66.443  1.00  0.00    -0.183 A  
HETATM   24 CL   UNL     1      -7.877  14.711  67.343  1.00  0.00    -0.212 Cl 
HETATM   25  C   UNL     1      -9.536  12.828  66.378  1.00  0.00    -0.229 A  
BRANCH  21  26
HETATM   26  N   UNL     1      -9.711  16.487  65.838  1.00  0.00    -0.297 N  
HETATM   27  H   UNL     1      -8.719  16.683  65.979  1.00  0.00     0.000 HD 
BRANCH  26  28
HETATM   28  C   UNL     1     -10.535  17.573  65.721  1.00  0.00    -0.207 C  
HETATM   29  O   UNL     1     -11.043  17.965  64.676  1.00  0.00    -0.713 OA 
BRANCH  28  30
HETATM   30  N   UNL     1     -10.752  18.211  66.923  1.00  0.00    -0.293 N  
HETATM   31  H   UNL     1     -11.642  18.091  67.408  1.00  0.00     0.000 HD 
BRANCH  30  32
HETATM   32  C   UNL     1      -9.741  19.040  67.494  1.00  0.00    -0.314 C  
HETATM   33  C   UNL     1      -9.720  20.532  67.335  1.00  0.00    -0.587 C  
HETATM   34  C   UNL     1     -10.097  19.931  68.655  1.00  0.00    -0.518 C  
ENDBRANCH  30  32
ENDBRANCH  28  30
ENDBRANCH  26  28
ENDBRANCH  21  26
ENDBRANCH  18  19
ENDBRANCH  11  18
ENDBRANCH   2   3
TORSDOF 8
ENDMDL
MODEL       85
REMARK 921   NORMALIZED FREE ENERGY PREDICTED BY IDOCK:   -5.23 KCAL/MOL
REMARK 922        TOTAL FREE ENERGY PREDICTED BY IDOCK:   -9.20 KCAL/MOL
REMARK 923 INTER-LIGAND FREE ENERGY PREDICTED BY IDOCK:   -8.50 KCAL/MOL
REMARK 924 INTRA-LIGAND FREE ENERGY PREDICTED BY IDOCK:   -0.70 KCAL/MOL
REMARK 927      BINDING AFFINITY PREDICTED BY RF-SCORE:    0.00 PKD
ROOT
HETATM    1  C   UNL     1     -10.587  19.160  66.738  1.00  0.00    -0.439 C  
HETATM    2  O   UNL     1     -10.438  18.159  65.733  1.00  0.00    -0.584 OA 
ENDROOT
BRANCH   2   3
HETATM    3  C   UNL     1      -9.819  17.004  66.135  1.00  0.00    -0.278 A  
HETATM    4  C   UNL     1     -10.282  15.772  65.654  1.00  0.00    -0.407 A  
HETATM    5  N   UNL     1      -7.273  16.027  68.488  1.00  0.00    -0.132 NA 
HETATM    6  C   UNL     1      -9.687  14.578  66.119  1.00  0.00    -0.340 A  
HETATM    7  C   UNL     1      -8.213  15.861  67.556  1.00  0.00    -0.159 A  
HETATM    8  C   UNL     1      -8.644  14.600  67.085  1.00  0.00    -0.244 A  
HETATM    9  C   UNL     1      -6.777  14.932  69.073  1.00  0.00    -0.117 A  
HETATM   10  C   UNL     1      -8.796  17.019  67.084  1.00  0.00    -0.232 A  
HETATM   11  C   UNL     1      -8.016  13.455  67.657  1.00  0.00    -0.174 A  
HETATM   12  C   UNL     1      -7.154  13.653  68.729  1.00  0.00    -0.103 A  
BRANCH   4  13
HETATM   13  C   UNL     1     -11.352  15.724  64.614  1.00  0.00    -0.337 C  
HETATM   14  H2  UNL     1     -12.105  13.910  65.326  1.00  0.00     0.000 HD 
HETATM   15  H1  UNL     1     -12.931  14.617  63.920  1.00  0.00     0.000 HD 
HETATM   16  O   UNL     1     -11.488  16.587  63.756  1.00  0.00    -1.065 OA 
HETATM   17  N   UNL     1     -12.200  14.649  64.630  1.00  0.00    -0.458 N  
ENDBRANCH   4  13
BRANCH  11  18
HETATM   18  O   UNL     1      -8.413  12.214  67.190  1.00  0.00    -0.170 OA 
BRANCH  18  19
HETATM   19  C   UNL     1      -9.028  11.253  67.975  1.00  0.00    -0.156 A  
HETATM   20  C   UNL     1      -8.650   9.929  67.711  1.00  0.00    -0.121 A  
HETATM   21  C   UNL     1     -10.413   9.052  69.151  1.00  0.00    -0.225 A  
HETATM   22  C   UNL     1      -9.326   8.841  68.300  1.00  0.00    -0.143 A  
HETATM   23  C   UNL     1     -10.775  10.372  69.427  1.00  0.00    -0.244 A  
HETATM   24 CL   UNL     1     -12.121  10.734  70.463  1.00  0.00    -0.424 Cl 
HETATM   25  C   UNL     1     -10.089  11.448  68.854  1.00  0.00    -0.166 A  
BRANCH  21  26
HETATM   26  N   UNL     1     -11.199   8.020  69.710  1.00  0.00    -0.451 N  
HETATM   27  H   UNL     1     -11.871   8.297  70.426  1.00  0.00     0.000 HD 
BRANCH  26  28
HETATM   28  C   UNL     1     -11.157   6.689  69.397  1.00  0.00    -0.310 C  
HETATM   29  O   UNL     1     -11.327   6.221  68.276  1.00  0.00    -0.289 OA 
BRANCH  28  30
HETATM   30  N   UNL     1     -10.899   5.890  70.490  1.00  0.00    -0.291 N  
HETATM   31  H   UNL     1     -11.670   5.444  70.987  1.00  0.00     0.000 HD 
BRANCH  30  32
HETATM   32  C   UNL     1      -9.558   5.682  70.933  1.00  0.00    -0.169 C  
HETATM   33  C   UNL     1      -8.735   6.757  71.581  1.00  0.00    -0.126 C  
HETATM   34  C   UNL     1      -9.277   5.632  72.411  1.00  0.00    -0.151 C  
ENDBRANCH  30  32
ENDBRANCH  28  30
ENDBRANCH  26  28
ENDBRANCH  21  26
ENDBRANCH  18  19
ENDBRANCH  11  18
ENDBRANCH   2   3
TORSDOF 8
ENDMDL
MODEL       86
REMARK 921   NORMALIZED FREE ENERGY PREDICTED BY IDOCK:   -5.22 KCAL/MOL
REMARK 922        TOTAL FREE ENERGY PREDICTED BY IDOCK:   -9.20 KCAL/MOL
REMARK 923 INTER-LIGAND FREE ENERGY PREDICTED BY IDOCK:   -8.69 KCAL/MOL
REMARK 924 INTRA-LIGAND FREE ENERGY PREDICTED BY IDOCK:   -0.51 KCAL/MOL
REMARK 927      BINDING AFFINITY PREDICTED BY RF-SCORE:    0.00 PKD
ROOT
HETATM    1  C   UNL     1     -11.159   6.050  69.944  1.00  0.00    -0.399 C  
HETATM    2  O   UNL     1     -11.205   7.173  70.822  1.00  0.00    -0.259 OA 
ENDROOT
BRANCH   2   3
HETATM    3  C   UNL     1     -10.865   8.377  70.262  1.00  0.00    -0.239 A  
HETATM    4  C   UNL     1     -11.688   9.491  70.475  1.00  0.00    -0.285 A  
HETATM    5  N   UNL     1      -8.403   9.643  67.958  1.00  0.00    -0.117 NA 
HETATM    6  C   UNL     1     -11.374  10.716  69.843  1.00  0.00    -0.386 A  
HETATM    7  C   UNL     1      -9.457   9.684  68.774  1.00  0.00    -0.148 A  
HETATM    8  C   UNL     1     -10.255  10.833  68.975  1.00  0.00    -0.229 A  
HETATM    9  C   UNL     1      -8.145  10.727  67.220  1.00  0.00    -0.117 A  
HETATM   10  C   UNL     1      -9.769   8.499  69.407  1.00  0.00    -0.177 A  
HETATM   11  C   UNL     1      -9.885  12.005  68.250  1.00  0.00    -0.204 A  
HETATM   12  C   UNL     1      -8.880  11.888  67.296  1.00  0.00    -0.179 A  
BRANCH   4  13
HETATM   13  C   UNL     1     -12.849   9.402  71.410  1.00  0.00    -0.345 C  
HETATM   14  H2  UNL     1     -13.526   7.617  70.559  1.00  0.00     0.000 HD 
HETATM   15  H1  UNL     1     -14.480   8.267  71.911  1.00  0.00     0.000 HD 
HETATM   16  O   UNL     1     -13.080  10.242  72.269  1.00  0.00    -0.396 OA 
HETATM   17  N   UNL     1     -13.688   8.328  71.272  1.00  0.00    -0.197 N  
ENDBRANCH   4  13
BRANCH  11  18
HETATM   18  O   UNL     1     -10.645  13.143  68.452  1.00  0.00    -0.239 OA 
BRANCH  18  19
HETATM   19  C   UNL     1     -10.472  14.324  67.751  1.00  0.00    -0.245 A  
HETATM   20  C   UNL     1      -9.920  15.383  68.484  1.00  0.00    -0.213 A  
HETATM   21  C   UNL     1     -10.371  16.970  66.687  1.00  0.00    -0.299 A  
HETATM   22  C   UNL     1      -9.860  16.689  67.957  1.00  0.00    -0.245 A  
HETATM   23  C   UNL     1     -10.902  15.910  65.952  1.00  0.00    -0.233 A  
HETATM   24 CL   UNL     1     -11.573  16.163  64.370  1.00  0.00    -0.321 Cl 
HETATM   25  C   UNL     1     -10.942  14.613  66.474  1.00  0.00    -0.318 A  
BRANCH  21  26
HETATM   26  N   UNL     1     -10.430  18.263  66.121  1.00  0.00    -0.420 N  
HETATM   27  H   UNL     1     -10.660  18.315  65.128  1.00  0.00     0.000 HD 
BRANCH  26  28
HETATM   28  C   UNL     1     -10.214  19.454  66.759  1.00  0.00    -0.420 C  
HETATM   29  O   UNL     1     -10.775  19.817  67.787  1.00  0.00    -0.407 OA 
BRANCH  28  30
HETATM   30  N   UNL     1      -9.278  20.240  66.121  1.00  0.00    -0.621 N  
HETATM   31  H   UNL     1      -9.582  20.950  65.454  1.00  0.00     0.000 HD 
BRANCH  30  32
HETATM   32  C   UNL     1      -7.887  20.068  66.388  1.00  0.00    -0.300 C  
HETATM   33  C   UNL     1      -7.116  20.959  67.316  1.00  0.00    -0.430 C  
HETATM   34  C   UNL     1      -7.461  19.563  67.740  1.00  0.00    -0.304 C  
ENDBRANCH  30  32
ENDBRANCH  28  30
ENDBRANCH  26  28
ENDBRANCH  21  26
ENDBRANCH  18  19
ENDBRANCH  11  18
ENDBRANCH   2   3
TORSDOF 8
ENDMDL
MODEL       87
REMARK 921   NORMALIZED FREE ENERGY PREDICTED BY IDOCK:   -5.22 KCAL/MOL
REMARK 922        TOTAL FREE ENERGY PREDICTED BY IDOCK:   -9.20 KCAL/MOL
REMARK 923 INTER-LIGAND FREE ENERGY PREDICTED BY IDOCK:   -8.14 KCAL/MOL
REMARK 924 INTRA-LIGAND FREE ENERGY PREDICTED BY IDOCK:   -1.06 KCAL/MOL
REMARK 927      BINDING AFFINITY PREDICTED BY RF-SCORE:    0.00 PKD
ROOT
HETATM    1  C   UNL     1     -10.619  19.210  65.850  1.00  0.00    -0.415 C  
HETATM    2  O   UNL     1      -9.763  18.070  65.900  1.00  0.00    -0.530 OA 
ENDROOT
BRANCH   2   3
HETATM    3  C   UNL     1     -10.396  16.857  65.974  1.00  0.00    -0.325 A  
HETATM    4  C   UNL     1     -10.358  16.133  67.174  1.00  0.00    -0.291 A  
HETATM    5  N   UNL     1     -12.081  14.591  63.738  1.00  0.00    -0.462 NA 
HETATM    6  C   UNL     1     -10.953  14.853  67.230  1.00  0.00    -0.323 A  
HETATM    7  C   UNL     1     -11.575  15.028  64.892  1.00  0.00    -0.374 A  
HETATM    8  C   UNL     1     -11.568  14.273  66.087  1.00  0.00    -0.374 A  
HETATM    9  C   UNL     1     -12.525  13.331  63.691  1.00  0.00    -0.269 A  
HETATM   10  C   UNL     1     -10.999  16.282  64.855  1.00  0.00    -0.321 A  
HETATM   11  C   UNL     1     -12.148  12.971  66.026  1.00  0.00    -0.432 A  
HETATM   12  C   UNL     1     -12.527  12.487  64.779  1.00  0.00    -0.532 A  
BRANCH   4  13
HETATM   13  C   UNL     1      -9.749  16.736  68.397  1.00  0.00    -0.247 C  
HETATM   14  H2  UNL     1      -8.005  15.600  68.211  1.00  0.00     0.000 HD 
HETATM   15  H1  UNL     1      -8.085  16.716  69.592  1.00  0.00     0.000 HD 
HETATM   16  O   UNL     1     -10.320  17.574  69.082  1.00  0.00    -0.349 OA 
HETATM   17  N   UNL     1      -8.500  16.305  68.757  1.00  0.00    -0.227 N  
ENDBRANCH   4  13
BRANCH  11  18
HETATM   18  O   UNL     1     -12.167  12.229  67.194  1.00  0.00    -0.506 OA 
BRANCH  18  19
HETATM   19  C   UNL     1     -11.212  11.283  67.525  1.00  0.00    -0.291 A  
HETATM   20  C   UNL     1     -10.684  10.559  66.448  1.00  0.00    -0.166 A  
HETATM   21  C   UNL     1      -9.535   9.012  67.944  1.00  0.00    -0.141 A  
HETATM   22  C   UNL     1      -9.846   9.444  66.652  1.00  0.00    -0.309 A  
HETATM   23  C   UNL     1     -10.048   9.746  69.015  1.00  0.00    -0.187 A  
HETATM   24 CL   UNL     1      -9.727   9.280  70.657  1.00  0.00    -0.309 Cl 
HETATM   25  C   UNL     1     -10.863  10.863  68.805  1.00  0.00    -0.251 A  
BRANCH  21  26
HETATM   26  N   UNL     1      -8.779   7.856  68.237  1.00  0.00    -0.130 N  
HETATM   27  H   UNL     1      -9.287   6.971  68.246  1.00  0.00     0.000 HD 
BRANCH  26  28
HETATM   28  C   UNL     1      -7.439   7.792  68.508  1.00  0.00    -0.103 C  
HETATM   29  O   UNL     1      -6.905   6.961  69.235  1.00  0.00    -0.054 OA 
BRANCH  28  30
HETATM   30  N   UNL     1      -6.717   8.778  67.872  1.00  0.00    -0.065 N  
HETATM   31  H   UNL     1      -6.733   9.732  68.233  1.00  0.00     0.000 HD 
BRANCH  30  32
HETATM   32  C   UNL     1      -5.946   8.475  66.710  1.00  0.00    -0.053 C  
HETATM   33  C   UNL     1      -6.368   7.457  65.692  1.00  0.00    -0.041 C  
HETATM   34  C   UNL     1      -6.451   8.917  65.363  1.00  0.00    -0.067 C  
ENDBRANCH  30  32
ENDBRANCH  28  30
ENDBRANCH  26  28
ENDBRANCH  21  26
ENDBRANCH  18  19
ENDBRANCH  11  18
ENDBRANCH   2   3
TORSDOF 8
ENDMDL
MODEL       88
REMARK 921   NORMALIZED FREE ENERGY PREDICTED BY IDOCK:   -5.21 KCAL/MOL
REMARK 922        TOTAL FREE ENERGY PREDICTED BY IDOCK:   -9.18 KCAL/MOL
REMARK 923 INTER-LIGAND FREE ENERGY PREDICTED BY IDOCK:   -7.92 KCAL/MOL
REMARK 924 INTRA-LIGAND FREE ENERGY PREDICTED BY IDOCK:   -1.26 KCAL/MOL
REMARK 927      BINDING AFFINITY PREDICTED BY RF-SCORE:    0.00 PKD
ROOT
HETATM    1  C   UNL     1      -8.219   7.843  62.406  1.00  0.00    -0.141 C  
HETATM    2  O   UNL     1      -7.628   9.089  62.769  1.00  0.00    -0.103 OA 
ENDROOT
BRANCH   2   3
HETATM    3  C   UNL     1      -8.400   9.902  63.557  1.00  0.00    -0.166 A  
HETATM    4  C   UNL     1      -8.050  10.090  64.902  1.00  0.00    -0.154 A  
HETATM    5  N   UNL     1     -11.517  11.689  63.297  1.00  0.00    -0.270 NA 
HETATM    6  C   UNL     1      -8.882  10.874  65.732  1.00  0.00    -0.202 A  
HETATM    7  C   UNL     1     -10.407  11.235  63.880  1.00  0.00    -0.381 A  
HETATM    8  C   UNL     1     -10.080  11.457  65.237  1.00  0.00    -0.315 A  
HETATM    9  C   UNL     1     -12.414  12.311  64.067  1.00  0.00    -0.458 A  
HETATM   10  C   UNL     1      -9.578  10.476  63.078  1.00  0.00    -0.369 A  
HETATM   11  C   UNL     1     -11.012  12.218  66.003  1.00  0.00    -0.292 A  
HETATM   12  C   UNL     1     -12.227  12.545  65.411  1.00  0.00    -0.475 A  
BRANCH   4  13
HETATM   13  C   UNL     1      -6.778   9.517  65.435  1.00  0.00    -0.081 C  
HETATM   14  H2  UNL     1      -7.731   7.795  66.137  1.00  0.00     0.000 HD 
HETATM   15  H1  UNL     1      -5.978   7.903  66.412  1.00  0.00     0.000 HD 
HETATM   16  O   UNL     1      -5.702  10.094  65.357  1.00  0.00    -0.071 OA 
HETATM   17  N   UNL     1      -6.846   8.294  66.048  1.00  0.00    -0.063 N  
ENDBRANCH   4  13
BRANCH  11  18
HETATM   18  O   UNL     1     -10.696  12.461  67.328  1.00  0.00    -0.224 OA 
BRANCH  18  19
HETATM   19  C   UNL     1     -10.966  11.581  68.362  1.00  0.00    -0.221 A  
HETATM   20  C   UNL     1     -12.252  11.675  68.912  1.00  0.00    -0.112 A  
HETATM   21  C   UNL     1     -11.665  10.180  70.748  1.00  0.00    -0.357 A  
HETATM   22  C   UNL     1     -12.603  10.975  70.084  1.00  0.00    -0.281 A  
HETATM   23  C   UNL     1     -10.392  10.073  70.188  1.00  0.00    -0.266 A  
HETATM   24 CL   UNL     1      -9.155   9.119  70.948  1.00  0.00    -0.306 Cl 
HETATM   25  C   UNL     1     -10.055  10.755  69.014  1.00  0.00    -0.225 A  
BRANCH  21  26
HETATM   26  N   UNL     1     -11.907   9.518  71.973  1.00  0.00    -0.274 N  
HETATM   27  H   UNL     1     -11.589   9.995  72.817  1.00  0.00     0.000 HD 
BRANCH  26  28
HETATM   28  C   UNL     1     -12.523   8.310  72.151  1.00  0.00    -0.352 C  
HETATM   29  O   UNL     1     -13.669   8.043  71.807  1.00  0.00    -0.348 OA 
BRANCH  28  30
HETATM   30  N   UNL     1     -11.713   7.384  72.773  1.00  0.00    -0.560 N  
HETATM   31  H   UNL     1     -11.169   7.655  73.592  1.00  0.00     0.000 HD 
BRANCH  30  32
HETATM   32  C   UNL     1     -11.632   6.047  72.280  1.00  0.00    -0.307 C  
HETATM   33  C   UNL     1     -10.910   5.685  71.015  1.00  0.00    -0.289 C  
HETATM   34  C   UNL     1     -10.312   5.326  72.342  1.00  0.00    -0.259 C  
ENDBRANCH  30  32
ENDBRANCH  28  30
ENDBRANCH  26  28
ENDBRANCH  21  26
ENDBRANCH  18  19
ENDBRANCH  11  18
ENDBRANCH   2   3
TORSDOF 8
ENDMDL
MODEL       89
REMARK 921   NORMALIZED FREE ENERGY PREDICTED BY IDOCK:   -5.19 KCAL/MOL
REMARK 922        TOTAL FREE ENERGY PREDICTED BY IDOCK:   -9.16 KCAL/MOL
REMARK 923 INTER-LIGAND FREE ENERGY PREDICTED BY IDOCK:   -7.69 KCAL/MOL
REMARK 924 INTRA-LIGAND FREE ENERGY PREDICTED BY IDOCK:   -1.46 KCAL/MOL
REMARK 927      BINDING AFFINITY PREDICTED BY RF-SCORE:    0.00 PKD
ROOT
HETATM    1  C   UNL     1     -13.140  15.834  73.512  1.00  0.00    -0.548 C  
HETATM    2  O   UNL     1     -13.693  15.371  72.281  1.00  0.00    -0.436 OA 
ENDROOT
BRANCH   2   3
HETATM    3  C   UNL     1     -13.137  14.225  71.777  1.00  0.00    -0.359 A  
HETATM    4  C   UNL     1     -12.272  14.305  70.677  1.00  0.00    -0.427 A  
HETATM    5  N   UNL     1     -13.439  10.671  72.284  1.00  0.00    -0.200 NA 
HETATM    6  C   UNL     1     -11.752  13.118  70.115  1.00  0.00    -0.250 A  
HETATM    7  C   UNL     1     -12.993  11.799  71.730  1.00  0.00    -0.361 A  
HETATM    8  C   UNL     1     -12.107  11.841  70.628  1.00  0.00    -0.407 A  
HETATM    9  C   UNL     1     -13.099   9.516  71.704  1.00  0.00    -0.401 A  
HETATM   10  C   UNL     1     -13.484  12.968  72.274  1.00  0.00    -0.645 A  
HETATM   11  C   UNL     1     -11.681  10.585  70.102  1.00  0.00    -0.326 A  
HETATM   12  C   UNL     1     -12.280   9.434  70.601  1.00  0.00    -0.147 A  
BRANCH   4  13
HETATM   13  C   UNL     1     -11.856  15.636  70.143  1.00  0.00    -0.364 C  
HETATM   14  H2  UNL     1     -12.803  15.309  68.309  1.00  0.00     0.000 HD 
HETATM   15  H1  UNL     1     -11.964  16.864  68.506  1.00  0.00     0.000 HD 
HETATM   16  O   UNL     1     -11.181  16.431  70.783  1.00  0.00    -0.350 OA 
HETATM   17  N   UNL     1     -12.248  15.955  68.870  1.00  0.00    -0.080 N  
ENDBRANCH   4  13
BRANCH  11  18
HETATM   18  O   UNL     1     -10.798  10.611  69.036  1.00  0.00    -0.203 OA 
BRANCH  18  19
HETATM   19  C   UNL     1      -9.885   9.606  68.764  1.00  0.00    -0.165 A  
HETATM   20  C   UNL     1     -10.210   8.775  67.684  1.00  0.00    -0.298 A  
HETATM   21  C   UNL     1      -8.404   7.227  68.226  1.00  0.00    -0.125 A  
HETATM   22  C   UNL     1      -9.473   7.605  67.409  1.00  0.00    -0.175 A  
HETATM   23  C   UNL     1      -8.071   8.066  69.290  1.00  0.00    -0.118 A  
HETATM   24 CL   UNL     1      -6.767   7.674  70.368  1.00  0.00    -0.042 Cl 
HETATM   25  C   UNL     1      -8.795   9.236  69.546  1.00  0.00    -0.151 A  
BRANCH  21  26
HETATM   26  N   UNL     1      -7.672   6.028  68.075  1.00  0.00    -0.100 N  
HETATM   27  H   UNL     1      -6.855   6.069  67.466  1.00  0.00     0.000 HD 
BRANCH  26  28
HETATM   28  C   UNL     1      -7.938   4.819  68.656  1.00  0.00    -0.080 C  
HETATM   29  O   UNL     1      -7.093   4.023  69.051  1.00  0.00    -0.049 OA 
BRANCH  28  30
HETATM   30  N   UNL     1      -9.289   4.562  68.762  1.00  0.00    -0.135 N  
HETATM   31  H   UNL     1      -9.847   4.424  67.919  1.00  0.00     0.000 HD 
BRANCH  30  32
HETATM   32  C   UNL     1      -9.912   4.488  70.044  1.00  0.00    -0.210 C  
HETATM   33  C   UNL     1      -9.493   5.338  71.207  1.00  0.00    -0.197 C  
HETATM   34  C   UNL     1     -10.782   5.629  70.499  1.00  0.00    -0.344 C  
ENDBRANCH  30  32
ENDBRANCH  28  30
ENDBRANCH  26  28
ENDBRANCH  21  26
ENDBRANCH  18  19
ENDBRANCH  11  18
ENDBRANCH   2   3
TORSDOF 8
ENDMDL
MODEL       90
REMARK 921   NORMALIZED FREE ENERGY PREDICTED BY IDOCK:   -5.19 KCAL/MOL
REMARK 922        TOTAL FREE ENERGY PREDICTED BY IDOCK:   -9.15 KCAL/MOL
REMARK 923 INTER-LIGAND FREE ENERGY PREDICTED BY IDOCK:   -8.54 KCAL/MOL
REMARK 924 INTRA-LIGAND FREE ENERGY PREDICTED BY IDOCK:   -0.61 KCAL/MOL
REMARK 927      BINDING AFFINITY PREDICTED BY RF-SCORE:    0.00 PKD
ROOT
HETATM    1  C   UNL     1     -12.784   7.937  71.643  1.00  0.00    -0.330 C  
HETATM    2  O   UNL     1     -11.964   9.103  71.709  1.00  0.00    -0.335 OA 
ENDROOT
BRANCH   2   3
HETATM    3  C   UNL     1     -11.585   9.628  70.502  1.00  0.00    -0.272 A  
HETATM    4  C   UNL     1     -11.977  10.932  70.166  1.00  0.00    -0.435 A  
HETATM    5  N   UNL     1      -9.946   8.499  67.500  1.00  0.00    -0.184 NA 
HETATM    6  C   UNL     1     -11.643  11.450  68.895  1.00  0.00    -0.388 A  
HETATM    7  C   UNL     1     -10.573   9.353  68.309  1.00  0.00    -0.210 A  
HETATM    8  C   UNL     1     -10.939  10.668  67.940  1.00  0.00    -0.351 A  
HETATM    9  C   UNL     1      -9.735   8.880  66.236  1.00  0.00    -0.275 A  
HETATM   10  C   UNL     1     -10.896   8.865  69.559  1.00  0.00    -0.163 A  
HETATM   11  C   UNL     1     -10.602  11.077  66.615  1.00  0.00    -0.262 A  
HETATM   12  C   UNL     1     -10.089  10.118  65.749  1.00  0.00    -0.324 A  
BRANCH   4  13
HETATM   13  C   UNL     1     -12.686  11.785  71.165  1.00  0.00    -0.305 C  
HETATM   14  H2  UNL     1     -11.961  13.554  70.319  1.00  0.00     0.000 HD 
HETATM   15  H1  UNL     1     -13.019  13.725  71.737  1.00  0.00     0.000 HD 
HETATM   16  O   UNL     1     -13.372  11.326  72.068  1.00  0.00    -0.462 OA 
HETATM   17  N   UNL     1     -12.535  13.142  71.055  1.00  0.00    -0.364 N  
ENDBRANCH   4  13
BRANCH  11  18
HETATM   18  O   UNL     1     -10.936  12.368  66.246  1.00  0.00    -0.267 OA 
BRANCH  18  19
HETATM   19  C   UNL     1     -10.082  13.452  66.362  1.00  0.00    -0.292 A  
HETATM   20  C   UNL     1      -8.862  13.190  66.999  1.00  0.00    -0.212 A  
HETATM   21  C   UNL     1      -8.308  15.564  67.092  1.00  0.00    -0.214 A  
HETATM   22  C   UNL     1      -7.979  14.231  67.351  1.00  0.00    -0.211 A  
HETATM   23  C   UNL     1      -9.515  15.820  66.440  1.00  0.00    -0.297 A  
HETATM   24 CL   UNL     1     -10.016  17.445  66.086  1.00  0.00    -0.300 Cl 
HETATM   25  C   UNL     1     -10.378  14.781  66.076  1.00  0.00    -0.318 A  
BRANCH  21  26
HETATM   26  N   UNL     1      -7.524  16.670  67.490  1.00  0.00    -0.146 N  
HETATM   27  H   UNL     1      -7.141  17.248  66.742  1.00  0.00     0.000 HD 
BRANCH  26  28
HETATM   28  C   UNL     1      -7.222  17.050  68.769  1.00  0.00    -0.226 C  
HETATM   29  O   UNL     1      -7.008  16.283  69.702  1.00  0.00    -0.207 OA 
BRANCH  28  30
HETATM   30  N   UNL     1      -7.177  18.419  68.924  1.00  0.00    -0.284 N  
HETATM   31  H   UNL     1      -7.231  18.826  69.858  1.00  0.00     0.000 HD 
BRANCH  30  32
HETATM   32  C   UNL     1      -7.056  19.272  67.786  1.00  0.00    -0.236 C  
HETATM   33  C   UNL     1      -8.018  20.385  67.493  1.00  0.00    -0.329 C  
HETATM   34  C   UNL     1      -6.639  20.704  67.989  1.00  0.00    -0.340 C  
ENDBRANCH  30  32
ENDBRANCH  28  30
ENDBRANCH  26  28
ENDBRANCH  21  26
ENDBRANCH  18  19
ENDBRANCH  11  18
ENDBRANCH   2   3
TORSDOF 8
ENDMDL
MODEL       91
REMARK 921   NORMALIZED FREE ENERGY PREDICTED BY IDOCK:   -5.19 KCAL/MOL
REMARK 922        TOTAL FREE ENERGY PREDICTED BY IDOCK:   -9.15 KCAL/MOL
REMARK 923 INTER-LIGAND FREE ENERGY PREDICTED BY IDOCK:   -8.00 KCAL/MOL
REMARK 924 INTRA-LIGAND FREE ENERGY PREDICTED BY IDOCK:   -1.15 KCAL/MOL
REMARK 927      BINDING AFFINITY PREDICTED BY RF-SCORE:    0.00 PKD
ROOT
HETATM    1  C   UNL     1     -10.870  19.277  67.297  1.00  0.00    -0.449 C  
HETATM    2  O   UNL     1      -9.974  18.173  67.178  1.00  0.00    -0.309 OA 
ENDROOT
BRANCH   2   3
HETATM    3  C   UNL     1     -10.385  17.010  67.775  1.00  0.00    -0.335 A  
HETATM    4  C   UNL     1     -10.627  15.879  66.984  1.00  0.00    -0.306 A  
HETATM    5  N   UNL     1     -11.390  15.910  71.055  1.00  0.00    -0.384 NA 
HETATM    6  C   UNL     1     -11.114  14.700  67.591  1.00  0.00    -0.311 A  
HETATM    7  C   UNL     1     -11.143  15.810  69.748  1.00  0.00    -0.322 A  
HETATM    8  C   UNL     1     -11.387  14.645  68.985  1.00  0.00    -0.299 A  
HETATM    9  C   UNL     1     -11.989  14.877  71.655  1.00  0.00    -0.363 A  
HETATM   10  C   UNL     1     -10.656  16.950  69.143  1.00  0.00    -0.330 A  
HETATM   11  C   UNL     1     -11.929  13.525  69.683  1.00  0.00    -0.337 A  
HETATM   12  C   UNL     1     -12.317  13.709  71.005  1.00  0.00    -0.436 A  
BRANCH   4  13
HETATM   13  C   UNL     1     -10.315  15.901  65.524  1.00  0.00    -0.400 C  
HETATM   14  H2  UNL     1     -12.313  16.220  64.999  1.00  0.00     0.000 HD 
HETATM   15  H1  UNL     1     -11.146  16.111  63.662  1.00  0.00     0.000 HD 
HETATM   16  O   UNL     1      -9.185  15.743  65.080  1.00  0.00     0.002 OA 
HETATM   17  N   UNL     1     -11.359  16.095  64.659  1.00  0.00    -0.381 N  
ENDBRANCH   4  13
BRANCH  11  18
HETATM   18  O   UNL     1     -12.154  12.371  68.953  1.00  0.00    -0.265 OA 
BRANCH  18  19
HETATM   19  C   UNL     1     -11.350  11.246  69.016  1.00  0.00    -0.278 A  
HETATM   20  C   UNL     1     -10.688  10.912  67.828  1.00  0.00    -0.279 A  
HETATM   21  C   UNL     1      -9.954   8.772  68.742  1.00  0.00    -0.185 A  
HETATM   22  C   UNL     1      -9.988   9.695  67.693  1.00  0.00    -0.218 A  
HETATM   23  C   UNL     1     -10.599   9.116  69.931  1.00  0.00    -0.230 A  
HETATM   24 CL   UNL     1     -10.622   8.028  71.285  1.00  0.00    -0.237 Cl 
HETATM   25  C   UNL     1     -11.275  10.333  70.064  1.00  0.00    -0.376 A  
BRANCH  21  26
HETATM   26  N   UNL     1      -9.353   7.496  68.660  1.00  0.00    -0.143 N  
HETATM   27  H   UNL     1      -9.832   6.736  69.143  1.00  0.00     0.000 HD 
BRANCH  26  28
HETATM   28  C   UNL     1      -8.199   7.168  68.003  1.00  0.00    -0.120 C  
HETATM   29  O   UNL     1      -7.065   7.374  68.421  1.00  0.00    -0.079 OA 
BRANCH  28  30
HETATM   30  N   UNL     1      -8.429   6.566  66.784  1.00  0.00    -0.111 N  
HETATM   31  H   UNL     1      -8.455   7.131  65.935  1.00  0.00     0.000 HD 
BRANCH  30  32
HETATM   32  C   UNL     1      -8.633   5.156  66.702  1.00  0.00    -0.110 C  
HETATM   33  C   UNL     1      -9.990   4.534  66.548  1.00  0.00    -0.263 C  
HETATM   34  C   UNL     1      -9.044   4.554  65.385  1.00  0.00    -0.146 C  
ENDBRANCH  30  32
ENDBRANCH  28  30
ENDBRANCH  26  28
ENDBRANCH  21  26
ENDBRANCH  18  19
ENDBRANCH  11  18
ENDBRANCH   2   3
TORSDOF 8
ENDMDL
MODEL       92
REMARK 921   NORMALIZED FREE ENERGY PREDICTED BY IDOCK:   -5.18 KCAL/MOL
REMARK 922        TOTAL FREE ENERGY PREDICTED BY IDOCK:   -9.14 KCAL/MOL
REMARK 923 INTER-LIGAND FREE ENERGY PREDICTED BY IDOCK:   -7.84 KCAL/MOL
REMARK 924 INTRA-LIGAND FREE ENERGY PREDICTED BY IDOCK:   -1.29 KCAL/MOL
REMARK 927      BINDING AFFINITY PREDICTED BY RF-SCORE:    0.00 PKD
ROOT
HETATM    1  C   UNL     1      -9.762   3.047  71.925  1.00  0.00    -0.164 C  
HETATM    2  O   UNL     1     -10.336   4.321  72.212  1.00  0.00    -0.183 OA 
ENDROOT
BRANCH   2   3
HETATM    3  C   UNL     1     -10.151   5.283  71.254  1.00  0.00    -0.213 A  
HETATM    4  C   UNL     1      -9.779   6.577  71.643  1.00  0.00    -0.174 A  
HETATM    5  N   UNL     1     -10.622   5.629  67.700  1.00  0.00    -0.224 NA 
HETATM    6  C   UNL     1      -9.652   7.586  70.661  1.00  0.00    -0.171 A  
HETATM    7  C   UNL     1     -10.305   6.006  68.939  1.00  0.00    -0.218 A  
HETATM    8  C   UNL     1      -9.919   7.320  69.290  1.00  0.00    -0.170 A  
HETATM    9  C   UNL     1     -10.664   6.573  66.754  1.00  0.00    -0.273 A  
HETATM   10  C   UNL     1     -10.412   5.029  69.907  1.00  0.00    -0.214 A  
HETATM   11  C   UNL     1      -9.873   8.278  68.234  1.00  0.00    -0.172 A  
HETATM   12  C   UNL     1     -10.354   7.894  66.987  1.00  0.00    -0.411 A  
BRANCH   4  13
HETATM   13  C   UNL     1      -9.459   6.872  73.071  1.00  0.00    -0.145 C  
HETATM   14  H2  UNL     1     -11.460   7.240  73.548  1.00  0.00     0.000 HD 
HETATM   15  H1  UNL     1     -10.284   7.400  74.871  1.00  0.00     0.000 HD 
HETATM   16  O   UNL     1      -8.321   6.845  73.519  1.00  0.00    -0.113 OA 
HETATM   17  N   UNL     1     -10.502   7.199  73.896  1.00  0.00    -0.343 N  
ENDBRANCH   4  13
BRANCH  11  18
HETATM   18  O   UNL     1      -9.477   9.563  68.559  1.00  0.00    -0.140 OA 
BRANCH  18  19
HETATM   19  C   UNL     1     -10.345  10.638  68.660  1.00  0.00    -0.186 A  
HETATM   20  C   UNL     1     -10.216  11.610  67.659  1.00  0.00    -0.206 A  
HETATM   21  C   UNL     1     -11.714  13.135  68.835  1.00  0.00    -0.326 A  
HETATM   22  C   UNL     1     -10.900  12.840  67.738  1.00  0.00    -0.248 A  
HETATM   23  C   UNL     1     -11.856  12.157  69.820  1.00  0.00    -0.327 A  
HETATM   24 CL   UNL     1     -12.836  12.436  71.226  1.00  0.00    -0.406 Cl 
HETATM   25  C   UNL     1     -11.189  10.931  69.727  1.00  0.00    -0.351 A  
BRANCH  21  26
HETATM   26  N   UNL     1     -12.363  14.374  69.035  1.00  0.00    -0.566 N  
HETATM   27  H   UNL     1     -13.357  14.408  68.808  1.00  0.00     0.000 HD 
BRANCH  26  28
HETATM   28  C   UNL     1     -11.803  15.533  69.499  1.00  0.00    -0.372 C  
HETATM   29  O   UNL     1     -11.663  15.825  70.682  1.00  0.00    -0.324 OA 
BRANCH  28  30
HETATM   30  N   UNL     1     -11.399  16.376  68.486  1.00  0.00    -0.348 N  
HETATM   31  H   UNL     1     -11.913  16.393  67.605  1.00  0.00     0.000 HD 
BRANCH  30  32
HETATM   32  C   UNL     1     -10.265  17.224  68.661  1.00  0.00    -0.351 C  
HETATM   33  C   UNL     1      -8.853  16.718  68.628  1.00  0.00    -0.255 C  
HETATM   34  C   UNL     1      -9.383  17.517  67.476  1.00  0.00    -0.246 C  
ENDBRANCH  30  32
ENDBRANCH  28  30
ENDBRANCH  26  28
ENDBRANCH  21  26
ENDBRANCH  18  19
ENDBRANCH  11  18
ENDBRANCH   2   3
TORSDOF 8
ENDMDL
MODEL       93
REMARK 921   NORMALIZED FREE ENERGY PREDICTED BY IDOCK:   -5.18 KCAL/MOL
REMARK 922        TOTAL FREE ENERGY PREDICTED BY IDOCK:   -9.13 KCAL/MOL
REMARK 923 INTER-LIGAND FREE ENERGY PREDICTED BY IDOCK:   -7.70 KCAL/MOL
REMARK 924 INTRA-LIGAND FREE ENERGY PREDICTED BY IDOCK:   -1.44 KCAL/MOL
REMARK 927      BINDING AFFINITY PREDICTED BY RF-SCORE:    0.00 PKD
ROOT
HETATM    1  C   UNL     1     -14.164  15.228  71.874  1.00  0.00    -0.581 C  
HETATM    2  O   UNL     1     -13.136  14.952  70.925  1.00  0.00    -0.359 OA 
ENDROOT
BRANCH   2   3
HETATM    3  C   UNL     1     -12.733  13.645  70.853  1.00  0.00    -0.310 A  
HETATM    4  C   UNL     1     -11.825  13.258  69.857  1.00  0.00    -0.380 A  
HETATM    5  N   UNL     1     -13.560  10.511  72.425  1.00  0.00    -0.021 NA 
HETATM    6  C   UNL     1     -11.460  11.898  69.741  1.00  0.00    -0.303 A  
HETATM    7  C   UNL     1     -12.936  11.335  71.582  1.00  0.00    -0.432 A  
HETATM    8  C   UNL     1     -12.014  10.909  70.599  1.00  0.00    -0.467 A  
HETATM    9  C   UNL     1     -13.368   9.198  72.266  1.00  0.00    -0.477 A  
HETATM   10  C   UNL     1     -13.274  12.669  71.691  1.00  0.00    -0.394 A  
HETATM   11  C   UNL     1     -11.753   9.509  70.529  1.00  0.00    -0.222 A  
HETATM   12  C   UNL     1     -12.530   8.664  71.314  1.00  0.00    -0.284 A  
BRANCH   4  13
HETATM   13  C   UNL     1     -11.203  14.284  68.968  1.00  0.00    -0.266 C  
HETATM   14  H2  UNL     1     -12.763  14.175  67.582  1.00  0.00     0.000 HD 
HETATM   15  H1  UNL     1     -11.449  15.313  67.212  1.00  0.00     0.000 HD 
HETATM   16  O   UNL     1     -10.131  14.820  69.216  1.00  0.00    -0.216 OA 
HETATM   17  N   UNL     1     -11.873  14.613  67.820  1.00  0.00    -0.353 N  
ENDBRANCH   4  13
BRANCH  11  18
HETATM   18  O   UNL     1     -10.837   9.079  69.585  1.00  0.00    -0.231 OA 
BRANCH  18  19
HETATM   19  C   UNL     1     -10.117   7.901  69.685  1.00  0.00    -0.197 A  
HETATM   20  C   UNL     1     -10.727   6.773  69.119  1.00  0.00    -0.287 A  
HETATM   21  C   UNL     1      -9.058   5.282  70.090  1.00  0.00    -0.133 A  
HETATM   22  C   UNL     1     -10.200   5.480  69.309  1.00  0.00    -0.315 A  
HETATM   23  C   UNL     1      -8.442   6.409  70.636  1.00  0.00    -0.135 A  
HETATM   24 CL   UNL     1      -7.027   6.263  71.632  1.00  0.00    -0.074 Cl 
HETATM   25  C   UNL     1      -8.960   7.692  70.429  1.00  0.00    -0.152 A  
BRANCH  21  26
HETATM   26  N   UNL     1      -8.517   4.015  70.403  1.00  0.00    -0.064 N  
HETATM   27  H   UNL     1      -7.925   3.586  69.691  1.00  0.00     0.000 HD 
BRANCH  26  28
HETATM   28  C   UNL     1      -8.700   3.301  71.555  1.00  0.00    -0.077 C  
HETATM   29  O   UNL     1      -7.808   2.757  72.198  1.00  0.00    -0.052 OA 
BRANCH  28  30
HETATM   30  N   UNL     1     -10.021   3.241  71.943  1.00  0.00    -0.164 N  
HETATM   31  H   UNL     1     -10.708   2.792  71.338  1.00  0.00     0.000 HD 
BRANCH  30  32
HETATM   32  C   UNL     1     -10.435   3.803  73.188  1.00  0.00    -0.176 C  
HETATM   33  C   UNL     1     -10.093   5.203  73.606  1.00  0.00    -0.213 C  
HETATM   34  C   UNL     1     -11.494   4.873  73.189  1.00  0.00    -0.362 C  
ENDBRANCH  30  32
ENDBRANCH  28  30
ENDBRANCH  26  28
ENDBRANCH  21  26
ENDBRANCH  18  19
ENDBRANCH  11  18
ENDBRANCH   2   3
TORSDOF 8
ENDMDL
MODEL       94
REMARK 921   NORMALIZED FREE ENERGY PREDICTED BY IDOCK:   -5.16 KCAL/MOL
REMARK 922        TOTAL FREE ENERGY PREDICTED BY IDOCK:   -9.11 KCAL/MOL
REMARK 923 INTER-LIGAND FREE ENERGY PREDICTED BY IDOCK:   -8.09 KCAL/MOL
REMARK 924 INTRA-LIGAND FREE ENERGY PREDICTED BY IDOCK:   -1.02 KCAL/MOL
REMARK 927      BINDING AFFINITY PREDICTED BY RF-SCORE:    0.00 PKD
ROOT
HETATM    1  C   UNL     1     -10.072   6.828  66.996  1.00  0.00    -0.200 C  
HETATM    2  O   UNL     1     -10.894   7.633  67.839  1.00  0.00    -0.152 OA 
ENDROOT
BRANCH   2   3
HETATM    3  C   UNL     1     -10.639   8.979  67.805  1.00  0.00    -0.214 A  
HETATM    4  C   UNL     1     -10.623   9.707  69.003  1.00  0.00    -0.237 A  
HETATM    5  N   UNL     1     -10.205  11.547  65.316  1.00  0.00    -0.255 NA 
HETATM    6  C   UNL     1     -10.425  11.105  68.962  1.00  0.00    -0.233 A  
HETATM    7  C   UNL     1     -10.301  11.027  66.541  1.00  0.00    -0.245 A  
HETATM    8  C   UNL     1     -10.266  11.793  67.729  1.00  0.00    -0.205 A  
HETATM    9  C   UNL     1     -10.164  12.878  65.207  1.00  0.00    -0.278 A  
HETATM   10  C   UNL     1     -10.483   9.660  66.597  1.00  0.00    -0.233 A  
HETATM   11  C   UNL     1     -10.115  13.203  67.576  1.00  0.00    -0.222 A  
HETATM   12  C   UNL     1     -10.171  13.728  66.290  1.00  0.00    -0.298 A  
BRANCH   4  13
HETATM   13  C   UNL     1     -10.752   9.002  70.313  1.00  0.00    -0.230 C  
HETATM   14  H2  UNL     1      -8.686   8.751  70.497  1.00  0.00     0.000 HD 
HETATM   15  H1  UNL     1      -9.686   8.105  71.817  1.00  0.00     0.000 HD 
HETATM   16  O   UNL     1     -11.831   8.776  70.846  1.00  0.00    -0.282 OA 
HETATM   17  N   UNL     1      -9.598   8.586  70.922  1.00  0.00    -0.175 N  
ENDBRANCH   4  13
BRANCH  11  18
HETATM   18  O   UNL     1     -10.059  13.964  68.731  1.00  0.00    -0.221 OA 
BRANCH  18  19
HETATM   19  C   UNL     1      -9.854  15.333  68.747  1.00  0.00    -0.217 A  
HETATM   20  C   UNL     1     -10.928  16.107  68.290  1.00  0.00    -0.340 A  
HETATM   21  C   UNL     1      -9.574  18.136  68.294  1.00  0.00    -0.317 A  
HETATM   22  C   UNL     1     -10.795  17.494  68.075  1.00  0.00    -0.260 A  
HETATM   23  C   UNL     1      -8.511  17.366  68.767  1.00  0.00    -0.225 A  
HETATM   24 CL   UNL     1      -6.951  18.072  69.056  1.00  0.00    -0.264 Cl 
HETATM   25  C   UNL     1      -8.654  15.994  68.996  1.00  0.00    -0.244 A  
BRANCH  21  26
HETATM   26  N   UNL     1      -9.332  19.501  68.020  1.00  0.00    -0.325 N  
HETATM   27  H   UNL     1      -9.286  20.125  68.826  1.00  0.00     0.000 HD 
BRANCH  26  28
HETATM   28  C   UNL     1      -9.152  20.078  66.793  1.00  0.00    -0.363 C  
HETATM   29  O   UNL     1      -9.914  19.962  65.839  1.00  0.00    -0.437 OA 
BRANCH  28  30
HETATM   30  N   UNL     1      -7.997  20.826  66.717  1.00  0.00    -0.563 N  
HETATM   31  H   UNL     1      -8.020  21.820  66.948  1.00  0.00     0.000 HD 
BRANCH  30  32
HETATM   32  C   UNL     1      -6.768  20.221  66.318  1.00  0.00    -0.233 C  
HETATM   33  C   UNL     1      -6.701  18.917  65.579  1.00  0.00    -0.292 C  
HETATM   34  C   UNL     1      -6.407  20.197  64.857  1.00  0.00    -0.329 C  
ENDBRANCH  30  32
ENDBRANCH  28  30
ENDBRANCH  26  28
ENDBRANCH  21  26
ENDBRANCH  18  19
ENDBRANCH  11  18
ENDBRANCH   2   3
TORSDOF 8
ENDMDL
MODEL       95
REMARK 921   NORMALIZED FREE ENERGY PREDICTED BY IDOCK:   -5.15 KCAL/MOL
REMARK 922        TOTAL FREE ENERGY PREDICTED BY IDOCK:   -9.10 KCAL/MOL
REMARK 923 INTER-LIGAND FREE ENERGY PREDICTED BY IDOCK:   -7.88 KCAL/MOL
REMARK 924 INTRA-LIGAND FREE ENERGY PREDICTED BY IDOCK:   -1.22 KCAL/MOL
REMARK 927      BINDING AFFINITY PREDICTED BY RF-SCORE:    0.00 PKD
ROOT
HETATM    1  C   UNL     1     -12.862  15.100  71.286  1.00  0.00    -0.391 C  
HETATM    2  O   UNL     1     -11.856  14.133  70.988  1.00  0.00    -0.301 OA 
ENDROOT
BRANCH   2   3
HETATM    3  C   UNL     1     -11.729  13.801  69.665  1.00  0.00    -0.318 A  
HETATM    4  C   UNL     1     -11.814  12.455  69.282  1.00  0.00    -0.361 A  
HETATM    5  N   UNL     1     -10.900  15.449  66.571  1.00  0.00    -0.310 NA 
HETATM    6  C   UNL     1     -11.617  12.105  67.928  1.00  0.00    -0.413 A  
HETATM    7  C   UNL     1     -11.219  14.433  67.374  1.00  0.00    -0.325 A  
HETATM    8  C   UNL     1     -11.310  13.088  66.948  1.00  0.00    -0.352 A  
HETATM    9  C   UNL     1     -10.558  15.162  65.311  1.00  0.00    -0.411 A  
HETATM   10  C   UNL     1     -11.426  14.761  68.699  1.00  0.00    -0.325 A  
HETATM   11  C   UNL     1     -11.041  12.834  65.571  1.00  0.00    -0.285 A  
HETATM   12  C   UNL     1     -10.564  13.885  64.796  1.00  0.00    -0.444 A  
BRANCH   4  13
HETATM   13  C   UNL     1     -12.170  11.409  70.286  1.00  0.00    -0.349 C  
HETATM   14  H2  UNL     1     -10.322  10.452  70.095  1.00  0.00     0.000 HD 
HETATM   15  H1  UNL     1     -11.474   9.737  71.245  1.00  0.00     0.000 HD 
HETATM   16  O   UNL     1     -13.254  11.370  70.853  1.00  0.00    -0.075 OA 
HETATM   17  N   UNL     1     -11.230  10.451  70.559  1.00  0.00    -0.325 N  
ENDBRANCH   4  13
BRANCH  11  18
HETATM   18  O   UNL     1     -11.145  11.524  65.135  1.00  0.00    -0.271 OA 
BRANCH  18  19
HETATM   19  C   UNL     1     -10.064  10.675  64.970  1.00  0.00    -0.321 A  
HETATM   20  C   UNL     1      -9.757  10.344  63.644  1.00  0.00    -0.338 A  
HETATM   21  C   UNL     1      -8.156   8.645  64.353  1.00  0.00    -0.156 A  
HETATM   22  C   UNL     1      -8.806   9.349  63.337  1.00  0.00    -0.199 A  
HETATM   23  C   UNL     1      -8.450   8.991  65.673  1.00  0.00    -0.150 A  
HETATM   24 CL   UNL     1      -7.702   8.164  67.004  1.00  0.00    -0.095 Cl 
HETATM   25  C   UNL     1      -9.381   9.992  65.971  1.00  0.00    -0.224 A  
BRANCH  21  26
HETATM   26  N   UNL     1      -7.259   7.577  64.133  1.00  0.00    -0.074 N  
HETATM   27  H   UNL     1      -6.274   7.824  64.031  1.00  0.00     0.000 HD 
BRANCH  26  28
HETATM   28  C   UNL     1      -7.565   6.247  64.043  1.00  0.00    -0.098 C  
HETATM   29  O   UNL     1      -6.780   5.361  63.721  1.00  0.00    -0.039 OA 
BRANCH  28  30
HETATM   30  N   UNL     1      -8.881   5.979  64.354  1.00  0.00    -0.328 N  
HETATM   31  H   UNL     1      -9.629   6.418  63.817  1.00  0.00     0.000 HD 
BRANCH  30  32
HETATM   32  C   UNL     1      -9.205   5.090  65.423  1.00  0.00    -0.138 C  
HETATM   33  C   UNL     1     -10.113   5.470  66.555  1.00  0.00    -0.241 C  
HETATM   34  C   UNL     1     -10.595   4.519  65.501  1.00  0.00    -0.218 C  
ENDBRANCH  30  32
ENDBRANCH  28  30
ENDBRANCH  26  28
ENDBRANCH  21  26
ENDBRANCH  18  19
ENDBRANCH  11  18
ENDBRANCH   2   3
TORSDOF 8
ENDMDL
MODEL       96
REMARK 921   NORMALIZED FREE ENERGY PREDICTED BY IDOCK:   -5.13 KCAL/MOL
REMARK 922        TOTAL FREE ENERGY PREDICTED BY IDOCK:   -9.06 KCAL/MOL
REMARK 923 INTER-LIGAND FREE ENERGY PREDICTED BY IDOCK:   -8.22 KCAL/MOL
REMARK 924 INTRA-LIGAND FREE ENERGY PREDICTED BY IDOCK:   -0.84 KCAL/MOL
REMARK 927      BINDING AFFINITY PREDICTED BY RF-SCORE:    0.00 PKD
ROOT
HETATM    1  C   UNL     1      -6.073   8.707  74.443  1.00  0.00    -0.129 C  
HETATM    2  O   UNL     1      -6.059   8.439  73.042  1.00  0.00    -0.073 OA 
ENDROOT
BRANCH   2   3
HETATM    3  C   UNL     1      -7.285   8.425  72.430  1.00  0.00    -0.083 A  
HETATM    4  C   UNL     1      -7.422   8.986  71.152  1.00  0.00    -0.119 A  
HETATM    5  N   UNL     1     -10.673   7.537  73.270  1.00  0.00    -0.393 NA 
HETATM    6  C   UNL     1      -8.699   9.032  70.549  1.00  0.00    -0.238 A  
HETATM    7  C   UNL     1      -9.676   7.995  72.513  1.00  0.00    -0.258 A  
HETATM    8  C   UNL     1      -9.852   8.542  71.221  1.00  0.00    -0.279 A  
HETATM    9  C   UNL     1     -11.920   7.688  72.814  1.00  0.00    -0.076 A  
HETATM   10  C   UNL     1      -8.421   7.947  73.085  1.00  0.00    -0.242 A  
HETATM   11  C   UNL     1     -11.187   8.590  70.723  1.00  0.00    -0.257 A  
HETATM   12  C   UNL     1     -12.217   8.248  71.591  1.00  0.00    -0.350 A  
BRANCH   4  13
HETATM   13  C   UNL     1      -6.221   9.475  70.412  1.00  0.00    -0.064 C  
HETATM   14  H2  UNL     1      -6.553  11.458  70.980  1.00  0.00     0.000 HD 
HETATM   15  H1  UNL     1      -5.134  11.151  69.955  1.00  0.00     0.000 HD 
HETATM   16  O   UNL     1      -5.488   8.736  69.768  1.00  0.00    -0.029 OA 
HETATM   17  N   UNL     1      -5.954  10.817  70.460  1.00  0.00    -0.128 N  
ENDBRANCH   4  13
BRANCH  11  18
HETATM   18  O   UNL     1     -11.373   9.104  69.451  1.00  0.00    -0.001 OA 
BRANCH  18  19
HETATM   19  C   UNL     1     -11.394  10.457  69.159  1.00  0.00    -0.226 A  
HETATM   20  C   UNL     1     -11.686  11.301  70.239  1.00  0.00    -0.415 A  
HETATM   21  C   UNL     1     -11.895  13.240  68.772  1.00  0.00    -0.334 A  
HETATM   22  C   UNL     1     -11.924  12.678  70.051  1.00  0.00    -0.377 A  
HETATM   23  C   UNL     1     -11.584  12.400  67.702  1.00  0.00    -0.357 A  
HETATM   24 CL   UNL     1     -11.538  13.004  66.074  1.00  0.00    -0.383 Cl 
HETATM   25  C   UNL     1     -11.332  11.039  67.896  1.00  0.00    -0.381 A  
BRANCH  21  26
HETATM   26  N   UNL     1     -12.208  14.588  68.488  1.00  0.00    -0.602 N  
HETATM   27  H   UNL     1     -13.055  14.753  67.945  1.00  0.00     0.000 HD 
BRANCH  26  28
HETATM   28  C   UNL     1     -11.498  15.696  68.861  1.00  0.00    -0.361 C  
HETATM   29  O   UNL     1     -11.327  16.692  68.167  1.00  0.00    -0.289 OA 
BRANCH  28  30
HETATM   30  N   UNL     1     -10.973  15.592  70.131  1.00  0.00    -0.295 N  
HETATM   31  H   UNL     1     -10.097  15.089  70.279  1.00  0.00     0.000 HD 
BRANCH  30  32
HETATM   32  C   UNL     1     -11.645  16.183  71.243  1.00  0.00    -0.413 C  
HETATM   33  C   UNL     1     -12.997  15.733  71.714  1.00  0.00    -0.505 C  
HETATM   34  C   UNL     1     -11.778  15.395  72.519  1.00  0.00    -0.564 C  
ENDBRANCH  30  32
ENDBRANCH  28  30
ENDBRANCH  26  28
ENDBRANCH  21  26
ENDBRANCH  18  19
ENDBRANCH  11  18
ENDBRANCH   2   3
TORSDOF 8
ENDMDL
MODEL       97
REMARK 921   NORMALIZED FREE ENERGY PREDICTED BY IDOCK:   -5.13 KCAL/MOL
REMARK 922        TOTAL FREE ENERGY PREDICTED BY IDOCK:   -9.06 KCAL/MOL
REMARK 923 INTER-LIGAND FREE ENERGY PREDICTED BY IDOCK:   -7.79 KCAL/MOL
REMARK 924 INTRA-LIGAND FREE ENERGY PREDICTED BY IDOCK:   -1.27 KCAL/MOL
REMARK 927      BINDING AFFINITY PREDICTED BY RF-SCORE:    0.00 PKD
ROOT
HETATM    1  C   UNL     1     -10.908   5.243  72.292  1.00  0.00    -0.207 C  
HETATM    2  O   UNL     1     -11.530   6.174  71.408  1.00  0.00    -0.293 OA 
ENDROOT
BRANCH   2   3
HETATM    3  C   UNL     1     -10.775   6.564  70.333  1.00  0.00    -0.255 A  
HETATM    4  C   UNL     1     -10.231   7.856  70.308  1.00  0.00    -0.200 A  
HETATM    5  N   UNL     1      -9.872   5.264  67.098  1.00  0.00    -0.150 NA 
HETATM    6  C   UNL     1      -9.508   8.282  69.171  1.00  0.00    -0.155 A  
HETATM    7  C   UNL     1      -9.917   6.145  68.098  1.00  0.00    -0.142 A  
HETATM    8  C   UNL     1      -9.343   7.435  68.041  1.00  0.00    -0.136 A  
HETATM    9  C   UNL     1      -9.331   5.663  65.943  1.00  0.00    -0.103 A  
HETATM   10  C   UNL     1     -10.610   5.739  69.221  1.00  0.00    -0.376 A  
HETATM   11  C   UNL     1      -8.680   7.787  66.829  1.00  0.00    -0.135 A  
HETATM   12  C   UNL     1      -8.781   6.911  65.754  1.00  0.00    -0.120 A  
BRANCH   4  13
HETATM   13  C   UNL     1     -10.362   8.751  71.496  1.00  0.00    -0.303 C  
HETATM   14  H2  UNL     1     -12.209   9.493  70.861  1.00  0.00     0.000 HD 
HETATM   15  H1  UNL     1     -11.577  10.136  72.393  1.00  0.00     0.000 HD 
HETATM   16  O   UNL     1      -9.510   8.824  72.373  1.00  0.00    -0.293 OA 
HETATM   17  N   UNL     1     -11.487   9.526  71.581  1.00  0.00    -0.389 N  
ENDBRANCH   4  13
BRANCH  11  18
HETATM   18  O   UNL     1      -8.095   9.040  66.765  1.00  0.00    -0.109 OA 
BRANCH  18  19
HETATM   19  C   UNL     1      -8.774  10.194  66.412  1.00  0.00    -0.130 A  
HETATM   20  C   UNL     1      -8.645  11.265  67.306  1.00  0.00    -0.143 A  
HETATM   21  C   UNL     1     -10.371  12.545  66.149  1.00  0.00    -0.253 A  
HETATM   22  C   UNL     1      -9.425  12.432  67.172  1.00  0.00    -0.198 A  
HETATM   23  C   UNL     1     -10.483  11.484  65.249  1.00  0.00    -0.283 A  
HETATM   24 CL   UNL     1     -11.639  11.527  63.954  1.00  0.00    -0.391 Cl 
HETATM   25  C   UNL     1      -9.693  10.337  65.377  1.00  0.00    -0.340 A  
BRANCH  21  26
HETATM   26  N   UNL     1     -11.252  13.638  65.997  1.00  0.00    -0.294 N  
HETATM   27  H   UNL     1     -11.842  13.634  65.165  1.00  0.00     0.000 HD 
BRANCH  26  28
HETATM   28  C   UNL     1     -11.402  14.702  66.844  1.00  0.00    -0.356 C  
HETATM   29  O   UNL     1     -10.902  15.810  66.682  1.00  0.00    -0.310 OA 
BRANCH  28  30
HETATM   30  N   UNL     1     -12.191  14.410  67.936  1.00  0.00    -0.620 N  
HETATM   31  H   UNL     1     -13.160  14.120  67.799  1.00  0.00     0.000 HD 
BRANCH  30  32
HETATM   32  C   UNL     1     -11.662  14.510  69.258  1.00  0.00    -0.310 C  
HETATM   33  C   UNL     1     -12.027  15.617  70.202  1.00  0.00    -0.387 C  
HETATM   34  C   UNL     1     -12.568  14.237  70.428  1.00  0.00    -0.405 C  
ENDBRANCH  30  32
ENDBRANCH  28  30
ENDBRANCH  26  28
ENDBRANCH  21  26
ENDBRANCH  18  19
ENDBRANCH  11  18
ENDBRANCH   2   3
TORSDOF 8
ENDMDL
MODEL       98
REMARK 921   NORMALIZED FREE ENERGY PREDICTED BY IDOCK:   -5.13 KCAL/MOL
REMARK 922        TOTAL FREE ENERGY PREDICTED BY IDOCK:   -9.06 KCAL/MOL
REMARK 923 INTER-LIGAND FREE ENERGY PREDICTED BY IDOCK:   -7.97 KCAL/MOL
REMARK 924 INTRA-LIGAND FREE ENERGY PREDICTED BY IDOCK:   -1.09 KCAL/MOL
REMARK 927      BINDING AFFINITY PREDICTED BY RF-SCORE:    0.00 PKD
ROOT
HETATM    1  C   UNL     1      -7.142   7.930  66.116  1.00  0.00    -0.062 C  
HETATM    2  O   UNL     1      -8.313   8.125  65.325  1.00  0.00    -0.145 OA 
ENDROOT
BRANCH   2   3
HETATM    3  C   UNL     1      -9.194   9.065  65.793  1.00  0.00    -0.232 A  
HETATM    4  C   UNL     1      -9.527  10.159  64.983  1.00  0.00    -0.330 A  
HETATM    5  N   UNL     1     -10.897   9.818  68.877  1.00  0.00    -0.214 NA 
HETATM    6  C   UNL     1     -10.383  11.162  65.491  1.00  0.00    -0.326 A  
HETATM    7  C   UNL     1     -10.524   9.985  67.608  1.00  0.00    -0.246 A  
HETATM    8  C   UNL     1     -10.893  11.097  66.816  1.00  0.00    -0.322 A  
HETATM    9  C   UNL     1     -11.584  10.805  69.459  1.00  0.00    -0.303 A  
HETATM   10  C   UNL     1      -9.696   9.007  67.094  1.00  0.00    -0.237 A  
HETATM   11  C   UNL     1     -11.717  12.081  67.439  1.00  0.00    -0.281 A  
HETATM   12  C   UNL     1     -11.961  11.955  68.802  1.00  0.00    -0.307 A  
BRANCH   4  13
HETATM   13  C   UNL     1      -9.033  10.232  63.576  1.00  0.00    -0.242 C  
HETATM   14  H2  UNL     1      -7.061  10.569  64.180  1.00  0.00     0.000 HD 
HETATM   15  H1  UNL     1      -7.357  10.506  62.429  1.00  0.00     0.000 HD 
HETATM   16  O   UNL     1      -9.766  10.113  62.604  1.00  0.00    -0.261 OA 
HETATM   17  N   UNL     1      -7.694  10.456  63.389  1.00  0.00    -0.120 N  
ENDBRANCH   4  13
BRANCH  11  18
HETATM   18  O   UNL     1     -12.103  13.165  66.670  1.00  0.00    -0.391 OA 
BRANCH  18  19
HETATM   19  C   UNL     1     -11.397  14.354  66.600  1.00  0.00    -0.353 A  
HETATM   20  C   UNL     1     -10.698  14.569  65.405  1.00  0.00    -0.372 A  
HETATM   21  C   UNL     1      -9.550  16.512  66.330  1.00  0.00    -0.285 A  
HETATM   22  C   UNL     1      -9.793  15.640  65.265  1.00  0.00    -0.150 A  
HETATM   23  C   UNL     1     -10.262  16.307  67.513  1.00  0.00    -0.270 A  
HETATM   24 CL   UNL     1     -10.017  17.330  68.895  1.00  0.00    -0.309 Cl 
HETATM   25  C   UNL     1     -11.172  15.253  67.638  1.00  0.00    -0.320 A  
BRANCH  21  26
HETATM   26  N   UNL     1      -8.596  17.554  66.303  1.00  0.00    -0.230 N  
HETATM   27  H   UNL     1      -8.943  18.481  66.056  1.00  0.00     0.000 HD 
BRANCH  26  28
HETATM   28  C   UNL     1      -7.259  17.457  66.574  1.00  0.00    -0.270 C  
HETATM   29  O   UNL     1      -6.631  16.407  66.667  1.00  0.00    -0.255 OA 
BRANCH  28  30
HETATM   30  N   UNL     1      -6.656  18.685  66.742  1.00  0.00    -0.184 N  
HETATM   31  H   UNL     1      -6.563  19.317  65.947  1.00  0.00     0.000 HD 
BRANCH  30  32
HETATM   32  C   UNL     1      -6.161  19.078  68.021  1.00  0.00    -0.218 C  
HETATM   33  C   UNL     1      -6.020  20.513  68.437  1.00  0.00    -0.345 C  
HETATM   34  C   UNL     1      -7.115  19.673  69.022  1.00  0.00    -0.387 C  
ENDBRANCH  30  32
ENDBRANCH  28  30
ENDBRANCH  26  28
ENDBRANCH  21  26
ENDBRANCH  18  19
ENDBRANCH  11  18
ENDBRANCH   2   3
TORSDOF 8
ENDMDL
MODEL       99
REMARK 921   NORMALIZED FREE ENERGY PREDICTED BY IDOCK:   -5.11 KCAL/MOL
REMARK 922        TOTAL FREE ENERGY PREDICTED BY IDOCK:   -9.04 KCAL/MOL
REMARK 923 INTER-LIGAND FREE ENERGY PREDICTED BY IDOCK:   -7.53 KCAL/MOL
REMARK 924 INTRA-LIGAND FREE ENERGY PREDICTED BY IDOCK:   -1.51 KCAL/MOL
REMARK 927      BINDING AFFINITY PREDICTED BY RF-SCORE:    0.00 PKD
ROOT
HETATM    1  C   UNL     1     -12.427  12.687  64.864  1.00  0.00    -0.494 C  
HETATM    2  O   UNL     1     -12.276  12.231  66.207  1.00  0.00    -0.628 OA 
ENDROOT
BRANCH   2   3
HETATM    3  C   UNL     1     -10.996  12.241  66.695  1.00  0.00    -0.278 A  
HETATM    4  C   UNL     1     -10.663  13.124  67.732  1.00  0.00    -0.252 A  
HETATM    5  N   UNL     1      -7.824  10.737  65.888  1.00  0.00    -0.153 NA 
HETATM    6  C   UNL     1      -9.327  13.182  68.191  1.00  0.00    -0.217 A  
HETATM    7  C   UNL     1      -8.682  11.513  66.552  1.00  0.00    -0.183 A  
HETATM    8  C   UNL     1      -8.310  12.381  67.605  1.00  0.00    -0.169 A  
HETATM    9  C   UNL     1      -6.525  10.857  66.177  1.00  0.00    -0.114 A  
HETATM   10  C   UNL     1      -9.992  11.459  66.123  1.00  0.00    -0.265 A  
HETATM   11  C   UNL     1      -6.928  12.404  67.957  1.00  0.00    -0.097 A  
HETATM   12  C   UNL     1      -6.040  11.702  67.150  1.00  0.00    -0.130 A  
BRANCH   4  13
HETATM   13  C   UNL     1     -11.721  13.949  68.387  1.00  0.00    -0.356 C  
HETATM   14  H2  UNL     1     -11.760  12.733  70.086  1.00  0.00     0.000 HD 
HETATM   15  H1  UNL     1     -12.871  14.120  70.075  1.00  0.00     0.000 HD 
HETATM   16  O   UNL     1     -12.219  14.936  67.861  1.00  0.00    -0.167 OA 
HETATM   17  N   UNL     1     -12.149  13.556  69.628  1.00  0.00    -0.321 N  
ENDBRANCH   4  13
BRANCH  11  18
HETATM   18  O   UNL     1      -6.552  13.234  68.999  1.00  0.00    -0.096 OA 
BRANCH  18  19
HETATM   19  C   UNL     1      -6.164  14.553  68.836  1.00  0.00    -0.087 A  
HETATM   20  C   UNL     1      -5.850  15.237  70.018  1.00  0.00    -0.137 A  
HETATM   21  C   UNL     1      -5.724  17.372  68.845  1.00  0.00    -0.164 A  
HETATM   22  C   UNL     1      -5.622  16.628  70.023  1.00  0.00    -0.211 A  
HETATM   23  C   UNL     1      -6.019  16.685  67.666  1.00  0.00    -0.147 A  
HETATM   24 CL   UNL     1      -6.180  17.525  66.155  1.00  0.00    -0.254 Cl 
HETATM   25  C   UNL     1      -6.226  15.302  67.665  1.00  0.00    -0.155 A  
BRANCH  21  26
HETATM   26  N   UNL     1      -5.599  18.778  68.778  1.00  0.00    -0.193 N  
HETATM   27  H   UNL     1      -4.747  19.138  68.346  1.00  0.00     0.000 HD 
BRANCH  26  28
HETATM   28  C   UNL     1      -6.494  19.709  69.227  1.00  0.00    -0.330 C  
HETATM   29  O   UNL     1      -6.375  20.365  70.256  1.00  0.00    -0.408 OA 
BRANCH  28  30
HETATM   30  N   UNL     1      -7.582  19.851  68.392  1.00  0.00    -0.296 N  
HETATM   31  H   UNL     1      -7.480  20.343  67.504  1.00  0.00     0.000 HD 
BRANCH  30  32
HETATM   32  C   UNL     1      -8.852  19.315  68.763  1.00  0.00    -0.346 C  
HETATM   33  C   UNL     1     -10.150  19.850  68.235  1.00  0.00    -0.571 C  
HETATM   34  C   UNL     1      -9.636  18.529  67.746  1.00  0.00    -0.311 C  
ENDBRANCH  30  32
ENDBRANCH  28  30
ENDBRANCH  26  28
ENDBRANCH  21  26
ENDBRANCH  18  19
ENDBRANCH  11  18
ENDBRANCH   2   3
TORSDOF 8
ENDMDL
MODEL      100
REMARK 921   NORMALIZED FREE ENERGY PREDICTED BY IDOCK:   -5.11 KCAL/MOL
REMARK 922        TOTAL FREE ENERGY PREDICTED BY IDOCK:   -9.04 KCAL/MOL
REMARK 923 INTER-LIGAND FREE ENERGY PREDICTED BY IDOCK:   -8.10 KCAL/MOL
REMARK 924 INTRA-LIGAND FREE ENERGY PREDICTED BY IDOCK:   -0.94 KCAL/MOL
REMARK 927      BINDING AFFINITY PREDICTED BY RF-SCORE:    0.00 PKD
ROOT
HETATM    1  C   UNL     1      -8.470   4.209  73.002  1.00  0.00    -0.093 C  
HETATM    2  O   UNL     1      -8.503   5.632  73.095  1.00  0.00    -0.118 OA 
ENDROOT
BRANCH   2   3
HETATM    3  C   UNL     1      -8.760   6.296  71.924  1.00  0.00    -0.136 A  
HETATM    4  C   UNL     1      -8.412   7.649  71.810  1.00  0.00    -0.124 A  
HETATM    5  N   UNL     1     -10.465   5.654  68.817  1.00  0.00    -0.220 NA 
HETATM    6  C   UNL     1      -8.737   8.350  70.627  1.00  0.00    -0.158 A  
HETATM    7  C   UNL     1      -9.779   6.357  69.719  1.00  0.00    -0.154 A  
HETATM    8  C   UNL     1      -9.433   7.719  69.561  1.00  0.00    -0.160 A  
HETATM    9  C   UNL     1     -10.929   6.302  67.744  1.00  0.00    -0.332 A  
HETATM   10  C   UNL     1      -9.445   5.682  70.875  1.00  0.00    -0.202 A  
HETATM   11  C   UNL     1      -9.853   8.350  68.353  1.00  0.00    -0.176 A  
HETATM   12  C   UNL     1     -10.694   7.638  67.505  1.00  0.00    -0.280 A  
BRANCH   4  13
HETATM   13  C   UNL     1      -7.650   8.325  72.901  1.00  0.00    -0.109 C  
HETATM   14  H2  UNL     1      -5.847   8.212  71.850  1.00  0.00     0.000 HD 
HETATM   15  H1  UNL     1      -5.787   8.979  73.452  1.00  0.00     0.000 HD 
HETATM   16  O   UNL     1      -8.167   8.693  73.947  1.00  0.00    -0.379 OA 
HETATM   17  N   UNL     1      -6.308   8.518  72.707  1.00  0.00    -0.093 N  
ENDBRANCH   4  13
BRANCH  11  18
HETATM   18  O   UNL     1      -9.504   9.677  68.175  1.00  0.00    -0.133 OA 
BRANCH  18  19
HETATM   19  C   UNL     1     -10.368  10.648  67.698  1.00  0.00    -0.209 A  
HETATM   20  C   UNL     1     -10.511  10.693  66.305  1.00  0.00    -0.268 A  
HETATM   21  C   UNL     1     -11.761  12.785  66.419  1.00  0.00    -0.403 A  
HETATM   22  C   UNL     1     -11.208  11.742  65.671  1.00  0.00    -0.324 A  
HETATM   23  C   UNL     1     -11.633  12.727  67.807  1.00  0.00    -0.353 A  
HETATM   24 CL   UNL     1     -12.276  13.984  68.820  1.00  0.00    -0.330 Cl 
HETATM   25  C   UNL     1     -10.957  11.674  68.431  1.00  0.00    -0.265 A  
BRANCH  21  26
HETATM   26  N   UNL     1     -12.396  13.916  65.859  1.00  0.00    -0.466 N  
HETATM   27  H   UNL     1     -13.242  14.241  66.328  1.00  0.00     0.000 HD 
BRANCH  26  28
HETATM   28  C   UNL     1     -12.000  14.624  64.757  1.00  0.00    -0.433 C  
HETATM   29  O   UNL     1     -12.663  14.769  63.735  1.00  0.00    -0.767 OA 
BRANCH  28  30
HETATM   30  N   UNL     1     -10.747  15.179  64.900  1.00  0.00    -0.519 N  
HETATM   31  H   UNL     1      -9.929  14.683  64.547  1.00  0.00     0.000 HD 
BRANCH  30  32
HETATM   32  C   UNL     1     -10.585  16.446  65.538  1.00  0.00    -0.330 C  
HETATM   33  C   UNL     1     -10.415  16.598  67.021  1.00  0.00    -0.283 C  
HETATM   34  C   UNL     1      -9.242  16.807  66.112  1.00  0.00    -0.284 C  
ENDBRANCH  30  32
ENDBRANCH  28  30
ENDBRANCH  26  28
ENDBRANCH  21  26
ENDBRANCH  18  19
ENDBRANCH  11  18
ENDBRANCH   2   3
TORSDOF 8
ENDMDL
MODEL      101
REMARK 921   NORMALIZED FREE ENERGY PREDICTED BY IDOCK:   -5.08 KCAL/MOL
REMARK 922        TOTAL FREE ENERGY PREDICTED BY IDOCK:   -9.00 KCAL/MOL
REMARK 923 INTER-LIGAND FREE ENERGY PREDICTED BY IDOCK:   -8.28 KCAL/MOL
REMARK 924 INTRA-LIGAND FREE ENERGY PREDICTED BY IDOCK:   -0.71 KCAL/MOL
REMARK 927      BINDING AFFINITY PREDICTED BY RF-SCORE:    0.00 PKD
ROOT
HETATM    1  C   UNL     1     -13.826  15.665  72.511  1.00  0.00    -0.555 C  
HETATM    2  O   UNL     1     -13.382  15.344  71.193  1.00  0.00    -0.475 OA 
ENDROOT
BRANCH   2   3
HETATM    3  C   UNL     1     -12.889  14.076  71.028  1.00  0.00    -0.340 A  
HETATM    4  C   UNL     1     -11.927  13.837  70.036  1.00  0.00    -0.407 A  
HETATM    5  N   UNL     1     -13.548  10.773  72.303  1.00  0.00    -0.089 NA 
HETATM    6  C   UNL     1     -11.468  12.518  69.821  1.00  0.00    -0.211 A  
HETATM    7  C   UNL     1     -12.957  11.705  71.555  1.00  0.00    -0.358 A  
HETATM    8  C   UNL     1     -11.978  11.426  70.573  1.00  0.00    -0.451 A  
HETATM    9  C   UNL     1     -13.263   9.493  72.044  1.00  0.00    -0.452 A  
HETATM   10  C   UNL     1     -13.387  12.999  71.762  1.00  0.00    -0.468 A  
HETATM   11  C   UNL     1     -11.621  10.056  70.397  1.00  0.00    -0.302 A  
HETATM   12  C   UNL     1     -12.361   9.098  71.081  1.00  0.00    -0.330 A  
BRANCH   4  13
HETATM   13  C   UNL     1     -11.350  14.972  69.258  1.00  0.00    -0.296 C  
HETATM   14  H2  UNL     1     -12.159  14.283  67.459  1.00  0.00     0.000 HD 
HETATM   15  H1  UNL     1     -11.206  15.782  67.380  1.00  0.00     0.000 HD 
HETATM   16  O   UNL     1     -10.665  15.850  69.766  1.00  0.00    -0.270 OA 
HETATM   17  N   UNL     1     -11.600  15.006  67.912  1.00  0.00    -0.340 N  
ENDBRANCH   4  13
BRANCH  11  18
HETATM   18  O   UNL     1     -10.650   9.769  69.453  1.00  0.00    -0.207 OA 
BRANCH  18  19
HETATM   19  C   UNL     1     -10.452   8.514  68.904  1.00  0.00    -0.188 A  
HETATM   20  C   UNL     1     -10.617   8.433  67.515  1.00  0.00    -0.285 A  
HETATM   21  C   UNL     1     -10.499   5.997  67.561  1.00  0.00    -0.240 A  
HETATM   22  C   UNL     1     -10.630   7.191  66.848  1.00  0.00    -0.371 A  
HETATM   23  C   UNL     1     -10.315   6.082  68.941  1.00  0.00    -0.218 A  
HETATM   24 CL   UNL     1     -10.156   4.652  69.914  1.00  0.00    -0.305 Cl 
HETATM   25  C   UNL     1     -10.285   7.318  69.595  1.00  0.00    -0.214 A  
BRANCH  21  26
HETATM   26  N   UNL     1     -10.589   4.711  66.983  1.00  0.00    -0.091 N  
HETATM   27  H   UNL     1     -10.956   3.969  67.580  1.00  0.00     0.000 HD 
BRANCH  26  28
HETATM   28  C   UNL     1     -10.239   4.351  65.710  1.00  0.00    -0.234 C  
HETATM   29  O   UNL     1     -10.996   4.342  64.745  1.00  0.00    -0.249 OA 
BRANCH  28  30
HETATM   30  N   UNL     1      -8.915   3.986  65.602  1.00  0.00    -0.126 N  
HETATM   31  H   UNL     1      -8.383   4.244  64.771  1.00  0.00     0.000 HD 
BRANCH  30  32
HETATM   32  C   UNL     1      -8.281   3.247  66.647  1.00  0.00    -0.096 C  
HETATM   33  C   UNL     1      -6.834   2.854  66.608  1.00  0.00    -0.048 C  
HETATM   34  C   UNL     1      -7.284   3.945  67.533  1.00  0.00    -0.067 C  
ENDBRANCH  30  32
ENDBRANCH  28  30
ENDBRANCH  26  28
ENDBRANCH  21  26
ENDBRANCH  18  19
ENDBRANCH  11  18
ENDBRANCH   2   3
TORSDOF 8
ENDMDL
MODEL      102
REMARK 921   NORMALIZED FREE ENERGY PREDICTED BY IDOCK:   -5.07 KCAL/MOL
REMARK 922        TOTAL FREE ENERGY PREDICTED BY IDOCK:   -8.97 KCAL/MOL
REMARK 923 INTER-LIGAND FREE ENERGY PREDICTED BY IDOCK:   -8.06 KCAL/MOL
REMARK 924 INTRA-LIGAND FREE ENERGY PREDICTED BY IDOCK:   -0.92 KCAL/MOL
REMARK 927      BINDING AFFINITY PREDICTED BY RF-SCORE:    0.00 PKD
ROOT
HETATM    1  C   UNL     1     -11.254   3.942  73.456  1.00  0.00    -0.218 C  
HETATM    2  O   UNL     1     -10.674   5.197  73.105  1.00  0.00    -0.218 OA 
ENDROOT
BRANCH   2   3
HETATM    3  C   UNL     1     -10.520   5.422  71.762  1.00  0.00    -0.226 A  
HETATM    4  C   UNL     1     -11.159   6.521  71.171  1.00  0.00    -0.332 A  
HETATM    5  N   UNL     1      -9.043   3.753  68.933  1.00  0.00    -0.128 NA 
HETATM    6  C   UNL     1     -11.055   6.715  69.775  1.00  0.00    -0.398 A  
HETATM    7  C   UNL     1      -9.715   4.702  69.585  1.00  0.00    -0.213 A  
HETATM    8  C   UNL     1     -10.335   5.806  68.954  1.00  0.00    -0.295 A  
HETATM    9  C   UNL     1      -9.035   3.802  67.597  1.00  0.00    -0.134 A  
HETATM   10  C   UNL     1      -9.816   4.532  70.950  1.00  0.00    -0.269 A  
HETATM   11  C   UNL     1     -10.215   5.882  67.535  1.00  0.00    -0.190 A  
HETATM   12  C   UNL     1      -9.642   4.803  66.872  1.00  0.00    -0.185 A  
BRANCH   4  13
HETATM   13  C   UNL     1     -11.892   7.510  72.016  1.00  0.00    -0.294 C  
HETATM   14  H2  UNL     1     -10.127   8.256  72.850  1.00  0.00     0.000 HD 
HETATM   15  H1  UNL     1     -11.644   8.998  73.403  1.00  0.00     0.000 HD 
HETATM   16  O   UNL     1     -13.111   7.609  72.022  1.00  0.00    -0.273 OA 
HETATM   17  N   UNL     1     -11.144   8.323  72.826  1.00  0.00    -0.335 N  
ENDBRANCH   4  13
BRANCH  11  18
HETATM   18  O   UNL     1     -10.799   6.967  66.906  1.00  0.00    -0.354 OA 
BRANCH  18  19
HETATM   19  C   UNL     1     -10.190   8.203  66.771  1.00  0.00    -0.302 A  
HETATM   20  C   UNL     1     -10.661   9.204  67.631  1.00  0.00    -0.257 A  
HETATM   21  C   UNL     1      -9.407  10.928  66.446  1.00  0.00    -0.176 A  
HETATM   22  C   UNL     1     -10.267  10.549  67.479  1.00  0.00    -0.245 A  
HETATM   23  C   UNL     1      -8.924   9.927  65.602  1.00  0.00    -0.171 A  
HETATM   24 CL   UNL     1      -7.860  10.302  64.282  1.00  0.00    -0.146 Cl 
HETATM   25  C   UNL     1      -9.304   8.591  65.770  1.00  0.00    -0.187 A  
BRANCH  21  26
HETATM   26  N   UNL     1      -9.034  12.262  66.170  1.00  0.00    -0.415 N  
HETATM   27  H   UNL     1      -8.042  12.431  65.999  1.00  0.00     0.000 HD 
BRANCH  26  28
HETATM   28  C   UNL     1      -9.857  13.354  66.107  1.00  0.00    -0.281 C  
HETATM   29  O   UNL     1     -10.493  13.814  67.049  1.00  0.00    -0.270 OA 
BRANCH  28  30
HETATM   30  N   UNL     1      -9.911  13.910  64.847  1.00  0.00    -0.615 N  
HETATM   31  H   UNL     1      -9.253  14.646  64.589  1.00  0.00     0.000 HD 
BRANCH  30  32
HETATM   32  C   UNL     1     -10.883  13.465  63.902  1.00  0.00    -0.046 C  
HETATM   33  C   UNL     1     -11.835  12.339  64.177  1.00  0.00    -0.502 C  
HETATM   34  C   UNL     1     -12.338  13.751  64.161  1.00  0.00    -0.382 C  
ENDBRANCH  30  32
ENDBRANCH  28  30
ENDBRANCH  26  28
ENDBRANCH  21  26
ENDBRANCH  18  19
ENDBRANCH  11  18
ENDBRANCH   2   3
TORSDOF 8
ENDMDL
MODEL      103
REMARK 921   NORMALIZED FREE ENERGY PREDICTED BY IDOCK:   -5.04 KCAL/MOL
REMARK 922        TOTAL FREE ENERGY PREDICTED BY IDOCK:   -8.93 KCAL/MOL
REMARK 923 INTER-LIGAND FREE ENERGY PREDICTED BY IDOCK:   -7.78 KCAL/MOL
REMARK 924 INTRA-LIGAND FREE ENERGY PREDICTED BY IDOCK:   -1.15 KCAL/MOL
REMARK 927      BINDING AFFINITY PREDICTED BY RF-SCORE:    0.00 PKD
ROOT
HETATM    1  C   UNL     1      -9.075   2.586  65.242  1.00  0.00    -0.127 C  
HETATM    2  O   UNL     1      -8.644   3.864  64.778  1.00  0.00    -0.110 OA 
ENDROOT
BRANCH   2   3
HETATM    3  C   UNL     1      -9.010   4.931  65.556  1.00  0.00    -0.149 A  
HETATM    4  C   UNL     1      -8.525   6.208  65.244  1.00  0.00    -0.121 A  
HETATM    5  N   UNL     1     -10.807   5.498  68.626  1.00  0.00    -0.117 NA 
HETATM    6  C   UNL     1      -8.848   7.297  66.084  1.00  0.00    -0.181 A  
HETATM    7  C   UNL     1     -10.095   5.814  67.544  1.00  0.00    -0.171 A  
HETATM    8  C   UNL     1      -9.635   7.119  67.254  1.00  0.00    -0.179 A  
HETATM    9  C   UNL     1     -11.018   6.456  69.533  1.00  0.00    -0.359 A  
HETATM   10  C   UNL     1      -9.781   4.762  66.707  1.00  0.00    -0.203 A  
HETATM   11  C   UNL     1      -9.971   8.138  68.194  1.00  0.00    -0.186 A  
HETATM   12  C   UNL     1     -10.579   7.752  69.382  1.00  0.00    -0.211 A  
BRANCH   4  13
HETATM   13  C   UNL     1      -7.726   6.427  64.002  1.00  0.00    -0.104 C  
HETATM   14  H2  UNL     1      -5.924   6.519  65.055  1.00  0.00     0.000 HD 
HETATM   15  H1  UNL     1      -5.825   6.713  63.291  1.00  0.00     0.000 HD 
HETATM   16  O   UNL     1      -8.229   6.499  62.888  1.00  0.00    -0.092 OA 
HETATM   17  N   UNL     1      -6.370   6.564  64.140  1.00  0.00    -0.036 N  
ENDBRANCH   4  13
BRANCH  11  18
HETATM   18  O   UNL     1      -9.545   9.425  67.913  1.00  0.00    -0.132 OA 
BRANCH  18  19
HETATM   19  C   UNL     1     -10.376  10.432  67.453  1.00  0.00    -0.228 A  
HETATM   20  C   UNL     1     -10.529  10.496  66.062  1.00  0.00    -0.226 A  
HETATM   21  C   UNL     1     -11.697  12.633  66.207  1.00  0.00    -0.402 A  
HETATM   22  C   UNL     1     -11.191  11.577  65.445  1.00  0.00    -0.207 A  
HETATM   23  C   UNL     1     -11.560  12.557  67.593  1.00  0.00    -0.355 A  
HETATM   24 CL   UNL     1     -12.146  13.827  68.623  1.00  0.00    -0.390 Cl 
HETATM   25  C   UNL     1     -10.918  11.473  68.201  1.00  0.00    -0.279 A  
BRANCH  21  26
HETATM   26  N   UNL     1     -12.294  13.793  65.663  1.00  0.00    -0.452 N  
HETATM   27  H   UNL     1     -13.095  14.171  66.170  1.00  0.00     0.000 HD 
BRANCH  26  28
HETATM   28  C   UNL     1     -11.915  14.464  64.533  1.00  0.00    -0.472 C  
HETATM   29  O   UNL     1     -12.543  14.485  63.480  1.00  0.00    -0.746 OA 
BRANCH  28  30
HETATM   30  N   UNL     1     -10.722  15.137  64.685  1.00  0.00    -0.612 N  
HETATM   31  H   UNL     1     -10.031  15.121  63.935  1.00  0.00     0.000 HD 
BRANCH  30  32
HETATM   32  C   UNL     1     -10.446  15.857  65.886  1.00  0.00    -0.359 C  
HETATM   33  C   UNL     1      -9.091  16.412  66.213  1.00  0.00    -0.362 C  
HETATM   34  C   UNL     1     -10.197  17.339  65.807  1.00  0.00    -0.212 C  
ENDBRANCH  30  32
ENDBRANCH  28  30
ENDBRANCH  26  28
ENDBRANCH  21  26
ENDBRANCH  18  19
ENDBRANCH  11  18
ENDBRANCH   2   3
TORSDOF 8
ENDMDL
MODEL      104
REMARK 921   NORMALIZED FREE ENERGY PREDICTED BY IDOCK:   -5.04 KCAL/MOL
REMARK 922        TOTAL FREE ENERGY PREDICTED BY IDOCK:   -8.93 KCAL/MOL
REMARK 923 INTER-LIGAND FREE ENERGY PREDICTED BY IDOCK:   -7.58 KCAL/MOL
REMARK 924 INTRA-LIGAND FREE ENERGY PREDICTED BY IDOCK:   -1.35 KCAL/MOL
REMARK 927      BINDING AFFINITY PREDICTED BY RF-SCORE:    0.00 PKD
ROOT
HETATM    1  C   UNL     1      -8.773   3.445  71.526  1.00  0.00    -0.081 C  
HETATM    2  O   UNL     1      -8.622   4.748  72.084  1.00  0.00    -0.117 OA 
ENDROOT
BRANCH   2   3
HETATM    3  C   UNL     1      -8.997   5.787  71.273  1.00  0.00    -0.140 A  
HETATM    4  C   UNL     1      -9.616   6.911  71.837  1.00  0.00    -0.159 A  
HETATM    5  N   UNL     1      -9.140   6.494  67.743  1.00  0.00    -0.114 NA 
HETATM    6  C   UNL     1     -10.063   7.953  70.993  1.00  0.00    -0.212 A  
HETATM    7  C   UNL     1      -9.303   6.717  69.048  1.00  0.00    -0.134 A  
HETATM    8  C   UNL     1      -9.920   7.872  69.581  1.00  0.00    -0.191 A  
HETATM    9  C   UNL     1      -9.675   7.373  66.891  1.00  0.00    -0.205 A  
HETATM   10  C   UNL     1      -8.861   5.713  69.886  1.00  0.00    -0.135 A  
HETATM   11  C   UNL     1     -10.384   8.840  68.642  1.00  0.00    -0.205 A  
HETATM   12  C   UNL     1     -10.338   8.511  67.292  1.00  0.00    -0.372 A  
BRANCH   4  13
HETATM   13  C   UNL     1      -9.746   7.034  73.319  1.00  0.00    -0.198 C  
HETATM   14  H2  UNL     1      -8.053   8.252  73.467  1.00  0.00     0.000 HD 
HETATM   15  H1  UNL     1      -8.898   7.875  74.985  1.00  0.00     0.000 HD 
HETATM   16  O   UNL     1     -10.632   6.485  73.959  1.00  0.00    -0.310 OA 
HETATM   17  N   UNL     1      -8.809   7.791  73.973  1.00  0.00    -0.263 N  
ENDBRANCH   4  13
BRANCH  11  18
HETATM   18  O   UNL     1     -10.972   9.986  69.149  1.00  0.00    -0.223 OA 
BRANCH  18  19
HETATM   19  C   UNL     1     -10.711  11.262  68.681  1.00  0.00    -0.205 A  
HETATM   20  C   UNL     1     -11.839  12.017  68.331  1.00  0.00    -0.360 A  
HETATM   21  C   UNL     1     -10.461  13.759  67.320  1.00  0.00    -0.264 A  
HETATM   22  C   UNL     1     -11.718  13.255  67.669  1.00  0.00    -0.408 A  
HETATM   23  C   UNL     1      -9.340  13.014  67.687  1.00  0.00    -0.202 A  
HETATM   24 CL   UNL     1      -7.737  13.552  67.287  1.00  0.00    -0.138 Cl 
HETATM   25  C   UNL     1      -9.466  11.795  68.361  1.00  0.00    -0.188 A  
BRANCH  21  26
HETATM   26  N   UNL     1     -10.256  14.944  66.580  1.00  0.00    -0.256 N  
HETATM   27  H   UNL     1      -9.983  15.771  67.113  1.00  0.00     0.000 HD 
BRANCH  26  28
HETATM   28  C   UNL     1     -10.383  15.106  65.228  1.00  0.00    -0.396 C  
HETATM   29  O   UNL     1     -10.733  16.140  64.669  1.00  0.00    -0.637 OA 
BRANCH  28  30
HETATM   30  N   UNL     1     -10.073  13.963  64.521  1.00  0.00    -0.656 N  
HETATM   31  H   UNL     1      -9.139  13.560  64.592  1.00  0.00     0.000 HD 
BRANCH  30  32
HETATM   32  C   UNL     1     -11.052  13.339  63.691  1.00  0.00    -0.012 C  
HETATM   33  C   UNL     1     -11.789  12.095  64.090  1.00  0.00    -0.490 C  
HETATM   34  C   UNL     1     -12.502  13.414  64.090  1.00  0.00    -0.312 C  
ENDBRANCH  30  32
ENDBRANCH  28  30
ENDBRANCH  26  28
ENDBRANCH  21  26
ENDBRANCH  18  19
ENDBRANCH  11  18
ENDBRANCH   2   3
TORSDOF 8
ENDMDL
MODEL      105
REMARK 921   NORMALIZED FREE ENERGY PREDICTED BY IDOCK:   -5.00 KCAL/MOL
REMARK 922        TOTAL FREE ENERGY PREDICTED BY IDOCK:   -8.87 KCAL/MOL
REMARK 923 INTER-LIGAND FREE ENERGY PREDICTED BY IDOCK:   -7.63 KCAL/MOL
REMARK 924 INTRA-LIGAND FREE ENERGY PREDICTED BY IDOCK:   -1.24 KCAL/MOL
REMARK 927      BINDING AFFINITY PREDICTED BY RF-SCORE:    0.00 PKD
ROOT
HETATM    1  C   UNL     1      -7.576   6.147  67.745  1.00  0.00    -0.097 C  
HETATM    2  O   UNL     1      -8.939   6.253  67.337  1.00  0.00    -0.111 OA 
ENDROOT
BRANCH   2   3
HETATM    3  C   UNL     1      -9.400   7.528  67.137  1.00  0.00    -0.142 A  
HETATM    4  C   UNL     1     -10.123   8.166  68.155  1.00  0.00    -0.237 A  
HETATM    5  N   UNL     1      -9.577   9.903  64.435  1.00  0.00    -0.260 NA 
HETATM    6  C   UNL     1     -10.655   9.454  67.924  1.00  0.00    -0.293 A  
HETATM    7  C   UNL     1      -9.770   9.426  65.665  1.00  0.00    -0.266 A  
HETATM    8  C   UNL     1     -10.493  10.107  66.672  1.00  0.00    -0.254 A  
HETATM    9  C   UNL     1     -10.181  11.050  64.111  1.00  0.00    -0.357 A  
HETATM   10  C   UNL     1      -9.246   8.173  65.909  1.00  0.00    -0.158 A  
HETATM   11  C   UNL     1     -11.034  11.379  66.321  1.00  0.00    -0.247 A  
HETATM   12  C   UNL     1     -10.948  11.779  64.993  1.00  0.00    -0.357 A  
BRANCH   4  13
HETATM   13  C   UNL     1     -10.275   7.516  69.490  1.00  0.00    -0.207 C  
HETATM   14  H2  UNL     1     -11.985   6.470  68.898  1.00  0.00     0.000 HD 
HETATM   15  H1  UNL     1     -11.434   6.213  70.568  1.00  0.00     0.000 HD 
HETATM   16  O   UNL     1      -9.516   7.727  70.426  1.00  0.00    -0.163 OA 
HETATM   17  N   UNL     1     -11.330   6.657  69.657  1.00  0.00    -0.341 N  
ENDBRANCH   4  13
BRANCH  11  18
HETATM   18  O   UNL     1     -11.728  12.066  67.303  1.00  0.00    -0.481 OA 
BRANCH  18  19
HETATM   19  C   UNL     1     -11.250  13.200  67.937  1.00  0.00    -0.270 A  
HETATM   20  C   UNL     1     -12.153  14.269  68.017  1.00  0.00    -0.289 A  
HETATM   21  C   UNL     1     -10.417  15.781  68.826  1.00  0.00    -0.228 A  
HETATM   22  C   UNL     1     -11.746  15.542  68.466  1.00  0.00    -0.351 A  
HETATM   23  C   UNL     1      -9.525  14.710  68.763  1.00  0.00    -0.199 A  
HETATM   24 CL   UNL     1      -7.851  14.912  69.178  1.00  0.00    -0.169 Cl 
HETATM   25  C   UNL     1      -9.939  13.444  68.334  1.00  0.00    -0.231 A  
BRANCH  21  26
HETATM   26  N   UNL     1      -9.909  17.045  69.200  1.00  0.00    -0.236 N  
HETATM   27  H   UNL     1      -9.668  17.164  70.184  1.00  0.00     0.000 HD 
BRANCH  26  28
HETATM   28  C   UNL     1      -9.704  18.126  68.388  1.00  0.00    -0.355 C  
HETATM   29  O   UNL     1     -10.520  19.017  68.178  1.00  0.00    -0.377 OA 
BRANCH  28  30
HETATM   30  N   UNL     1      -8.456  18.127  67.803  1.00  0.00    -0.245 N  
HETATM   31  H   UNL     1      -8.253  17.484  67.037  1.00  0.00     0.000 HD 
BRANCH  30  32
HETATM   32  C   UNL     1      -7.443  19.023  68.261  1.00  0.00    -0.292 C  
HETATM   33  C   UNL     1      -6.108  18.559  68.763  1.00  0.00    -0.222 C  
HETATM   34  C   UNL     1      -6.210  19.220  67.421  1.00  0.00    -0.198 C  
ENDBRANCH  30  32
ENDBRANCH  28  30
ENDBRANCH  26  28
ENDBRANCH  21  26
ENDBRANCH  18  19
ENDBRANCH  11  18
ENDBRANCH   2   3
TORSDOF 8
ENDMDL
MODEL      106
REMARK 921   NORMALIZED FREE ENERGY PREDICTED BY IDOCK:   -4.95 KCAL/MOL
REMARK 922        TOTAL FREE ENERGY PREDICTED BY IDOCK:   -8.81 KCAL/MOL
REMARK 923 INTER-LIGAND FREE ENERGY PREDICTED BY IDOCK:   -8.18 KCAL/MOL
REMARK 924 INTRA-LIGAND FREE ENERGY PREDICTED BY IDOCK:   -0.63 KCAL/MOL
REMARK 927      BINDING AFFINITY PREDICTED BY RF-SCORE:    0.00 PKD
ROOT
HETATM    1  C   UNL     1     -10.886  19.268  66.813  1.00  0.00    -0.355 C  
HETATM    2  O   UNL     1     -10.197  18.633  65.737  1.00  0.00    -0.552 OA 
ENDROOT
BRANCH   2   3
HETATM    3  C   UNL     1     -10.263  17.264  65.718  1.00  0.00    -0.198 A  
HETATM    4  C   UNL     1      -9.376  16.522  66.510  1.00  0.00    -0.295 A  
HETATM    5  N   UNL     1     -12.012  14.705  63.883  1.00  0.00    -0.352 NA 
HETATM    6  C   UNL     1      -9.399  15.111  66.441  1.00  0.00    -0.332 A  
HETATM    7  C   UNL     1     -11.157  15.212  64.773  1.00  0.00    -0.382 A  
HETATM    8  C   UNL     1     -10.287  14.429  65.566  1.00  0.00    -0.382 A  
HETATM    9  C   UNL     1     -11.976  13.387  63.666  1.00  0.00    -0.446 A  
HETATM   10  C   UNL     1     -11.131  16.589  64.860  1.00  0.00    -0.199 A  
HETATM   11  C   UNL     1     -10.351  13.016  65.382  1.00  0.00    -0.300 A  
HETATM   12  C   UNL     1     -11.138  12.530  64.345  1.00  0.00    -0.383 A  
BRANCH   4  13
HETATM   13  C   UNL     1      -8.458  17.215  67.463  1.00  0.00    -0.198 C  
HETATM   14  H2  UNL     1      -9.673  16.780  69.107  1.00  0.00     0.000 HD 
HETATM   15  H1  UNL     1      -8.188  17.700  69.436  1.00  0.00     0.000 HD 
HETATM   16  O   UNL     1      -7.427  17.772  67.110  1.00  0.00    -0.186 OA 
HETATM   17  N   UNL     1      -8.815  17.227  68.785  1.00  0.00    -0.264 N  
ENDBRANCH   4  13
BRANCH  11  18
HETATM   18  O   UNL     1      -9.519  12.236  66.166  1.00  0.00    -0.239 OA 
BRANCH  18  19
HETATM   19  C   UNL     1      -9.558  10.852  66.196  1.00  0.00    -0.202 A  
HETATM   20  C   UNL     1     -10.489  10.295  67.084  1.00  0.00    -0.311 A  
HETATM   21  C   UNL     1      -9.582   8.054  66.758  1.00  0.00    -0.216 A  
HETATM   22  C   UNL     1     -10.510   8.912  67.355  1.00  0.00    -0.347 A  
HETATM   23  C   UNL     1      -8.669   8.609  65.860  1.00  0.00    -0.172 A  
HETATM   24 CL   UNL     1      -7.469   7.624  65.080  1.00  0.00    -0.084 Cl 
HETATM   25  C   UNL     1      -8.665   9.979  65.581  1.00  0.00    -0.171 A  
BRANCH  21  26
HETATM   26  N   UNL     1      -9.477   6.674  67.042  1.00  0.00    -0.138 N  
HETATM   27  H   UNL     1      -8.549   6.332  67.294  1.00  0.00     0.000 HD 
BRANCH  26  28
HETATM   28  C   UNL     1     -10.483   5.747  67.017  1.00  0.00    -0.280 C  
HETATM   29  O   UNL     1     -10.988   5.281  66.001  1.00  0.00    -0.171 OA 
BRANCH  28  30
HETATM   30  N   UNL     1     -10.895   5.371  68.277  1.00  0.00    -0.003 N  
HETATM   31  H   UNL     1     -11.488   4.548  68.392  1.00  0.00     0.000 HD 
BRANCH  30  32
HETATM   32  C   UNL     1     -10.497   6.123  69.423  1.00  0.00    -0.256 C  
HETATM   33  C   UNL     1     -11.450   6.514  70.514  1.00  0.00    -0.448 C  
HETATM   34  C   UNL     1     -10.437   5.437  70.761  1.00  0.00    -0.317 C  
ENDBRANCH  30  32
ENDBRANCH  28  30
ENDBRANCH  26  28
ENDBRANCH  21  26
ENDBRANCH  18  19
ENDBRANCH  11  18
ENDBRANCH   2   3
TORSDOF 8
ENDMDL
MODEL      107
REMARK 921   NORMALIZED FREE ENERGY PREDICTED BY IDOCK:   -4.95 KCAL/MOL
REMARK 922        TOTAL FREE ENERGY PREDICTED BY IDOCK:   -8.80 KCAL/MOL
REMARK 923 INTER-LIGAND FREE ENERGY PREDICTED BY IDOCK:   -7.56 KCAL/MOL
REMARK 924 INTRA-LIGAND FREE ENERGY PREDICTED BY IDOCK:   -1.24 KCAL/MOL
REMARK 927      BINDING AFFINITY PREDICTED BY RF-SCORE:    0.00 PKD
ROOT
HETATM    1  C   UNL     1     -13.768  14.068  72.343  1.00  0.00    -0.568 C  
HETATM    2  O   UNL     1     -12.735  13.125  72.060  1.00  0.00    -0.196 OA 
ENDROOT
BRANCH   2   3
HETATM    3  C   UNL     1     -12.446  12.946  70.733  1.00  0.00    -0.286 A  
HETATM    4  C   UNL     1     -12.215  11.650  70.249  1.00  0.00    -0.401 A  
HETATM    5  N   UNL     1     -11.764  14.998  67.852  1.00  0.00    -0.331 NA 
HETATM    6  C   UNL     1     -11.851  11.471  68.895  1.00  0.00    -0.406 A  
HETATM    7  C   UNL     1     -11.917  13.871  68.548  1.00  0.00    -0.359 A  
HETATM    8  C   UNL     1     -11.690  12.579  68.020  1.00  0.00    -0.410 A  
HETATM    9  C   UNL     1     -11.279  14.901  66.610  1.00  0.00    -0.340 A  
HETATM   10  C   UNL     1     -12.284  14.030  69.869  1.00  0.00    -0.399 A  
HETATM   11  C   UNL     1     -11.275  12.509  66.658  1.00  0.00    -0.307 A  
HETATM   12  C   UNL     1     -10.978  13.701  66.006  1.00  0.00    -0.288 A  
BRANCH   4  13
HETATM   13  C   UNL     1     -12.413  10.468  71.139  1.00  0.00    -0.412 C  
HETATM   14  H2  UNL     1     -14.492  10.536  70.936  1.00  0.00     0.000 HD 
HETATM   15  H1  UNL     1     -13.835   9.248  71.970  1.00  0.00     0.000 HD 
HETATM   16  O   UNL     1     -11.487   9.875  71.676  1.00  0.00    -0.329 OA 
HETATM   17  N   UNL     1     -13.700  10.055  71.362  1.00  0.00    -0.173 N  
ENDBRANCH   4  13
BRANCH  11  18
HETATM   18  O   UNL     1     -11.068  11.250  66.121  1.00  0.00    -0.248 OA 
BRANCH  18  19
HETATM   19  C   UNL     1     -10.030  10.412  66.492  1.00  0.00    -0.217 A  
HETATM   20  C   UNL     1     -10.348   9.048  66.545  1.00  0.00    -0.263 A  
HETATM   21  C   UNL     1      -8.217   8.509  67.604  1.00  0.00    -0.118 A  
HETATM   22  C   UNL     1      -9.450   8.105  67.084  1.00  0.00    -0.207 A  
HETATM   23  C   UNL     1      -7.895   9.865  67.532  1.00  0.00    -0.098 A  
HETATM   24 CL   UNL     1      -6.392  10.464  68.163  1.00  0.00    -0.052 Cl 
HETATM   25  C   UNL     1      -8.783  10.793  66.979  1.00  0.00    -0.136 A  
BRANCH  21  26
HETATM   26  N   UNL     1      -7.299   7.643  68.239  1.00  0.00    -0.096 N  
HETATM   27  H   UNL     1      -6.385   7.547  67.797  1.00  0.00     0.000 HD 
BRANCH  26  28
HETATM   28  C   UNL     1      -7.502   6.921  69.384  1.00  0.00    -0.094 C  
HETATM   29  O   UNL     1      -7.598   7.395  70.510  1.00  0.00    -0.084 OA 
BRANCH  28  30
HETATM   30  N   UNL     1      -7.590   5.565  69.152  1.00  0.00    -0.085 N  
HETATM   31  H   UNL     1      -6.743   4.996  69.139  1.00  0.00     0.000 HD 
BRANCH  30  32
HETATM   32  C   UNL     1      -8.859   4.951  68.930  1.00  0.00    -0.093 C  
HETATM   33  C   UNL     1      -9.463   3.956  69.877  1.00  0.00    -0.267 C  
HETATM   34  C   UNL     1     -10.023   5.344  69.800  1.00  0.00    -0.294 C  
ENDBRANCH  30  32
ENDBRANCH  28  30
ENDBRANCH  26  28
ENDBRANCH  21  26
ENDBRANCH  18  19
ENDBRANCH  11  18
ENDBRANCH   2   3
TORSDOF 8
ENDMDL
MODEL      108
REMARK 921   NORMALIZED FREE ENERGY PREDICTED BY IDOCK:   -4.93 KCAL/MOL
REMARK 922        TOTAL FREE ENERGY PREDICTED BY IDOCK:   -8.77 KCAL/MOL
REMARK 923 INTER-LIGAND FREE ENERGY PREDICTED BY IDOCK:   -7.68 KCAL/MOL
REMARK 924 INTRA-LIGAND FREE ENERGY PREDICTED BY IDOCK:   -1.09 KCAL/MOL
REMARK 927      BINDING AFFINITY PREDICTED BY RF-SCORE:    0.00 PKD
ROOT
HETATM    1  C   UNL     1     -10.109  18.436  67.972  1.00  0.00    -0.368 C  
HETATM    2  O   UNL     1      -9.110  17.633  67.345  1.00  0.00    -0.236 OA 
ENDROOT
BRANCH   2   3
HETATM    3  C   UNL     1      -9.469  16.335  67.091  1.00  0.00    -0.224 A  
HETATM    4  C   UNL     1      -8.516  15.317  67.235  1.00  0.00    -0.216 A  
HETATM    5  N   UNL     1     -12.322  14.566  65.785  1.00  0.00    -0.294 NA 
HETATM    6  C   UNL     1      -8.867  13.988  66.909  1.00  0.00    -0.212 A  
HETATM    7  C   UNL     1     -11.090  14.720  66.272  1.00  0.00    -0.341 A  
HETATM    8  C   UNL     1     -10.160  13.665  66.415  1.00  0.00    -0.295 A  
HETATM    9  C   UNL     1     -12.662  13.359  65.322  1.00  0.00    -0.422 A  
HETATM   10  C   UNL     1     -10.737  16.012  66.605  1.00  0.00    -0.247 A  
HETATM   11  C   UNL     1     -10.595  12.369  66.009  1.00  0.00    -0.256 A  
HETATM   12  C   UNL     1     -11.824  12.267  65.366  1.00  0.00    -0.418 A  
BRANCH   4  13
HETATM   13  C   UNL     1      -7.163  15.626  67.784  1.00  0.00    -0.155 C  
HETATM   14  H2  UNL     1      -7.830  15.517  69.762  1.00  0.00     0.000 HD 
HETATM   15  H1  UNL     1      -6.109  15.891  69.522  1.00  0.00     0.000 HD 
HETATM   16  O   UNL     1      -6.188  15.840  67.076  1.00  0.00    -0.312 OA 
HETATM   17  N   UNL     1      -7.033  15.681  69.147  1.00  0.00    -0.152 N  
ENDBRANCH   4  13
BRANCH  11  18
HETATM   18  O   UNL     1      -9.703  11.322  66.163  1.00  0.00    -0.206 OA 
BRANCH  18  19
HETATM   19  C   UNL     1      -9.922  10.233  66.989  1.00  0.00    -0.201 A  
HETATM   20  C   UNL     1     -10.014   8.995  66.340  1.00  0.00    -0.370 A  
HETATM   21  C   UNL     1     -10.761   7.889  68.383  1.00  0.00    -0.021 A  
HETATM   22  C   UNL     1     -10.418   7.833  67.029  1.00  0.00    -0.419 A  
HETATM   23  C   UNL     1     -10.649   9.120  69.031  1.00  0.00    -0.199 A  
HETATM   24 CL   UNL     1     -11.064   9.291  70.708  1.00  0.00    -0.321 Cl 
HETATM   25  C   UNL     1     -10.230  10.265  68.346  1.00  0.00    -0.189 A  
BRANCH  21  26
HETATM   26  N   UNL     1     -11.258   6.794  69.124  1.00  0.00    -0.514 N  
HETATM   27  H   UNL     1     -12.265   6.637  69.082  1.00  0.00     0.000 HD 
BRANCH  26  28
HETATM   28  C   UNL     1     -10.537   5.920  69.891  1.00  0.00    -0.299 C  
HETATM   29  O   UNL     1     -10.995   5.228  70.794  1.00  0.00    -0.130 OA 
BRANCH  28  30
HETATM   30  N   UNL     1      -9.202   5.884  69.549  1.00  0.00    -0.134 N  
HETATM   31  H   UNL     1      -8.575   6.621  69.872  1.00  0.00     0.000 HD 
BRANCH  30  32
HETATM   32  C   UNL     1      -8.691   4.821  68.745  1.00  0.00    -0.093 C  
HETATM   33  C   UNL     1      -9.356   3.480  68.643  1.00  0.00    -0.230 C  
HETATM   34  C   UNL     1      -9.428   4.436  67.490  1.00  0.00    -0.201 C  
ENDBRANCH  30  32
ENDBRANCH  28  30
ENDBRANCH  26  28
ENDBRANCH  21  26
ENDBRANCH  18  19
ENDBRANCH  11  18
ENDBRANCH   2   3
TORSDOF 8
ENDMDL
MODEL      109
REMARK 921   NORMALIZED FREE ENERGY PREDICTED BY IDOCK:   -4.92 KCAL/MOL
REMARK 922        TOTAL FREE ENERGY PREDICTED BY IDOCK:   -8.76 KCAL/MOL
REMARK 923 INTER-LIGAND FREE ENERGY PREDICTED BY IDOCK:   -9.42 KCAL/MOL
REMARK 924 INTRA-LIGAND FREE ENERGY PREDICTED BY IDOCK:    0.66 KCAL/MOL
REMARK 927      BINDING AFFINITY PREDICTED BY RF-SCORE:    0.00 PKD
ROOT
HETATM    1  C   UNL     1     -12.526   9.095  71.897  1.00  0.00    -0.387 C  
HETATM    2  O   UNL     1     -13.394   9.999  71.217  1.00  0.00    -0.376 OA 
ENDROOT
BRANCH   2   3
HETATM    3  C   UNL     1     -12.995  11.310  71.210  1.00  0.00    -0.327 A  
HETATM    4  C   UNL     1     -11.920  11.698  70.398  1.00  0.00    -0.448 A  
HETATM    5  N   UNL     1     -13.757  14.337  73.009  1.00  0.00    -0.538 NA 
HETATM    6  C   UNL     1     -11.466  13.035  70.441  1.00  0.00     0.246 A  
HETATM    7  C   UNL     1     -13.134  13.559  72.123  1.00  0.00    -0.391 A  
HETATM    8  C   UNL     1     -12.062  13.990  71.309  1.00  0.00    -0.307 A  
HETATM    9  C   UNL     1     -13.276  15.569  73.201  1.00  0.00    -0.549 A  
HETATM   10  C   UNL     1     -13.574  12.252  72.062  1.00  0.00    -0.306 A  
HETATM   11  C   UNL     1     -11.644  15.345  71.467  1.00  0.00    -0.411 A  
HETATM   12  C   UNL     1     -12.208  16.083  72.501  1.00  0.00    -0.612 A  
BRANCH   4  13
HETATM   13  C   UNL     1     -11.302  10.722  69.452  1.00  0.00    -0.285 C  
HETATM   14  H2  UNL     1     -12.705  11.128  67.957  1.00  0.00     0.000 HD 
HETATM   15  H1  UNL     1     -11.460   9.919  67.573  1.00  0.00     0.000 HD 
HETATM   16  O   UNL     1     -10.323  10.045  69.737  1.00  0.00    -0.224 OA 
HETATM   17  N   UNL     1     -11.882  10.585  68.219  1.00  0.00     0.016 N  
ENDBRANCH   4  13
BRANCH  11  18
HETATM   18  O   UNL     1     -10.608  15.787  70.662  1.00  0.00    -0.257 OA 
BRANCH  18  19
HETATM   19  C   UNL     1     -10.654  15.800  69.279  1.00  0.00    -0.244 A  
HETATM   20  C   UNL     1     -11.781  15.193  68.709  1.00  0.00    -0.366 A  
HETATM   21  C   UNL     1     -10.822  15.328  66.469  1.00  0.00    -0.311 A  
HETATM   22  C   UNL     1     -11.871  14.969  67.320  1.00  0.00    -0.163 A  
HETATM   23  C   UNL     1      -9.710  15.950  67.038  1.00  0.00    -0.228 A  
HETATM   24 CL   UNL     1      -8.351  16.421  66.064  1.00  0.00    -0.280 Cl 
HETATM   25  C   UNL     1      -9.634  16.187  68.414  1.00  0.00    -0.209 A  
BRANCH  21  26
HETATM   26  N   UNL     1     -10.794  15.059  65.083  1.00  0.00    -0.378 N  
HETATM   27  H   UNL     1     -10.141  15.611  64.526  1.00  0.00     0.000 HD 
BRANCH  26  28
HETATM   28  C   UNL     1     -11.546  14.139  64.405  1.00  0.00    -0.362 C  
HETATM   29  O   UNL     1     -12.338  14.399  63.505  1.00  0.00    -0.689 OA 
BRANCH  28  30
HETATM   30  N   UNL     1     -11.330  12.848  64.837  1.00  0.00    -0.298 N  
HETATM   31  H   UNL     1     -12.123  12.254  65.078  1.00  0.00     0.000 HD 
BRANCH  30  32
HETATM   32  C   UNL     1     -10.002  12.336  64.950  1.00  0.00    -0.195 C  
HETATM   33  C   UNL     1      -9.340  12.066  66.269  1.00  0.00    -0.228 C  
HETATM   34  C   UNL     1      -9.804  10.920  65.421  1.00  0.00    -0.308 C  
ENDBRANCH  30  32
ENDBRANCH  28  30
ENDBRANCH  26  28
ENDBRANCH  21  26
ENDBRANCH  18  19
ENDBRANCH  11  18
ENDBRANCH   2   3
TORSDOF 8
ENDMDL
MODEL      110
REMARK 921   NORMALIZED FREE ENERGY PREDICTED BY IDOCK:   -4.89 KCAL/MOL
REMARK 922        TOTAL FREE ENERGY PREDICTED BY IDOCK:   -8.71 KCAL/MOL
REMARK 923 INTER-LIGAND FREE ENERGY PREDICTED BY IDOCK:   -7.65 KCAL/MOL
REMARK 924 INTRA-LIGAND FREE ENERGY PREDICTED BY IDOCK:   -1.06 KCAL/MOL
REMARK 927      BINDING AFFINITY PREDICTED BY RF-SCORE:    0.00 PKD
ROOT
HETATM    1  C   UNL     1      -5.923   4.185  67.274  1.00  0.00    -0.024 C  
HETATM    2  O   UNL     1      -6.157   5.545  66.912  1.00  0.00    -0.027 OA 
ENDROOT
BRANCH   2   3
HETATM    3  C   UNL     1      -7.083   6.209  67.673  1.00  0.00    -0.074 A  
HETATM    4  C   UNL     1      -8.212   6.763  67.055  1.00  0.00    -0.113 A  
HETATM    5  N   UNL     1      -7.428   7.315  71.084  1.00  0.00    -0.078 NA 
HETATM    6  C   UNL     1      -9.133   7.505  67.829  1.00  0.00    -0.130 A  
HETATM    7  C   UNL     1      -7.767   7.158  69.804  1.00  0.00    -0.108 A  
HETATM    8  C   UNL     1      -8.924   7.721  69.218  1.00  0.00    -0.139 A  
HETATM    9  C   UNL     1      -8.181   8.128  71.831  1.00  0.00    -0.141 A  
HETATM   10  C   UNL     1      -6.883   6.426  69.037  1.00  0.00    -0.066 A  
HETATM   11  C   UNL     1      -9.761   8.497  70.074  1.00  0.00    -0.170 A  
HETATM   12  C   UNL     1      -9.304   8.768  71.358  1.00  0.00    -0.328 A  
BRANCH   4  13
HETATM   13  C   UNL     1      -8.471   6.520  65.605  1.00  0.00    -0.144 C  
HETATM   14  H2  UNL     1      -7.907   8.461  65.075  1.00  0.00     0.000 HD 
HETATM   15  H1  UNL     1      -8.419   7.391  63.750  1.00  0.00     0.000 HD 
HETATM   16  O   UNL     1      -8.885   5.453  65.171  1.00  0.00    -0.156 OA 
HETATM   17  N   UNL     1      -8.242   7.557  64.741  1.00  0.00    -0.105 N  
ENDBRANCH   4  13
BRANCH  11  18
HETATM   18  O   UNL     1     -10.908   9.038  69.519  1.00  0.00    -0.229 OA 
BRANCH  18  19
HETATM   19  C   UNL     1     -11.115  10.395  69.341  1.00  0.00    -0.254 A  
HETATM   20  C   UNL     1     -11.813  11.037  70.373  1.00  0.00    -0.460 A  
HETATM   21  C   UNL     1     -12.029  13.084  69.062  1.00  0.00    -0.267 A  
HETATM   22  C   UNL     1     -12.256  12.369  70.241  1.00  0.00    -0.345 A  
HETATM   23  C   UNL     1     -11.317  12.448  68.045  1.00  0.00    -0.287 A  
HETATM   24 CL   UNL     1     -10.997  13.251  66.538  1.00  0.00    -0.290 Cl 
HETATM   25  C   UNL     1     -10.864  11.133  68.188  1.00  0.00    -0.266 A  
BRANCH  21  26
HETATM   26  N   UNL     1     -12.515  14.387  68.816  1.00  0.00    -0.558 N  
HETATM   27  H   UNL     1     -13.179  14.487  68.048  1.00  0.00     0.000 HD 
BRANCH  26  28
HETATM   28  C   UNL     1     -12.193  15.531  69.495  1.00  0.00    -0.236 C  
HETATM   29  O   UNL     1     -11.232  16.251  69.251  1.00  0.00    -0.322 OA 
BRANCH  28  30
HETATM   30  N   UNL     1     -13.076  15.812  70.516  1.00  0.00    -0.753 N  
HETATM   31  H   UNL     1     -13.919  16.353  70.324  1.00  0.00     0.000 HD 
BRANCH  30  32
HETATM   32  C   UNL     1     -12.817  15.352  71.842  1.00  0.00    -0.396 C  
HETATM   33  C   UNL     1     -12.328  16.252  72.939  1.00  0.00    -0.553 C  
HETATM   34  C   UNL     1     -13.746  15.766  72.952  1.00  0.00    -0.631 C  
ENDBRANCH  30  32
ENDBRANCH  28  30
ENDBRANCH  26  28
ENDBRANCH  21  26
ENDBRANCH  18  19
ENDBRANCH  11  18
ENDBRANCH   2   3
TORSDOF 8
ENDMDL
MODEL      111
REMARK 921   NORMALIZED FREE ENERGY PREDICTED BY IDOCK:   -4.86 KCAL/MOL
REMARK 922        TOTAL FREE ENERGY PREDICTED BY IDOCK:   -8.67 KCAL/MOL
REMARK 923 INTER-LIGAND FREE ENERGY PREDICTED BY IDOCK:   -7.34 KCAL/MOL
REMARK 924 INTRA-LIGAND FREE ENERGY PREDICTED BY IDOCK:   -1.33 KCAL/MOL
REMARK 927      BINDING AFFINITY PREDICTED BY RF-SCORE:    0.00 PKD
ROOT
HETATM    1  C   UNL     1     -14.287  14.404  71.970  1.00  0.00    -0.553 C  
HETATM    2  O   UNL     1     -13.221  14.311  71.026  1.00  0.00    -0.350 OA 
ENDROOT
BRANCH   2   3
HETATM    3  C   UNL     1     -12.709  13.055  70.832  1.00  0.00    -0.217 A  
HETATM    4  C   UNL     1     -11.901  12.806  69.715  1.00  0.00    -0.380 A  
HETATM    5  N   UNL     1     -13.037   9.787  72.313  1.00  0.00    -0.402 NA 
HETATM    6  C   UNL     1     -11.428  11.496  69.479  1.00  0.00    -0.378 A  
HETATM    7  C   UNL     1     -12.603  10.706  71.449  1.00  0.00    -0.421 A  
HETATM    8  C   UNL     1     -11.775  10.419  70.340  1.00  0.00    -0.419 A  
HETATM    9  C   UNL     1     -12.745   8.508  72.059  1.00  0.00    -0.376 A  
HETATM   10  C   UNL     1     -13.048  11.993  71.672  1.00  0.00    -0.422 A  
HETATM   11  C   UNL     1     -11.396   9.056  70.161  1.00  0.00    -0.121 A  
HETATM   12  C   UNL     1     -11.985   8.103  70.984  1.00  0.00    -0.257 A  
BRANCH   4  13
HETATM   13  C   UNL     1     -11.493  13.927  68.817  1.00  0.00    -0.292 C  
HETATM   14  H2  UNL     1      -9.856  14.427  70.015  1.00  0.00     0.000 HD 
HETATM   15  H1  UNL     1     -10.105  15.413  68.558  1.00  0.00     0.000 HD 
HETATM   16  O   UNL     1     -12.110  14.227  67.803  1.00  0.00    -0.363 OA 
HETATM   17  N   UNL     1     -10.384  14.647  69.171  1.00  0.00    -0.236 N  
ENDBRANCH   4  13
BRANCH  11  18
HETATM   18  O   UNL     1     -10.568   8.763  69.091  1.00  0.00    -0.224 OA 
BRANCH  18  19
HETATM   19  C   UNL     1     -10.238   7.477  68.698  1.00  0.00    -0.197 A  
HETATM   20  C   UNL     1      -9.140   6.909  69.358  1.00  0.00    -0.141 A  
HETATM   21  C   UNL     1      -9.091   5.015  67.822  1.00  0.00    -0.114 A  
HETATM   22  C   UNL     1      -8.579   5.688  68.935  1.00  0.00    -0.101 A  
HETATM   23  C   UNL     1     -10.196   5.572  67.178  1.00  0.00    -0.218 A  
HETATM   24 CL   UNL     1     -10.895   4.815  65.780  1.00  0.00    -0.267 Cl 
HETATM   25  C   UNL     1     -10.760   6.775  67.615  1.00  0.00    -0.357 A  
BRANCH  21  26
HETATM   26  N   UNL     1      -8.534   3.835  67.280  1.00  0.00    -0.098 N  
HETATM   27  H   UNL     1      -9.047   2.970  67.451  1.00  0.00     0.000 HD 
BRANCH  26  28
HETATM   28  C   UNL     1      -7.382   3.726  66.550  1.00  0.00    -0.072 C  
HETATM   29  O   UNL     1      -6.263   3.549  67.019  1.00  0.00    -0.033 OA 
BRANCH  28  30
HETATM   30  N   UNL     1      -7.596   3.837  65.193  1.00  0.00    -0.080 N  
HETATM   31  H   UNL     1      -8.128   3.118  64.702  1.00  0.00     0.000 HD 
BRANCH  30  32
HETATM   32  C   UNL     1      -7.079   4.953  64.469  1.00  0.00    -0.054 C  
HETATM   33  C   UNL     1      -7.885   5.718  63.461  1.00  0.00    -0.106 C  
HETATM   34  C   UNL     1      -7.586   6.333  64.795  1.00  0.00    -0.093 C  
ENDBRANCH  30  32
ENDBRANCH  28  30
ENDBRANCH  26  28
ENDBRANCH  21  26
ENDBRANCH  18  19
ENDBRANCH  11  18
ENDBRANCH   2   3
TORSDOF 8
ENDMDL
MODEL      112
REMARK 921   NORMALIZED FREE ENERGY PREDICTED BY IDOCK:   -4.84 KCAL/MOL
REMARK 922        TOTAL FREE ENERGY PREDICTED BY IDOCK:   -8.64 KCAL/MOL
REMARK 923 INTER-LIGAND FREE ENERGY PREDICTED BY IDOCK:   -7.55 KCAL/MOL
REMARK 924 INTRA-LIGAND FREE ENERGY PREDICTED BY IDOCK:   -1.10 KCAL/MOL
REMARK 927      BINDING AFFINITY PREDICTED BY RF-SCORE:    0.00 PKD
ROOT
HETATM    1  C   UNL     1     -14.307   8.617  72.072  1.00  0.00    -0.422 C  
HETATM    2  O   UNL     1     -13.231   9.451  72.498  1.00  0.00    -0.426 OA 
ENDROOT
BRANCH   2   3
HETATM    3  C   UNL     1     -12.558  10.105  71.499  1.00  0.00    -0.434 A  
HETATM    4  C   UNL     1     -11.421   9.512  70.934  1.00  0.00    -0.405 A  
HETATM    5  N   UNL     1     -12.658  13.322  69.883  1.00  0.00    -0.037 NA 
HETATM    6  C   UNL     1     -10.689  10.216  69.951  1.00  0.00    -0.340 A  
HETATM    7  C   UNL     1     -12.213  12.093  70.144  1.00  0.00    -0.231 A  
HETATM    8  C   UNL     1     -11.068  11.522  69.542  1.00  0.00    -0.256 A  
HETATM    9  C   UNL     1     -11.924  14.090  69.073  1.00  0.00    -0.357 A  
HETATM   10  C   UNL     1     -12.925  11.389  71.094  1.00  0.00    -0.349 A  
HETATM   11  C   UNL     1     -10.369  12.335  68.600  1.00  0.00    -0.188 A  
HETATM   12  C   UNL     1     -10.766  13.660  68.464  1.00  0.00    -0.269 A  
BRANCH   4  13
HETATM   13  C   UNL     1     -11.023   8.127  71.322  1.00  0.00    -0.240 C  
HETATM   14  H2  UNL     1      -9.941   8.794  72.981  1.00  0.00     0.000 HD 
HETATM   15  H1  UNL     1      -9.968   7.038  72.703  1.00  0.00     0.000 HD 
HETATM   16  O   UNL     1     -11.352   7.134  70.686  1.00  0.00    -0.272 OA 
HETATM   17  N   UNL     1     -10.240   7.985  72.437  1.00  0.00    -0.255 N  
ENDBRANCH   4  13
BRANCH  11  18
HETATM   18  O   UNL     1      -9.258  11.783  67.988  1.00  0.00    -0.168 OA 
BRANCH  18  19
HETATM   19  C   UNL     1      -9.306  11.044  66.817  1.00  0.00    -0.181 A  
HETATM   20  C   UNL     1      -8.936   9.698  66.940  1.00  0.00    -0.151 A  
HETATM   21  C   UNL     1      -8.930   9.395  64.519  1.00  0.00    -0.181 A  
HETATM   22  C   UNL     1      -8.760   8.879  65.807  1.00  0.00    -0.205 A  
HETATM   23  C   UNL     1      -9.317  10.731  64.401  1.00  0.00    -0.242 A  
HETATM   24 CL   UNL     1      -9.539  11.465  62.843  1.00  0.00    -0.387 Cl 
HETATM   25  C   UNL     1      -9.508  11.534  65.530  1.00  0.00    -0.234 A  
BRANCH  21  26
HETATM   26  N   UNL     1      -8.687   8.669  63.332  1.00  0.00    -0.427 N  
HETATM   27  H   UNL     1      -9.152   9.007  62.489  1.00  0.00     0.000 HD 
BRANCH  26  28
HETATM   28  C   UNL     1      -7.897   7.561  63.189  1.00  0.00    -0.133 C  
HETATM   29  O   UNL     1      -6.699   7.577  62.929  1.00  0.00    -0.064 OA 
BRANCH  28  30
HETATM   30  N   UNL     1      -8.590   6.383  63.366  1.00  0.00    -0.305 N  
HETATM   31  H   UNL     1      -9.468   6.231  62.869  1.00  0.00     0.000 HD 
BRANCH  30  32
HETATM   32  C   UNL     1      -8.087   5.373  64.241  1.00  0.00    -0.123 C  
HETATM   33  C   UNL     1      -8.134   5.489  65.736  1.00  0.00    -0.112 C  
HETATM   34  C   UNL     1      -9.061   4.543  65.033  1.00  0.00    -0.152 C  
ENDBRANCH  30  32
ENDBRANCH  28  30
ENDBRANCH  26  28
ENDBRANCH  21  26
ENDBRANCH  18  19
ENDBRANCH  11  18
ENDBRANCH   2   3
TORSDOF 8
ENDMDL
MODEL      113
REMARK 921   NORMALIZED FREE ENERGY PREDICTED BY IDOCK:   -4.80 KCAL/MOL
REMARK 922        TOTAL FREE ENERGY PREDICTED BY IDOCK:   -8.58 KCAL/MOL
REMARK 923 INTER-LIGAND FREE ENERGY PREDICTED BY IDOCK:   -7.79 KCAL/MOL
REMARK 924 INTRA-LIGAND FREE ENERGY PREDICTED BY IDOCK:   -0.78 KCAL/MOL
REMARK 927      BINDING AFFINITY PREDICTED BY RF-SCORE:    0.00 PKD
ROOT
HETATM    1  C   UNL     1     -10.997   7.010  68.471  1.00  0.00    -0.077 C  
HETATM    2  O   UNL     1     -10.620   7.988  69.437  1.00  0.00    -0.229 OA 
ENDROOT
BRANCH   2   3
HETATM    3  C   UNL     1     -10.334   9.232  68.939  1.00  0.00    -0.214 A  
HETATM    4  C   UNL     1      -9.051   9.768  69.122  1.00  0.00    -0.166 A  
HETATM    5  N   UNL     1     -12.106  11.947  67.369  1.00  0.00    -0.523 NA 
HETATM    6  C   UNL     1      -8.775  11.077  68.668  1.00  0.00    -0.161 A  
HETATM    7  C   UNL     1     -11.064  11.302  67.895  1.00  0.00    -0.267 A  
HETATM    8  C   UNL     1      -9.779  11.871  68.050  1.00  0.00    -0.191 A  
HETATM    9  C   UNL     1     -11.946  13.236  67.056  1.00  0.00    -0.365 A  
HETATM   10  C   UNL     1     -11.315  10.018  68.333  1.00  0.00    -0.117 A  
HETATM   11  C   UNL     1      -9.618  13.217  67.606  1.00  0.00    -0.213 A  
HETATM   12  C   UNL     1     -10.755  13.910  67.206  1.00  0.00    -0.286 A  
BRANCH   4  13
HETATM   13  C   UNL     1      -7.971   8.940  69.737  1.00  0.00    -0.100 C  
HETATM   14  H2  UNL     1      -7.554  10.382  71.191  1.00  0.00     0.000 HD 
HETATM   15  H1  UNL     1      -6.577   8.898  71.238  1.00  0.00     0.000 HD 
HETATM   16  O   UNL     1      -7.649   7.840  69.309  1.00  0.00    -0.094 OA 
HETATM   17  N   UNL     1      -7.314   9.463  70.819  1.00  0.00    -0.126 N  
ENDBRANCH   4  13
BRANCH  11  18
HETATM   18  O   UNL     1      -8.360  13.781  67.733  1.00  0.00    -0.153 OA 
BRANCH  18  19
HETATM   19  C   UNL     1      -8.112  15.142  67.664  1.00  0.00    -0.162 A  
HETATM   20  C   UNL     1      -8.288  15.722  66.401  1.00  0.00    -0.267 A  
HETATM   21  C   UNL     1      -7.293  17.824  67.139  1.00  0.00    -0.186 A  
HETATM   22  C   UNL     1      -7.894  17.051  66.142  1.00  0.00    -0.295 A  
HETATM   23  C   UNL     1      -7.137  17.250  68.401  1.00  0.00    -0.209 A  
HETATM   24 CL   UNL     1      -6.390  18.128  69.700  1.00  0.00    -0.223 Cl 
HETATM   25  C   UNL     1      -7.547  15.937  68.657  1.00  0.00    -0.161 A  
BRANCH  21  26
HETATM   26  N   UNL     1      -6.791  19.129  66.939  1.00  0.00    -0.198 N  
HETATM   27  H   UNL     1      -5.781  19.214  66.818  1.00  0.00     0.000 HD 
BRANCH  26  28
HETATM   28  C   UNL     1      -7.509  20.292  66.889  1.00  0.00    -0.294 C  
HETATM   29  O   UNL     1      -7.169  21.355  67.396  1.00  0.00    -0.535 OA 
BRANCH  28  30
HETATM   30  N   UNL     1      -8.693  20.160  66.194  1.00  0.00    -0.560 N  
HETATM   31  H   UNL     1      -8.675  19.916  65.204  1.00  0.00     0.000 HD 
BRANCH  30  32
HETATM   32  C   UNL     1      -9.943  20.363  66.852  1.00  0.00    -0.408 C  
HETATM   33  C   UNL     1     -10.934  19.261  67.082  1.00  0.00    -0.439 C  
HETATM   34  C   UNL     1     -10.141  19.800  68.234  1.00  0.00    -0.575 C  
ENDBRANCH  30  32
ENDBRANCH  28  30
ENDBRANCH  26  28
ENDBRANCH  21  26
ENDBRANCH  18  19
ENDBRANCH  11  18
ENDBRANCH   2   3
TORSDOF 8
ENDMDL
MODEL      114
REMARK 921   NORMALIZED FREE ENERGY PREDICTED BY IDOCK:   -4.79 KCAL/MOL
REMARK 922        TOTAL FREE ENERGY PREDICTED BY IDOCK:   -8.57 KCAL/MOL
REMARK 923 INTER-LIGAND FREE ENERGY PREDICTED BY IDOCK:   -7.25 KCAL/MOL
REMARK 924 INTRA-LIGAND FREE ENERGY PREDICTED BY IDOCK:   -1.32 KCAL/MOL
REMARK 927      BINDING AFFINITY PREDICTED BY RF-SCORE:    0.00 PKD
ROOT
HETATM    1  C   UNL     1      -9.791  19.788  68.095  1.00  0.00    -0.424 C  
HETATM    2  O   UNL     1      -8.853  18.802  68.524  1.00  0.00    -0.330 OA 
ENDROOT
BRANCH   2   3
HETATM    3  C   UNL     1      -9.178  17.506  68.221  1.00  0.00    -0.277 A  
HETATM    4  C   UNL     1      -8.547  16.874  67.140  1.00  0.00    -0.217 A  
HETATM    5  N   UNL     1     -11.582  15.042  69.282  1.00  0.00    -0.297 NA 
HETATM    6  C   UNL     1      -8.929  15.560  66.786  1.00  0.00    -0.295 A  
HETATM    7  C   UNL     1     -10.579  15.550  68.564  1.00  0.00    -0.246 A  
HETATM    8  C   UNL     1      -9.957  14.875  67.488  1.00  0.00    -0.219 A  
HETATM    9  C   UNL     1     -12.086  13.865  68.901  1.00  0.00    -0.319 A  
HETATM   10  C   UNL     1     -10.188  16.828  68.905  1.00  0.00    -0.304 A  
HETATM   11  C   UNL     1     -10.452  13.574  67.178  1.00  0.00    -0.256 A  
HETATM   12  C   UNL     1     -11.593  13.137  67.841  1.00  0.00    -0.375 A  
BRANCH   4  13
HETATM   13  C   UNL     1      -7.440  17.559  66.409  1.00  0.00    -0.299 C  
HETATM   14  H2  UNL     1      -5.970  16.682  67.608  1.00  0.00     0.000 HD 
HETATM   15  H1  UNL     1      -5.404  17.779  66.329  1.00  0.00     0.000 HD 
HETATM   16  O   UNL     1      -7.632  18.330  65.478  1.00  0.00    -0.518 OA 
HETATM   17  N   UNL     1      -6.160  17.311  66.828  1.00  0.00    -0.182 N  
ENDBRANCH   4  13
BRANCH  11  18
HETATM   18  O   UNL     1      -9.839  12.893  66.140  1.00  0.00    -0.268 OA 
BRANCH  18  19
HETATM   19  C   UNL     1      -9.241  11.652  66.276  1.00  0.00    -0.217 A  
HETATM   20  C   UNL     1     -10.085  10.552  66.072  1.00  0.00    -0.317 A  
HETATM   21  C   UNL     1      -8.387   8.997  66.877  1.00  0.00    -0.119 A  
HETATM   22  C   UNL     1      -9.661   9.239  66.358  1.00  0.00    -0.325 A  
HETATM   23  C   UNL     1      -7.542  10.092  67.060  1.00  0.00    -0.092 A  
HETATM   24 CL   UNL     1      -5.944   9.893  67.711  1.00  0.00    -0.047 Cl 
HETATM   25  C   UNL     1      -7.961  11.391  66.757  1.00  0.00    -0.160 A  
BRANCH  21  26
HETATM   26  N   UNL     1      -7.917   7.725  67.272  1.00  0.00    -0.116 N  
HETATM   27  H   UNL     1      -7.468   7.161  66.550  1.00  0.00     0.000 HD 
BRANCH  26  28
HETATM   28  C   UNL     1      -7.997   7.165  68.518  1.00  0.00    -0.124 C  
HETATM   29  O   UNL     1      -7.055   7.023  69.291  1.00  0.00    -0.077 OA 
BRANCH  28  30
HETATM   30  N   UNL     1      -9.274   6.761  68.842  1.00  0.00    -0.132 N  
HETATM   31  H   UNL     1      -9.801   6.176  68.192  1.00  0.00     0.000 HD 
BRANCH  30  32
HETATM   32  C   UNL     1      -9.865   7.154  70.080  1.00  0.00    -0.179 C  
HETATM   33  C   UNL     1     -10.552   8.473  70.276  1.00  0.00    -0.238 C  
HETATM   34  C   UNL     1     -11.366   7.217  70.185  1.00  0.00    -0.277 C  
ENDBRANCH  30  32
ENDBRANCH  28  30
ENDBRANCH  26  28
ENDBRANCH  21  26
ENDBRANCH  18  19
ENDBRANCH  11  18
ENDBRANCH   2   3
TORSDOF 8
ENDMDL
MODEL      115
REMARK 921   NORMALIZED FREE ENERGY PREDICTED BY IDOCK:   -4.77 KCAL/MOL
REMARK 922        TOTAL FREE ENERGY PREDICTED BY IDOCK:   -8.53 KCAL/MOL
REMARK 923 INTER-LIGAND FREE ENERGY PREDICTED BY IDOCK:   -7.09 KCAL/MOL
REMARK 924 INTRA-LIGAND FREE ENERGY PREDICTED BY IDOCK:   -1.45 KCAL/MOL
REMARK 927      BINDING AFFINITY PREDICTED BY RF-SCORE:    0.00 PKD
ROOT
HETATM    1  C   UNL     1     -14.067  13.968  72.274  1.00  0.00    -0.535 C  
HETATM    2  O   UNL     1     -12.941  13.105  72.122  1.00  0.00    -0.327 OA 
ENDROOT
BRANCH   2   3
HETATM    3  C   UNL     1     -12.599  12.801  70.831  1.00  0.00    -0.255 A  
HETATM    4  C   UNL     1     -12.364  11.465  70.478  1.00  0.00    -0.439 A  
HETATM    5  N   UNL     1     -11.777  14.573  67.804  1.00  0.00    -0.367 NA 
HETATM    6  C   UNL     1     -11.946  11.158  69.163  1.00  0.00    -0.413 A  
HETATM    7  C   UNL     1     -11.971  13.516  68.594  1.00  0.00    -0.343 A  
HETATM    8  C   UNL     1     -11.737  12.180  68.198  1.00  0.00    -0.402 A  
HETATM    9  C   UNL     1     -11.243  14.358  66.598  1.00  0.00    -0.339 A  
HETATM   10  C   UNL     1     -12.390  13.799  69.879  1.00  0.00    -0.334 A  
HETATM   11  C   UNL     1     -11.266  11.981  66.866  1.00  0.00    -0.320 A  
HETATM   12  C   UNL     1     -10.929  13.105  66.121  1.00  0.00    -0.299 A  
BRANCH   4  13
HETATM   13  C   UNL     1     -12.611  10.371  71.464  1.00  0.00    -0.439 C  
HETATM   14  H2  UNL     1     -10.621   9.735  71.410  1.00  0.00     0.000 HD 
HETATM   15  H1  UNL     1     -11.716   8.835  72.484  1.00  0.00     0.000 HD 
HETATM   16  O   UNL     1     -13.711  10.151  71.955  1.00  0.00    -0.254 OA 
HETATM   17  N   UNL     1     -11.547   9.582  71.810  1.00  0.00    -0.375 N  
ENDBRANCH   4  13
BRANCH  11  18
HETATM   18  O   UNL     1     -11.051  10.676  66.457  1.00  0.00    -0.114 OA 
BRANCH  18  19
HETATM   19  C   UNL     1      -9.802  10.082  66.390  1.00  0.00    -0.224 A  
HETATM   20  C   UNL     1      -9.509   9.433  65.183  1.00  0.00    -0.255 A  
HETATM   21  C   UNL     1      -7.483   8.443  66.114  1.00  0.00    -0.088 A  
HETATM   22  C   UNL     1      -8.358   8.632  65.041  1.00  0.00    -0.181 A  
HETATM   23  C   UNL     1      -7.768   9.105  67.309  1.00  0.00    -0.095 A  
HETATM   24 CL   UNL     1      -6.747   8.922  68.701  1.00  0.00    -0.058 Cl 
HETATM   25  C   UNL     1      -8.902   9.915  67.438  1.00  0.00    -0.137 A  
BRANCH  21  26
HETATM   26  N   UNL     1      -6.359   7.587  66.084  1.00  0.00    -0.041 N  
HETATM   27  H   UNL     1      -5.462   8.024  65.868  1.00  0.00     0.000 HD 
BRANCH  26  28
HETATM   28  C   UNL     1      -6.341   6.239  66.311  1.00  0.00    -0.042 C  
HETATM   29  O   UNL     1      -6.421   5.707  67.413  1.00  0.00    -0.044 OA 
BRANCH  28  30
HETATM   30  N   UNL     1      -6.221   5.502  65.152  1.00  0.00    -0.029 N  
HETATM   31  H   UNL     1      -5.355   5.541  64.614  1.00  0.00     0.000 HD 
BRANCH  30  32
HETATM   32  C   UNL     1      -7.299   4.684  64.700  1.00  0.00    -0.071 C  
HETATM   33  C   UNL     1      -8.739   5.002  64.978  1.00  0.00    -0.151 C  
HETATM   34  C   UNL     1      -8.188   5.193  63.597  1.00  0.00    -0.118 C  
ENDBRANCH  30  32
ENDBRANCH  28  30
ENDBRANCH  26  28
ENDBRANCH  21  26
ENDBRANCH  18  19
ENDBRANCH  11  18
ENDBRANCH   2   3
TORSDOF 8
ENDMDL
MODEL      116
REMARK 921   NORMALIZED FREE ENERGY PREDICTED BY IDOCK:   -4.76 KCAL/MOL
REMARK 922        TOTAL FREE ENERGY PREDICTED BY IDOCK:   -8.52 KCAL/MOL
REMARK 923 INTER-LIGAND FREE ENERGY PREDICTED BY IDOCK:   -7.18 KCAL/MOL
REMARK 924 INTRA-LIGAND FREE ENERGY PREDICTED BY IDOCK:   -1.34 KCAL/MOL
REMARK 927      BINDING AFFINITY PREDICTED BY RF-SCORE:    0.00 PKD
ROOT
HETATM    1  C   UNL     1      -9.979  19.853  68.527  1.00  0.00    -0.395 C  
HETATM    2  O   UNL     1     -10.526  18.537  68.585  1.00  0.00    -0.287 OA 
ENDROOT
BRANCH   2   3
HETATM    3  C   UNL     1      -9.618  17.514  68.495  1.00  0.00    -0.305 A  
HETATM    4  C   UNL     1      -9.967  16.241  68.968  1.00  0.00    -0.256 A  
HETATM    5  N   UNL     1      -6.164  17.091  67.565  1.00  0.00    -0.136 NA 
HETATM    6  C   UNL     1      -9.008  15.204  68.937  1.00  0.00    -0.206 A  
HETATM    7  C   UNL     1      -7.371  16.730  68.002  1.00  0.00    -0.161 A  
HETATM    8  C   UNL     1      -7.690  15.431  68.458  1.00  0.00    -0.132 A  
HETATM    9  C   UNL     1      -5.178  16.194  67.650  1.00  0.00    -0.132 A  
HETATM   10  C   UNL     1      -8.321  17.731  68.028  1.00  0.00    -0.249 A  
HETATM   11  C   UNL     1      -6.636  14.469  68.435  1.00  0.00    -0.103 A  
HETATM   12  C   UNL     1      -5.357  14.912  68.120  1.00  0.00    -0.122 A  
BRANCH   4  13
HETATM   13  C   UNL     1     -11.356  15.970  69.443  1.00  0.00    -0.355 C  
HETATM   14  H2  UNL     1     -10.844  16.290  71.443  1.00  0.00     0.000 HD 
HETATM   15  H1  UNL     1     -12.539  15.867  71.114  1.00  0.00     0.000 HD 
HETATM   16  O   UNL     1     -12.272  15.670  68.688  1.00  0.00    -0.180 OA 
HETATM   17  N   UNL     1     -11.590  16.052  70.790  1.00  0.00    -0.398 N  
ENDBRANCH   4  13
BRANCH  11  18
HETATM   18  O   UNL     1      -6.939  13.186  68.860  1.00  0.00    -0.101 OA 
BRANCH  18  19
HETATM   19  C   UNL     1      -7.583  12.244  68.077  1.00  0.00    -0.126 A  
HETATM   20  C   UNL     1      -6.857  11.782  66.972  1.00  0.00    -0.137 A  
HETATM   21  C   UNL     1      -8.802  10.611  66.079  1.00  0.00    -0.175 A  
HETATM   22  C   UNL     1      -7.454  10.967  65.989  1.00  0.00    -0.086 A  
HETATM   23  C   UNL     1      -9.518  11.057  67.191  1.00  0.00    -0.164 A  
HETATM   24 CL   UNL     1     -11.202  10.677  67.385  1.00  0.00    -0.342 Cl 
HETATM   25  C   UNL     1      -8.915  11.850  68.173  1.00  0.00    -0.185 A  
BRANCH  21  26
HETATM   26  N   UNL     1      -9.499   9.874  65.096  1.00  0.00    -0.256 N  
HETATM   27  H   UNL     1     -10.132   9.150  65.435  1.00  0.00     0.000 HD 
BRANCH  26  28
HETATM   28  C   UNL     1      -9.417  10.025  63.739  1.00  0.00    -0.208 C  
HETATM   29  O   UNL     1      -8.858   9.246  62.974  1.00  0.00    -0.225 OA 
BRANCH  28  30
HETATM   30  N   UNL     1     -10.038  11.171  63.289  1.00  0.00    -0.432 N  
HETATM   31  H   UNL     1      -9.665  11.665  62.478  1.00  0.00     0.000 HD 
BRANCH  30  32
HETATM   32  C   UNL     1     -11.199  11.671  63.951  1.00  0.00    -0.397 C  
HETATM   33  C   UNL     1     -11.335  13.097  64.398  1.00  0.00    -0.400 C  
HETATM   34  C   UNL     1     -12.112  12.611  63.211  1.00  0.00    -0.524 C  
ENDBRANCH  30  32
ENDBRANCH  28  30
ENDBRANCH  26  28
ENDBRANCH  21  26
ENDBRANCH  18  19
ENDBRANCH  11  18
ENDBRANCH   2   3
TORSDOF 8
ENDMDL
MODEL      117
REMARK 921   NORMALIZED FREE ENERGY PREDICTED BY IDOCK:   -4.74 KCAL/MOL
REMARK 922        TOTAL FREE ENERGY PREDICTED BY IDOCK:   -8.49 KCAL/MOL
REMARK 923 INTER-LIGAND FREE ENERGY PREDICTED BY IDOCK:   -7.90 KCAL/MOL
REMARK 924 INTRA-LIGAND FREE ENERGY PREDICTED BY IDOCK:   -0.60 KCAL/MOL
REMARK 927      BINDING AFFINITY PREDICTED BY RF-SCORE:    0.00 PKD
ROOT
HETATM    1  C   UNL     1      -8.024  19.670  68.818  1.00  0.00    -0.279 C  
HETATM    2  O   UNL     1      -7.386  18.394  68.797  1.00  0.00    -0.283 OA 
ENDROOT
BRANCH   2   3
HETATM    3  C   UNL     1      -8.145  17.362  68.309  1.00  0.00    -0.249 A  
HETATM    4  C   UNL     1      -7.775  16.746  67.106  1.00  0.00    -0.213 A  
HETATM    5  N   UNL     1     -11.261  15.740  69.103  1.00  0.00    -0.297 NA 
HETATM    6  C   UNL     1      -8.594  15.727  66.569  1.00  0.00    -0.343 A  
HETATM    7  C   UNL     1     -10.144  15.984  68.417  1.00  0.00    -0.229 A  
HETATM    8  C   UNL     1      -9.798  15.330  67.213  1.00  0.00    -0.220 A  
HETATM    9  C   UNL     1     -12.146  14.892  68.569  1.00  0.00    -0.158 A  
HETATM   10  C   UNL     1      -9.329  16.970  68.936  1.00  0.00    -0.224 A  
HETATM   11  C   UNL     1     -10.717  14.354  66.727  1.00  0.00    -0.292 A  
HETATM   12  C   UNL     1     -11.939  14.231  67.379  1.00  0.00    -0.426 A  
BRANCH   4  13
HETATM   13  C   UNL     1      -6.498  17.120  66.430  1.00  0.00    -0.201 C  
HETATM   14  H2  UNL     1      -7.386  18.715  65.413  1.00  0.00     0.000 HD 
HETATM   15  H1  UNL     1      -5.653  18.449  65.117  1.00  0.00     0.000 HD 
HETATM   16  O   UNL     1      -5.451  16.509  66.596  1.00  0.00    -0.349 OA 
HETATM   17  N   UNL     1      -6.526  18.193  65.579  1.00  0.00    -0.249 N  
ENDBRANCH   4  13
BRANCH  11  18
HETATM   18  O   UNL     1     -10.382  13.691  65.560  1.00  0.00    -0.290 OA 
BRANCH  18  19
HETATM   19  C   UNL     1     -10.293  12.314  65.450  1.00  0.00    -0.269 A  
HETATM   20  C   UNL     1     -10.418  11.605  66.652  1.00  0.00    -0.268 A  
HETATM   21  C   UNL     1      -9.756   9.514  65.583  1.00  0.00    -0.290 A  
HETATM   22  C   UNL     1     -10.164  10.220  66.718  1.00  0.00    -0.286 A  
HETATM   23  C   UNL     1      -9.651  10.219  64.383  1.00  0.00    -0.316 A  
HETATM   24 CL   UNL     1      -9.140   9.431  62.923  1.00  0.00    -0.200 Cl 
HETATM   25  C   UNL     1      -9.923  11.590  64.320  1.00  0.00    -0.312 A  
BRANCH  21  26
HETATM   26  N   UNL     1      -9.397   8.148  65.582  1.00  0.00    -0.426 N  
HETATM   27  H   UNL     1      -9.016   7.779  64.710  1.00  0.00     0.000 HD 
BRANCH  26  28
HETATM   28  C   UNL     1      -9.503   7.266  66.622  1.00  0.00    -0.177 C  
HETATM   29  O   UNL     1      -8.783   7.254  67.615  1.00  0.00    -0.125 OA 
BRANCH  28  30
HETATM   30  N   UNL     1     -10.524   6.357  66.450  1.00  0.00    -0.464 N  
HETATM   31  H   UNL     1     -11.494   6.655  66.561  1.00  0.00     0.000 HD 
BRANCH  30  32
HETATM   32  C   UNL     1     -10.236   4.999  66.117  1.00  0.00    -0.255 C  
HETATM   33  C   UNL     1      -9.737   4.577  64.766  1.00  0.00    -0.084 C  
HETATM   34  C   UNL     1      -8.801   4.582  65.937  1.00  0.00    -0.121 C  
ENDBRANCH  30  32
ENDBRANCH  28  30
ENDBRANCH  26  28
ENDBRANCH  21  26
ENDBRANCH  18  19
ENDBRANCH  11  18
ENDBRANCH   2   3
TORSDOF 8
ENDMDL
MODEL      118
REMARK 921   NORMALIZED FREE ENERGY PREDICTED BY IDOCK:   -4.74 KCAL/MOL
REMARK 922        TOTAL FREE ENERGY PREDICTED BY IDOCK:   -8.49 KCAL/MOL
REMARK 923 INTER-LIGAND FREE ENERGY PREDICTED BY IDOCK:   -7.36 KCAL/MOL
REMARK 924 INTRA-LIGAND FREE ENERGY PREDICTED BY IDOCK:   -1.14 KCAL/MOL
REMARK 927      BINDING AFFINITY PREDICTED BY RF-SCORE:    0.00 PKD
ROOT
HETATM    1  C   UNL     1      -7.915  17.399  67.587  1.00  0.00    -0.193 C  
HETATM    2  O   UNL     1      -8.253  16.301  68.433  1.00  0.00    -0.170 OA 
ENDROOT
BRANCH   2   3
HETATM    3  C   UNL     1      -8.869  15.246  67.814  1.00  0.00    -0.173 A  
HETATM    4  C   UNL     1      -8.134  14.084  67.542  1.00  0.00    -0.197 A  
HETATM    5  N   UNL     1     -12.050  14.546  66.274  1.00  0.00    -0.345 NA 
HETATM    6  C   UNL     1      -8.750  13.021  66.844  1.00  0.00    -0.158 A  
HETATM    7  C   UNL     1     -10.799  14.308  66.673  1.00  0.00    -0.301 A  
HETATM    8  C   UNL     1     -10.094  13.115  66.391  1.00  0.00    -0.281 A  
HETATM    9  C   UNL     1     -12.634  13.639  65.485  1.00  0.00    -0.496 A  
HETATM   10  C   UNL     1     -10.188  15.333  67.365  1.00  0.00    -0.243 A  
HETATM   11  C   UNL     1     -10.788  12.125  65.635  1.00  0.00    -0.284 A  
HETATM   12  C   UNL     1     -12.029  12.462  65.106  1.00  0.00    -0.454 A  
BRANCH   4  13
HETATM   13  C   UNL     1      -6.732  13.947  68.038  1.00  0.00    -0.144 C  
HETATM   14  H2  UNL     1      -7.329  12.878  69.732  1.00  0.00     0.000 HD 
HETATM   15  H1  UNL     1      -5.586  13.178  69.553  1.00  0.00     0.000 HD 
HETATM   16  O   UNL     1      -5.767  14.417  67.450  1.00  0.00    -0.342 OA 
HETATM   17  N   UNL     1      -6.543  13.272  69.215  1.00  0.00    -0.107 N  
ENDBRANCH   4  13
BRANCH  11  18
HETATM   18  O   UNL     1     -10.118  10.944  65.369  1.00  0.00    -0.248 OA 
BRANCH  18  19
HETATM   19  C   UNL     1     -10.049   9.877  66.249  1.00  0.00    -0.241 A  
HETATM   20  C   UNL     1     -10.745  10.046  67.454  1.00  0.00    -0.336 A  
HETATM   21  C   UNL     1      -9.759   8.026  68.401  1.00  0.00    -0.158 A  
HETATM   22  C   UNL     1     -10.612   9.127  68.514  1.00  0.00    -0.209 A  
HETATM   23  C   UNL     1      -9.083   7.850  67.193  1.00  0.00    -0.137 A  
HETATM   24 CL   UNL     1      -7.992   6.518  66.963  1.00  0.00    -0.111 Cl 
HETATM   25  C   UNL     1      -9.233   8.755  66.138  1.00  0.00    -0.273 A  
BRANCH  21  26
HETATM   26  N   UNL     1      -9.501   7.109  69.444  1.00  0.00    -0.154 N  
HETATM   27  H   UNL     1      -8.670   7.286  70.009  1.00  0.00     0.000 HD 
BRANCH  26  28
HETATM   28  C   UNL     1     -10.243   6.010  69.780  1.00  0.00    -0.205 C  
HETATM   29  O   UNL     1     -10.382   5.011  69.083  1.00  0.00    -0.193 OA 
BRANCH  28  30
HETATM   30  N   UNL     1     -10.845   6.128  71.014  1.00  0.00    -0.266 N  
HETATM   31  H   UNL     1     -11.394   5.353  71.388  1.00  0.00     0.000 HD 
BRANCH  30  32
HETATM   32  C   UNL     1     -10.706   7.328  71.775  1.00  0.00    -0.218 C  
HETATM   33  C   UNL     1     -11.878   8.147  72.231  1.00  0.00    -0.441 C  
HETATM   34  C   UNL     1     -11.113   7.324  73.224  1.00  0.00    -0.281 C  
ENDBRANCH  30  32
ENDBRANCH  28  30
ENDBRANCH  26  28
ENDBRANCH  21  26
ENDBRANCH  18  19
ENDBRANCH  11  18
ENDBRANCH   2   3
TORSDOF 8
ENDMDL
MODEL      119
REMARK 921   NORMALIZED FREE ENERGY PREDICTED BY IDOCK:   -4.74 KCAL/MOL
REMARK 922        TOTAL FREE ENERGY PREDICTED BY IDOCK:   -8.49 KCAL/MOL
REMARK 923 INTER-LIGAND FREE ENERGY PREDICTED BY IDOCK:   -7.64 KCAL/MOL
REMARK 924 INTRA-LIGAND FREE ENERGY PREDICTED BY IDOCK:   -0.85 KCAL/MOL
REMARK 927      BINDING AFFINITY PREDICTED BY RF-SCORE:    0.00 PKD
ROOT
HETATM    1  C   UNL     1      -5.642   5.081  73.632  1.00  0.00    -0.018 C  
HETATM    2  O   UNL     1      -6.762   5.930  73.877  1.00  0.00    -0.077 OA 
ENDROOT
BRANCH   2   3
HETATM    3  C   UNL     1      -7.404   6.399  72.761  1.00  0.00    -0.090 A  
HETATM    4  C   UNL     1      -7.178   7.717  72.341  1.00  0.00    -0.090 A  
HETATM    5  N   UNL     1      -9.955   5.269  70.483  1.00  0.00    -0.212 NA 
HETATM    6  C   UNL     1      -7.891   8.222  71.230  1.00  0.00    -0.112 A  
HETATM    7  C   UNL     1      -9.060   6.108  71.006  1.00  0.00    -0.147 A  
HETATM    8  C   UNL     1      -8.850   7.428  70.544  1.00  0.00    -0.148 A  
HETATM    9  C   UNL     1     -10.761   5.738  69.526  1.00  0.00    -0.338 A  
HETATM   10  C   UNL     1      -8.348   5.625  72.085  1.00  0.00    -0.115 A  
HETATM   11  C   UNL     1      -9.657   7.859  69.450  1.00  0.00    -0.160 A  
HETATM   12  C   UNL     1     -10.681   7.019  69.028  1.00  0.00    -0.234 A  
BRANCH   4  13
HETATM   13  C   UNL     1      -6.151   8.559  73.022  1.00  0.00    -0.087 C  
HETATM   14  H2  UNL     1      -7.180   8.522  74.841  1.00  0.00     0.000 HD 
HETATM   15  H1  UNL     1      -5.655   9.434  74.808  1.00  0.00     0.000 HD 
HETATM   16  O   UNL     1      -5.157   8.991  72.453  1.00  0.00    -0.047 OA 
HETATM   17  N   UNL     1      -6.357   8.860  74.343  1.00  0.00    -0.103 N  
ENDBRANCH   4  13
BRANCH  11  18
HETATM   18  O   UNL     1      -9.449   9.141  68.975  1.00  0.00    -0.149 OA 
BRANCH  18  19
HETATM   19  C   UNL     1     -10.383  10.159  69.059  1.00  0.00    -0.212 A  
HETATM   20  C   UNL     1     -10.246  11.182  68.111  1.00  0.00    -0.198 A  
HETATM   21  C   UNL     1     -11.907  12.565  69.242  1.00  0.00    -0.304 A  
HETATM   22  C   UNL     1     -11.006  12.366  68.193  1.00  0.00    -0.263 A  
HETATM   23  C   UNL     1     -12.055  11.537  70.174  1.00  0.00    -0.351 A  
HETATM   24 CL   UNL     1     -13.142  11.697  71.520  1.00  0.00    -0.481 Cl 
HETATM   25  C   UNL     1     -11.312  10.356  70.077  1.00  0.00    -0.384 A  
BRANCH  21  26
HETATM   26  N   UNL     1     -12.640  13.755  69.447  1.00  0.00    -0.250 N  
HETATM   27  H   UNL     1     -13.592  13.772  69.079  1.00  0.00     0.000 HD 
BRANCH  26  28
HETATM   28  C   UNL     1     -12.214  14.888  70.085  1.00  0.00    -0.336 C  
HETATM   29  O   UNL     1     -11.045  15.247  70.181  1.00  0.00    -0.256 OA 
BRANCH  28  30
HETATM   30  N   UNL     1     -13.249  15.616  70.631  1.00  0.00    -0.755 N  
HETATM   31  H   UNL     1     -13.601  16.441  70.144  1.00  0.00     0.000 HD 
BRANCH  30  32
HETATM   32  C   UNL     1     -13.832  15.224  71.873  1.00  0.00    -0.520 C  
HETATM   33  C   UNL     1     -13.049  14.569  72.973  1.00  0.00    -0.611 C  
HETATM   34  C   UNL     1     -13.486  15.996  73.118  1.00  0.00    -0.587 C  
ENDBRANCH  30  32
ENDBRANCH  28  30
ENDBRANCH  26  28
ENDBRANCH  21  26
ENDBRANCH  18  19
ENDBRANCH  11  18
ENDBRANCH   2   3
TORSDOF 8
ENDMDL
MODEL      120
REMARK 921   NORMALIZED FREE ENERGY PREDICTED BY IDOCK:   -4.71 KCAL/MOL
REMARK 922        TOTAL FREE ENERGY PREDICTED BY IDOCK:   -8.45 KCAL/MOL
REMARK 923 INTER-LIGAND FREE ENERGY PREDICTED BY IDOCK:   -7.58 KCAL/MOL
REMARK 924 INTRA-LIGAND FREE ENERGY PREDICTED BY IDOCK:   -0.87 KCAL/MOL
REMARK 927      BINDING AFFINITY PREDICTED BY RF-SCORE:    0.00 PKD
ROOT
HETATM    1  C   UNL     1      -6.630   6.809  71.227  1.00  0.00    -0.053 C  
HETATM    2  O   UNL     1      -8.005   6.530  70.971  1.00  0.00    -0.108 OA 
ENDROOT
BRANCH   2   3
HETATM    3  C   UNL     1      -8.703   7.526  70.340  1.00  0.00    -0.144 A  
HETATM    4  C   UNL     1      -9.553   8.351  71.090  1.00  0.00    -0.226 A  
HETATM    5  N   UNL     1      -9.298   8.638  66.966  1.00  0.00    -0.152 NA 
HETATM    6  C   UNL     1     -10.324   9.334  70.430  1.00  0.00    -0.291 A  
HETATM    7  C   UNL     1      -9.414   8.629  68.295  1.00  0.00    -0.141 A  
HETATM    8  C   UNL     1     -10.273   9.488  69.018  1.00  0.00    -0.211 A  
HETATM    9  C   UNL     1     -10.110   9.444  66.276  1.00  0.00    -0.258 A  
HETATM   10  C   UNL     1      -8.659   7.681  68.954  1.00  0.00    -0.129 A  
HETATM   11  C   UNL     1     -11.047  10.410  68.254  1.00  0.00    -0.281 A  
HETATM   12  C   UNL     1     -11.019  10.292  66.869  1.00  0.00    -0.140 A  
BRANCH   4  13
HETATM   13  C   UNL     1      -9.598   8.232  72.578  1.00  0.00    -0.295 C  
HETATM   14  H2  UNL     1     -11.517   7.406  72.556  1.00  0.00     0.000 HD 
HETATM   15  H1  UNL     1     -10.763   7.624  74.150  1.00  0.00     0.000 HD 
HETATM   16  O   UNL     1      -8.680   8.592  73.303  1.00  0.00    -0.337 OA 
HETATM   17  N   UNL     1     -10.733   7.705  73.135  1.00  0.00    -0.389 N  
ENDBRANCH   4  13
BRANCH  11  18
HETATM   18  O   UNL     1     -11.878  11.272  68.950  1.00  0.00    -0.317 OA 
BRANCH  18  19
HETATM   19  C   UNL     1     -11.671  12.637  69.045  1.00  0.00    -0.318 A  
HETATM   20  C   UNL     1     -10.607  13.139  68.284  1.00  0.00    -0.260 A  
HETATM   21  C   UNL     1     -10.767  15.327  69.353  1.00  0.00    -0.265 A  
HETATM   22  C   UNL     1     -10.166  14.470  68.426  1.00  0.00    -0.239 A  
HETATM   23  C   UNL     1     -11.838  14.829  70.096  1.00  0.00    -0.307 A  
HETATM   24 CL   UNL     1     -12.640  15.814  71.281  1.00  0.00    -0.505 Cl 
HETATM   25  C   UNL     1     -12.284  13.513  69.937  1.00  0.00    -0.356 A  
BRANCH  21  26
HETATM   26  N   UNL     1     -10.330  16.643  69.620  1.00  0.00    -0.241 N  
HETATM   27  H   UNL     1     -10.143  16.870  70.597  1.00  0.00     0.000 HD 
BRANCH  26  28
HETATM   28  C   UNL     1     -10.129  17.647  68.713  1.00  0.00    -0.377 C  
HETATM   29  O   UNL     1     -10.786  17.818  67.691  1.00  0.00    -0.386 OA 
BRANCH  28  30
HETATM   30  N   UNL     1      -9.085  18.479  69.057  1.00  0.00    -0.147 N  
HETATM   31  H   UNL     1      -9.216  19.183  69.783  1.00  0.00     0.000 HD 
BRANCH  30  32
HETATM   32  C   UNL     1      -7.821  18.361  68.405  1.00  0.00    -0.306 C  
HETATM   33  C   UNL     1      -6.799  17.330  68.784  1.00  0.00    -0.219 C  
HETATM   34  C   UNL     1      -7.571  17.178  67.508  1.00  0.00    -0.187 C  
ENDBRANCH  30  32
ENDBRANCH  28  30
ENDBRANCH  26  28
ENDBRANCH  21  26
ENDBRANCH  18  19
ENDBRANCH  11  18
ENDBRANCH   2   3
TORSDOF 8
ENDMDL
MODEL      121
REMARK 921   NORMALIZED FREE ENERGY PREDICTED BY IDOCK:   -4.69 KCAL/MOL
REMARK 922        TOTAL FREE ENERGY PREDICTED BY IDOCK:   -8.41 KCAL/MOL
REMARK 923 INTER-LIGAND FREE ENERGY PREDICTED BY IDOCK:   -7.14 KCAL/MOL
REMARK 924 INTRA-LIGAND FREE ENERGY PREDICTED BY IDOCK:   -1.27 KCAL/MOL
REMARK 927      BINDING AFFINITY PREDICTED BY RF-SCORE:    0.00 PKD
ROOT
HETATM    1  C   UNL     1     -12.348  14.149  64.272  1.00  0.00    -0.365 C  
HETATM    2  O   UNL     1     -10.943  14.184  64.519  1.00  0.00    -0.385 OA 
ENDROOT
BRANCH   2   3
HETATM    3  C   UNL     1     -10.465  13.209  65.355  1.00  0.00    -0.296 A  
HETATM    4  C   UNL     1      -9.965  13.567  66.615  1.00  0.00    -0.282 A  
HETATM    5  N   UNL     1      -9.781   9.675  65.209  1.00  0.00    -0.299 NA 
HETATM    6  C   UNL     1      -9.411  12.570  67.449  1.00  0.00    -0.184 A  
HETATM    7  C   UNL     1      -9.831  10.895  65.745  1.00  0.00    -0.237 A  
HETATM    8  C   UNL     1      -9.329  11.215  67.027  1.00  0.00    -0.182 A  
HETATM    9  C   UNL     1      -9.136   8.722  65.889  1.00  0.00    -0.218 A  
HETATM   10  C   UNL     1     -10.380  11.877  64.946  1.00  0.00    -0.328 A  
HETATM   11  C   UNL     1      -8.741  10.148  67.769  1.00  0.00    -0.121 A  
HETATM   12  C   UNL     1      -8.567   8.928  67.126  1.00  0.00    -0.112 A  
BRANCH   4  13
HETATM   13  C   UNL     1     -10.074  14.976  67.094  1.00  0.00    -0.239 C  
HETATM   14  H2  UNL     1     -11.997  14.677  67.855  1.00  0.00     0.000 HD 
HETATM   15  H1  UNL     1     -11.309  16.304  68.049  1.00  0.00     0.000 HD 
HETATM   16  O   UNL     1      -9.185  15.804  66.939  1.00  0.00    -0.208 OA 
HETATM   17  N   UNL     1     -11.235  15.342  67.721  1.00  0.00    -0.320 N  
ENDBRANCH   4  13
BRANCH  11  18
HETATM   18  O   UNL     1      -8.264  10.442  69.035  1.00  0.00    -0.121 OA 
BRANCH  18  19
HETATM   19  C   UNL     1      -8.457   9.633  70.142  1.00  0.00    -0.204 A  
HETATM   20  C   UNL     1      -9.793   9.413  70.500  1.00  0.00    -0.331 A  
HETATM   21  C   UNL     1      -9.142   8.348  72.596  1.00  0.00    -0.241 A  
HETATM   22  C   UNL     1     -10.134   8.769  71.706  1.00  0.00    -0.403 A  
HETATM   23  C   UNL     1      -7.811   8.551  72.227  1.00  0.00    -0.063 A  
HETATM   24 CL   UNL     1      -6.509   8.074  73.272  1.00  0.00    -0.089 Cl 
HETATM   25  C   UNL     1      -7.479   9.175  71.020  1.00  0.00    -0.120 A  
BRANCH  21  26
HETATM   26  N   UNL     1      -9.398   7.776  73.862  1.00  0.00    -0.377 N  
HETATM   27  H   UNL     1      -9.520   8.426  74.638  1.00  0.00     0.000 HD 
BRANCH  26  28
HETATM   28  C   UNL     1      -9.502   6.445  74.160  1.00  0.00    -0.199 C  
HETATM   29  O   UNL     1      -8.583   5.735  74.555  1.00  0.00    -0.117 OA 
BRANCH  28  30
HETATM   30  N   UNL     1     -10.776   5.952  73.971  1.00  0.00    -0.379 N  
HETATM   31  H   UNL     1     -11.485   6.090  74.691  1.00  0.00     0.000 HD 
BRANCH  30  32
HETATM   32  C   UNL     1     -11.109   5.250  72.774  1.00  0.00    -0.286 C  
HETATM   33  C   UNL     1     -10.130   5.025  71.660  1.00  0.00    -0.260 C  
HETATM   34  C   UNL     1     -10.525   3.881  72.545  1.00  0.00    -0.176 C  
ENDBRANCH  30  32
ENDBRANCH  28  30
ENDBRANCH  26  28
ENDBRANCH  21  26
ENDBRANCH  18  19
ENDBRANCH  11  18
ENDBRANCH   2   3
TORSDOF 8
ENDMDL
MODEL      122
REMARK 921   NORMALIZED FREE ENERGY PREDICTED BY IDOCK:   -4.68 KCAL/MOL
REMARK 922        TOTAL FREE ENERGY PREDICTED BY IDOCK:   -8.41 KCAL/MOL
REMARK 923 INTER-LIGAND FREE ENERGY PREDICTED BY IDOCK:   -7.39 KCAL/MOL
REMARK 924 INTRA-LIGAND FREE ENERGY PREDICTED BY IDOCK:   -1.02 KCAL/MOL
REMARK 927      BINDING AFFINITY PREDICTED BY RF-SCORE:    0.00 PKD
ROOT
HETATM    1  C   UNL     1     -13.173  15.346  73.059  1.00  0.00    -0.531 C  
HETATM    2  O   UNL     1     -12.736  14.093  72.536  1.00  0.00    -0.319 OA 
ENDROOT
BRANCH   2   3
HETATM    3  C   UNL     1     -12.433  14.083  71.200  1.00  0.00    -0.371 A  
HETATM    4  C   UNL     1     -12.297  12.856  70.535  1.00  0.00    -0.362 A  
HETATM    5  N   UNL     1     -11.527  16.465  68.654  1.00  0.00    -0.305 NA 
HETATM    6  C   UNL     1     -11.919  12.844  69.173  1.00  0.00    -0.308 A  
HETATM    7  C   UNL     1     -11.785  15.266  69.178  1.00  0.00    -0.335 A  
HETATM    8  C   UNL     1     -11.650  14.050  68.470  1.00  0.00    -0.357 A  
HETATM    9  C   UNL     1     -11.025  16.508  67.417  1.00  0.00    -0.121 A  
HETATM   10  C   UNL     1     -12.166  15.263  70.504  1.00  0.00    -0.415 A  
HETATM   11  C   UNL     1     -11.213  14.143  67.116  1.00  0.00    -0.317 A  
HETATM   12  C   UNL     1     -10.807  15.387  66.648  1.00  0.00    -0.302 A  
BRANCH   4  13
HETATM   13  C   UNL     1     -12.608  11.578  71.242  1.00  0.00    -0.347 C  
HETATM   14  H2  UNL     1     -11.055  10.555  70.288  1.00  0.00     0.000 HD 
HETATM   15  H1  UNL     1     -12.035   9.620  71.440  1.00  0.00     0.000 HD 
HETATM   16  O   UNL     1     -13.528  11.465  72.040  1.00  0.00    -0.393 OA 
HETATM   17  N   UNL     1     -11.823  10.493  70.957  1.00  0.00    -0.355 N  
ENDBRANCH   4  13
BRANCH  11  18
HETATM   18  O   UNL     1     -11.095  12.961  66.404  1.00  0.00    -0.274 OA 
BRANCH  18  19
HETATM   19  C   UNL     1      -9.909  12.264  66.252  1.00  0.00    -0.241 A  
HETATM   20  C   UNL     1      -9.922  11.262  65.273  1.00  0.00    -0.301 A  
HETATM   21  C   UNL     1      -7.751  10.414  65.996  1.00  0.00    -0.136 A  
HETATM   22  C   UNL     1      -8.852  10.354  65.138  1.00  0.00    -0.207 A  
HETATM   23  C   UNL     1      -7.733  11.426  66.957  1.00  0.00    -0.154 A  
HETATM   24 CL   UNL     1      -6.413  11.574  68.077  1.00  0.00    -0.053 Cl 
HETATM   25  C   UNL     1      -8.788  12.336  67.074  1.00  0.00    -0.205 A  
BRANCH  21  26
HETATM   26  N   UNL     1      -6.682   9.491  65.986  1.00  0.00    -0.080 N  
HETATM   27  H   UNL     1      -5.758   9.863  66.208  1.00  0.00     0.000 HD 
BRANCH  26  28
HETATM   28  C   UNL     1      -6.749   8.153  65.711  1.00  0.00    -0.055 C  
HETATM   29  O   UNL     1      -6.829   7.665  64.589  1.00  0.00    -0.049 OA 
BRANCH  28  30
HETATM   30  N   UNL     1      -6.720   7.371  66.846  1.00  0.00    -0.063 N  
HETATM   31  H   UNL     1      -5.862   7.304  67.394  1.00  0.00     0.000 HD 
BRANCH  30  32
HETATM   32  C   UNL     1      -7.883   6.655  67.261  1.00  0.00    -0.112 C  
HETATM   33  C   UNL     1      -8.954   7.261  68.119  1.00  0.00    -0.132 C  
HETATM   34  C   UNL     1      -9.216   7.019  66.663  1.00  0.00    -0.189 C  
ENDBRANCH  30  32
ENDBRANCH  28  30
ENDBRANCH  26  28
ENDBRANCH  21  26
ENDBRANCH  18  19
ENDBRANCH  11  18
ENDBRANCH   2   3
TORSDOF 8
ENDMDL
MODEL      123
REMARK 921   NORMALIZED FREE ENERGY PREDICTED BY IDOCK:   -4.66 KCAL/MOL
REMARK 922        TOTAL FREE ENERGY PREDICTED BY IDOCK:   -8.37 KCAL/MOL
REMARK 923 INTER-LIGAND FREE ENERGY PREDICTED BY IDOCK:   -7.50 KCAL/MOL
REMARK 924 INTRA-LIGAND FREE ENERGY PREDICTED BY IDOCK:   -0.87 KCAL/MOL
REMARK 927      BINDING AFFINITY PREDICTED BY RF-SCORE:    0.00 PKD
ROOT
HETATM    1  C   UNL     1     -10.508  19.056  66.805  1.00  0.00    -0.431 C  
HETATM    2  O   UNL     1      -9.895  18.348  65.729  1.00  0.00    -0.503 OA 
ENDROOT
BRANCH   2   3
HETATM    3  C   UNL     1     -10.038  16.985  65.760  1.00  0.00    -0.199 A  
HETATM    4  C   UNL     1      -9.086  16.210  66.437  1.00  0.00    -0.339 A  
HETATM    5  N   UNL     1     -12.175  14.494  64.276  1.00  0.00    -0.576 NA 
HETATM    6  C   UNL     1      -9.196  14.801  66.413  1.00  0.00    -0.301 A  
HETATM    7  C   UNL     1     -11.172  14.968  65.016  1.00  0.00    -0.409 A  
HETATM    8  C   UNL     1     -10.239  14.154  65.697  1.00  0.00    -0.357 A  
HETATM    9  C   UNL     1     -12.243  13.172  64.095  1.00  0.00    -0.398 A  
HETATM   10  C   UNL     1     -11.059  16.343  65.058  1.00  0.00    -0.216 A  
HETATM   11  C   UNL     1     -10.407  12.743  65.567  1.00  0.00    -0.284 A  
HETATM   12  C   UNL     1     -11.363  12.282  64.670  1.00  0.00    -0.375 A  
BRANCH   4  13
HETATM   13  C   UNL     1      -8.002  16.868  67.225  1.00  0.00    -0.174 C  
HETATM   14  H2  UNL     1      -9.146  16.887  68.973  1.00  0.00     0.000 HD 
HETATM   15  H1  UNL     1      -7.513  17.580  69.084  1.00  0.00     0.000 HD 
HETATM   16  O   UNL     1      -6.924  17.186  66.741  1.00  0.00    -0.178 OA 
HETATM   17  N   UNL     1      -8.254  17.131  68.545  1.00  0.00    -0.253 N  
ENDBRANCH   4  13
BRANCH  11  18
HETATM   18  O   UNL     1      -9.512  11.932  66.245  1.00  0.00    -0.218 OA 
BRANCH  18  19
HETATM   19  C   UNL     1      -9.528  10.549  66.190  1.00  0.00    -0.180 A  
HETATM   20  C   UNL     1     -10.269   9.916  67.197  1.00  0.00    -0.285 A  
HETATM   21  C   UNL     1      -9.411   7.722  66.562  1.00  0.00    -0.189 A  
HETATM   22  C   UNL     1     -10.221   8.518  67.375  1.00  0.00    -0.329 A  
HETATM   23  C   UNL     1      -8.689   8.353  65.549  1.00  0.00    -0.162 A  
HETATM   24 CL   UNL     1      -7.644   7.449  64.496  1.00  0.00    -0.102 Cl 
HETATM   25  C   UNL     1      -8.754   9.738  65.364  1.00  0.00    -0.176 A  
BRANCH  21  26
HETATM   26  N   UNL     1      -9.238   6.330  66.730  1.00  0.00    -0.133 N  
HETATM   27  H   UNL     1      -8.483   6.038  67.352  1.00  0.00     0.000 HD 
BRANCH  26  28
HETATM   28  C   UNL     1      -9.971   5.331  66.151  1.00  0.00    -0.165 C  
HETATM   29  O   UNL     1     -11.196   5.276  66.128  1.00  0.00    -0.038 OA 
BRANCH  28  30
HETATM   30  N   UNL     1      -9.185   4.355  65.576  1.00  0.00    -0.141 N  
HETATM   31  H   UNL     1      -8.577   3.783  66.162  1.00  0.00     0.000 HD 
BRANCH  30  32
HETATM   32  C   UNL     1      -9.218   4.139  64.166  1.00  0.00    -0.149 C  
HETATM   33  C   UNL     1      -8.431   3.057  63.486  1.00  0.00    -0.086 C  
HETATM   34  C   UNL     1      -9.916   2.917  63.631  1.00  0.00    -0.153 C  
ENDBRANCH  30  32
ENDBRANCH  28  30
ENDBRANCH  26  28
ENDBRANCH  21  26
ENDBRANCH  18  19
ENDBRANCH  11  18
ENDBRANCH   2   3
TORSDOF 8
ENDMDL
MODEL      124
REMARK 921   NORMALIZED FREE ENERGY PREDICTED BY IDOCK:   -4.64 KCAL/MOL
REMARK 922        TOTAL FREE ENERGY PREDICTED BY IDOCK:   -8.35 KCAL/MOL
REMARK 923 INTER-LIGAND FREE ENERGY PREDICTED BY IDOCK:   -7.33 KCAL/MOL
REMARK 924 INTRA-LIGAND FREE ENERGY PREDICTED BY IDOCK:   -1.02 KCAL/MOL
REMARK 927      BINDING AFFINITY PREDICTED BY RF-SCORE:    0.00 PKD
ROOT
HETATM    1  C   UNL     1     -11.065   6.361  72.583  1.00  0.00    -0.261 C  
HETATM    2  O   UNL     1     -11.461   6.747  71.268  1.00  0.00    -0.271 OA 
ENDROOT
BRANCH   2   3
HETATM    3  C   UNL     1     -11.585   8.096  71.061  1.00  0.00    -0.279 A  
HETATM    4  C   UNL     1     -10.604   8.771  70.321  1.00  0.00    -0.239 A  
HETATM    5  N   UNL     1     -13.732  10.775  72.153  1.00  0.00    -0.038 NA 
HETATM    6  C   UNL     1     -10.697  10.172  70.163  1.00  0.00    -0.355 A  
HETATM    7  C   UNL     1     -12.714  10.201  71.509  1.00  0.00    -0.436 A  
HETATM    8  C   UNL     1     -11.751  10.915  70.759  1.00  0.00    -0.355 A  
HETATM    9  C   UNL     1     -13.788  12.110  72.163  1.00  0.00     0.129 A  
HETATM   10  C   UNL     1     -12.617   8.831  71.645  1.00  0.00    -0.393 A  
HETATM   11  C   UNL     1     -11.905  12.332  70.705  1.00  0.00     0.209 A  
HETATM   12  C   UNL     1     -12.880  12.912  71.508  1.00  0.00    -0.380 A  
BRANCH   4  13
HETATM   13  C   UNL     1      -9.506   8.009  69.655  1.00  0.00    -0.163 C  
HETATM   14  H2  UNL     1     -10.530   7.927  67.835  1.00  0.00     0.000 HD 
HETATM   15  H1  UNL     1      -8.933   7.148  67.886  1.00  0.00     0.000 HD 
HETATM   16  O   UNL     1      -8.482   7.672  70.234  1.00  0.00    -0.130 OA 
HETATM   17  N   UNL     1      -9.682   7.669  68.340  1.00  0.00    -0.155 N  
ENDBRANCH   4  13
BRANCH  11  18
HETATM   18  O   UNL     1     -10.981  13.042  69.958  1.00  0.00     0.267 OA 
BRANCH  18  19
HETATM   19  C   UNL     1     -11.122  13.314  68.608  1.00  0.00    -0.268 A  
HETATM   20  C   UNL     1     -11.662  12.274  67.838  1.00  0.00    -0.410 A  
HETATM   21  C   UNL     1     -11.157  13.443  65.757  1.00  0.00    -0.282 A  
HETATM   22  C   UNL     1     -11.690  12.341  66.431  1.00  0.00    -0.431 A  
HETATM   23  C   UNL     1     -10.638  14.485  66.527  1.00  0.00    -0.297 A  
HETATM   24 CL   UNL     1      -9.942  15.890  65.780  1.00  0.00    -0.369 Cl 
HETATM   25  C   UNL     1     -10.630  14.422  67.924  1.00  0.00    -0.240 A  
BRANCH  21  26
HETATM   26  N   UNL     1     -11.065  13.549  64.352  1.00  0.00    -0.421 N  
HETATM   27  H   UNL     1     -10.893  14.482  63.977  1.00  0.00     0.000 HD 
BRANCH  26  28
HETATM   28  C   UNL     1     -11.181  12.537  63.438  1.00  0.00    -0.397 C  
HETATM   29  O   UNL     1     -12.218  12.212  62.871  1.00  0.00    -0.138 OA 
BRANCH  28  30
HETATM   30  N   UNL     1      -9.986  11.891  63.202  1.00  0.00    -0.518 N  
HETATM   31  H   UNL     1      -9.298  12.308  62.575  1.00  0.00     0.000 HD 
BRANCH  30  32
HETATM   32  C   UNL     1      -9.706  10.640  63.829  1.00  0.00    -0.327 C  
HETATM   33  C   UNL     1      -8.347  10.003  63.811  1.00  0.00    -0.170 C  
HETATM   34  C   UNL     1      -8.861  10.622  65.076  1.00  0.00    -0.212 C  
ENDBRANCH  30  32
ENDBRANCH  28  30
ENDBRANCH  26  28
ENDBRANCH  21  26
ENDBRANCH  18  19
ENDBRANCH  11  18
ENDBRANCH   2   3
TORSDOF 8
ENDMDL
MODEL      125
REMARK 921   NORMALIZED FREE ENERGY PREDICTED BY IDOCK:   -4.64 KCAL/MOL
REMARK 922        TOTAL FREE ENERGY PREDICTED BY IDOCK:   -8.35 KCAL/MOL
REMARK 923 INTER-LIGAND FREE ENERGY PREDICTED BY IDOCK:   -7.44 KCAL/MOL
REMARK 924 INTRA-LIGAND FREE ENERGY PREDICTED BY IDOCK:   -0.90 KCAL/MOL
REMARK 927      BINDING AFFINITY PREDICTED BY RF-SCORE:    0.00 PKD
ROOT
HETATM    1  C   UNL     1      -5.155  11.478  70.345  1.00  0.00    -0.091 C  
HETATM    2  O   UNL     1      -5.658  10.670  69.283  1.00  0.00    -0.038 OA 
ENDROOT
BRANCH   2   3
HETATM    3  C   UNL     1      -7.011  10.733  69.081  1.00  0.00    -0.091 A  
HETATM    4  C   UNL     1      -7.520  11.600  68.103  1.00  0.00    -0.103 A  
HETATM    5  N   UNL     1      -9.999   9.428  70.612  1.00  0.00    -0.268 NA 
HETATM    6  C   UNL     1      -8.919  11.715  67.940  1.00  0.00    -0.170 A  
HETATM    7  C   UNL     1      -9.271  10.136  69.747  1.00  0.00    -0.144 A  
HETATM    8  C   UNL     1      -9.822  10.989  68.763  1.00  0.00    -0.206 A  
HETATM    9  C   UNL     1     -11.323   9.609  70.604  1.00  0.00    -0.312 A  
HETATM   10  C   UNL     1      -7.903  10.025  69.887  1.00  0.00    -0.185 A  
HETATM   11  C   UNL     1     -11.245  11.075  68.715  1.00  0.00    -0.266 A  
HETATM   12  C   UNL     1     -11.968  10.448  69.723  1.00  0.00    -0.242 A  
BRANCH   4  13
HETATM   13  C   UNL     1      -6.593  12.345  67.202  1.00  0.00    -0.089 C  
HETATM   14  H2  UNL     1      -6.770  14.107  68.312  1.00  0.00     0.000 HD 
HETATM   15  H1  UNL     1      -5.707  14.167  66.888  1.00  0.00     0.000 HD 
HETATM   16  O   UNL     1      -6.070  11.841  66.217  1.00  0.00    -0.105 OA 
HETATM   17  N   UNL     1      -6.341  13.658  67.503  1.00  0.00    -0.133 N  
ENDBRANCH   4  13
BRANCH  11  18
HETATM   18  O   UNL     1     -11.798  11.891  67.744  1.00  0.00    -0.518 OA 
BRANCH  18  19
HETATM   19  C   UNL     1     -11.698  13.271  67.744  1.00  0.00    -0.358 A  
HETATM   20  C   UNL     1     -11.497  13.860  66.488  1.00  0.00    -0.361 A  
HETATM   21  C   UNL     1     -11.061  16.041  67.490  1.00  0.00    -0.207 A  
HETATM   22  C   UNL     1     -11.192  15.230  66.360  1.00  0.00    -0.224 A  
HETATM   23  C   UNL     1     -11.282  15.457  68.738  1.00  0.00    -0.301 A  
HETATM   24 CL   UNL     1     -11.129  16.381  70.200  1.00  0.00    -0.348 Cl 
HETATM   25  C   UNL     1     -11.602  14.101  68.858  1.00  0.00    -0.345 A  
BRANCH  21  26
HETATM   26  N   UNL     1     -10.673  17.399  67.454  1.00  0.00    -0.301 N  
HETATM   27  H   UNL     1     -10.698  17.902  68.341  1.00  0.00     0.000 HD 
BRANCH  26  28
HETATM   28  C   UNL     1     -10.266  18.113  66.361  1.00  0.00    -0.399 C  
HETATM   29  O   UNL     1     -10.828  18.118  65.271  1.00  0.00    -0.628 OA 
BRANCH  28  30
HETATM   30  N   UNL     1      -9.127  18.853  66.598  1.00  0.00    -0.320 N  
HETATM   31  H   UNL     1      -9.206  19.812  66.936  1.00  0.00     0.000 HD 
BRANCH  30  32
HETATM   32  C   UNL     1      -7.836  18.285  66.374  1.00  0.00    -0.260 C  
HETATM   33  C   UNL     1      -6.773  18.231  67.431  1.00  0.00    -0.204 C  
HETATM   34  C   UNL     1      -7.491  16.976  67.034  1.00  0.00    -0.227 C  
ENDBRANCH  30  32
ENDBRANCH  28  30
ENDBRANCH  26  28
ENDBRANCH  21  26
ENDBRANCH  18  19
ENDBRANCH  11  18
ENDBRANCH   2   3
TORSDOF 8
ENDMDL
MODEL      126
REMARK 921   NORMALIZED FREE ENERGY PREDICTED BY IDOCK:   -4.64 KCAL/MOL
REMARK 922        TOTAL FREE ENERGY PREDICTED BY IDOCK:   -8.34 KCAL/MOL
REMARK 923 INTER-LIGAND FREE ENERGY PREDICTED BY IDOCK:   -6.69 KCAL/MOL
REMARK 924 INTRA-LIGAND FREE ENERGY PREDICTED BY IDOCK:   -1.66 KCAL/MOL
REMARK 927      BINDING AFFINITY PREDICTED BY RF-SCORE:    0.00 PKD
ROOT
HETATM    1  C   UNL     1     -10.588  16.212  67.538  1.00  0.00    -0.314 C  
HETATM    2  O   UNL     1     -10.883  14.823  67.668  1.00  0.00    -0.272 OA 
ENDROOT
BRANCH   2   3
HETATM    3  C   UNL     1      -9.836  13.971  67.433  1.00  0.00    -0.240 A  
HETATM    4  C   UNL     1     -10.097  12.627  67.130  1.00  0.00    -0.224 A  
HETATM    5  N   UNL     1      -6.240  14.052  67.623  1.00  0.00    -0.302 NA 
HETATM    6  C   UNL     1      -9.017  11.734  66.953  1.00  0.00    -0.195 A  
HETATM    7  C   UNL     1      -7.447  13.524  67.419  1.00  0.00    -0.122 A  
HETATM    8  C   UNL     1      -7.670  12.165  67.100  1.00  0.00    -0.151 A  
HETATM    9  C   UNL     1      -5.190  13.226  67.615  1.00  0.00    -0.026 A  
HETATM   10  C   UNL     1      -8.512  14.387  67.577  1.00  0.00    -0.202 A  
HETATM   11  C   UNL     1      -6.516  11.334  66.995  1.00  0.00    -0.114 A  
HETATM   12  C   UNL     1      -5.289  11.876  67.362  1.00  0.00    -0.104 A  
BRANCH   4  13
HETATM   13  C   UNL     1     -11.502  12.159  66.936  1.00  0.00    -0.351 C  
HETATM   14  H2  UNL     1     -11.632  13.016  65.035  1.00  0.00     0.000 HD 
HETATM   15  H1  UNL     1     -13.074  12.159  65.622  1.00  0.00     0.000 HD 
HETATM   16  O   UNL     1     -12.116  11.524  67.783  1.00  0.00    -0.626 OA 
HETATM   17  N   UNL     1     -12.115  12.479  65.754  1.00  0.00    -0.420 N  
ENDBRANCH   4  13
BRANCH  11  18
HETATM   18  O   UNL     1      -6.717  10.005  66.664  1.00  0.00    -0.077 OA 
BRANCH  18  19
HETATM   19  C   UNL     1      -7.228   9.059  67.536  1.00  0.00    -0.080 A  
HETATM   20  C   UNL     1      -8.190   8.197  66.993  1.00  0.00    -0.115 A  
HETATM   21  C   UNL     1      -8.733   7.286  69.190  1.00  0.00    -0.136 A  
HETATM   22  C   UNL     1      -8.927   7.313  67.806  1.00  0.00    -0.126 A  
HETATM   23  C   UNL     1      -7.760   8.131  69.725  1.00  0.00    -0.100 A  
HETATM   24 CL   UNL     1      -7.456   8.178  71.434  1.00  0.00    -0.071 Cl 
HETATM   25  C   UNL     1      -7.019   8.994  68.910  1.00  0.00    -0.065 A  
BRANCH  21  26
HETATM   26  N   UNL     1      -9.489   6.496  70.084  1.00  0.00    -0.158 N  
HETATM   27  H   UNL     1      -9.023   5.674  70.469  1.00  0.00     0.000 HD 
BRANCH  26  28
HETATM   28  C   UNL     1     -10.776   6.713  70.491  1.00  0.00    -0.247 C  
HETATM   29  O   UNL     1     -11.778   6.477  69.823  1.00  0.00    -0.382 OA 
BRANCH  28  30
HETATM   30  N   UNL     1     -10.854   7.240  71.762  1.00  0.00    -0.223 N  
HETATM   31  H   UNL     1     -10.895   6.616  72.569  1.00  0.00     0.000 HD 
BRANCH  30  32
HETATM   32  C   UNL     1     -10.878   8.653  71.959  1.00  0.00    -0.360 C  
HETATM   33  C   UNL     1     -11.067   9.631  70.837  1.00  0.00    -0.422 C  
HETATM   34  C   UNL     1     -12.183   9.389  71.809  1.00  0.00    -0.465 C  
ENDBRANCH  30  32
ENDBRANCH  28  30
ENDBRANCH  26  28
ENDBRANCH  21  26
ENDBRANCH  18  19
ENDBRANCH  11  18
ENDBRANCH   2   3
TORSDOF 8
ENDMDL
MODEL      127
REMARK 921   NORMALIZED FREE ENERGY PREDICTED BY IDOCK:   -4.63 KCAL/MOL
REMARK 922        TOTAL FREE ENERGY PREDICTED BY IDOCK:   -8.34 KCAL/MOL
REMARK 923 INTER-LIGAND FREE ENERGY PREDICTED BY IDOCK:   -7.12 KCAL/MOL
REMARK 924 INTRA-LIGAND FREE ENERGY PREDICTED BY IDOCK:   -1.21 KCAL/MOL
REMARK 927      BINDING AFFINITY PREDICTED BY RF-SCORE:    0.00 PKD
ROOT
HETATM    1  C   UNL     1      -8.795   2.862  65.806  1.00  0.00    -0.140 C  
HETATM    2  O   UNL     1      -8.597   4.233  65.466  1.00  0.00    -0.116 OA 
ENDROOT
BRANCH   2   3
HETATM    3  C   UNL     1      -8.961   5.139  66.427  1.00  0.00    -0.125 A  
HETATM    4  C   UNL     1      -8.474   6.452  66.353  1.00  0.00    -0.123 A  
HETATM    5  N   UNL     1     -10.757   5.137  69.549  1.00  0.00    -0.086 NA 
HETATM    6  C   UNL     1      -8.796   7.369  67.379  1.00  0.00    -0.123 A  
HETATM    7  C   UNL     1     -10.044   5.645  68.543  1.00  0.00    -0.182 A  
HETATM    8  C   UNL     1      -9.583   6.980  68.497  1.00  0.00    -0.137 A  
HETATM    9  C   UNL     1     -10.967   5.913  70.617  1.00  0.00    -0.287 A  
HETATM   10  C   UNL     1      -9.732   4.764  67.527  1.00  0.00    -0.209 A  
HETATM   11  C   UNL     1      -9.917   7.811  69.607  1.00  0.00    -0.190 A  
HETATM   12  C   UNL     1     -10.526   7.215  70.705  1.00  0.00    -0.227 A  
BRANCH   4  13
HETATM   13  C   UNL     1      -7.676   6.893  65.172  1.00  0.00    -0.109 C  
HETATM   14  H2  UNL     1      -9.305   7.879  64.311  1.00  0.00     0.000 HD 
HETATM   15  H1  UNL     1      -7.773   7.938  63.411  1.00  0.00     0.000 HD 
HETATM   16  O   UNL     1      -6.494   6.610  65.021  1.00  0.00    -0.040 OA 
HETATM   17  N   UNL     1      -8.319   7.636  64.218  1.00  0.00     0.003 N  
ENDBRANCH   4  13
BRANCH  11  18
HETATM   18  O   UNL     1      -9.489   9.127  69.567  1.00  0.00    -0.159 OA 
BRANCH  18  19
HETATM   19  C   UNL     1     -10.306  10.196  69.243  1.00  0.00    -0.223 A  
HETATM   20  C   UNL     1     -10.161  10.691  67.940  1.00  0.00    -0.194 A  
HETATM   21  C   UNL     1     -11.560  12.628  68.432  1.00  0.00    -0.328 A  
HETATM   22  C   UNL     1     -10.788  11.886  67.534  1.00  0.00    -0.283 A  
HETATM   23  C   UNL     1     -11.719  12.123  69.723  1.00  0.00    -0.310 A  
HETATM   24 CL   UNL     1     -12.649  12.980  70.913  1.00  0.00    -0.403 Cl 
HETATM   25  C   UNL     1     -11.109  10.927  70.115  1.00  0.00    -0.238 A  
BRANCH  21  26
HETATM   26  N   UNL     1     -12.149  13.877  68.133  1.00  0.00    -0.478 N  
HETATM   27  H   UNL     1     -12.786  14.258  68.832  1.00  0.00     0.000 HD 
BRANCH  26  28
HETATM   28  C   UNL     1     -11.957  14.632  67.008  1.00  0.00    -0.276 C  
HETATM   29  O   UNL     1     -11.137  15.537  66.897  1.00  0.00    -0.306 OA 
BRANCH  28  30
HETATM   30  N   UNL     1     -12.796  14.275  65.975  1.00  0.00    -0.432 N  
HETATM   31  H   UNL     1     -13.800  14.201  66.138  1.00  0.00     0.000 HD 
BRANCH  30  32
HETATM   32  C   UNL     1     -12.269  14.007  64.676  1.00  0.00    -0.435 C  
HETATM   33  C   UNL     1     -10.961  13.305  64.453  1.00  0.00    -0.413 C  
HETATM   34  C   UNL     1     -12.248  12.587  64.175  1.00  0.00    -0.552 C  
ENDBRANCH  30  32
ENDBRANCH  28  30
ENDBRANCH  26  28
ENDBRANCH  21  26
ENDBRANCH  18  19
ENDBRANCH  11  18
ENDBRANCH   2   3
TORSDOF 8
ENDMDL
MODEL      128
REMARK 921   NORMALIZED FREE ENERGY PREDICTED BY IDOCK:   -4.63 KCAL/MOL
REMARK 922        TOTAL FREE ENERGY PREDICTED BY IDOCK:   -8.32 KCAL/MOL
REMARK 923 INTER-LIGAND FREE ENERGY PREDICTED BY IDOCK:   -7.26 KCAL/MOL
REMARK 924 INTRA-LIGAND FREE ENERGY PREDICTED BY IDOCK:   -1.07 KCAL/MOL
REMARK 927      BINDING AFFINITY PREDICTED BY RF-SCORE:    0.00 PKD
ROOT
HETATM    1  C   UNL     1      -6.201   5.810  72.363  1.00  0.00    -0.044 C  
HETATM    2  O   UNL     1      -7.613   5.629  72.263  1.00  0.00    -0.097 OA 
ENDROOT
BRANCH   2   3
HETATM    3  C   UNL     1      -8.271   6.537  71.475  1.00  0.00    -0.116 A  
HETATM    4  C   UNL     1      -9.061   7.526  72.078  1.00  0.00    -0.157 A  
HETATM    5  N   UNL     1      -8.878   7.072  67.965  1.00  0.00    -0.125 NA 
HETATM    6  C   UNL     1      -9.793   8.419  71.264  1.00  0.00    -0.255 A  
HETATM    7  C   UNL     1      -8.966   7.302  69.275  1.00  0.00    -0.135 A  
HETATM    8  C   UNL     1      -9.763   8.321  69.846  1.00  0.00    -0.180 A  
HETATM    9  C   UNL     1      -9.661   7.788  67.153  1.00  0.00    -0.170 A  
HETATM   10  C   UNL     1      -8.248   6.444  70.083  1.00  0.00    -0.129 A  
HETATM   11  C   UNL     1     -10.504   9.136  68.940  1.00  0.00    -0.218 A  
HETATM   12  C   UNL     1     -10.511   8.776  67.598  1.00  0.00    -0.310 A  
BRANCH   4  13
HETATM   13  C   UNL     1      -9.080   7.672  73.563  1.00  0.00    -0.262 C  
HETATM   14  H2  UNL     1     -10.619   6.275  73.782  1.00  0.00     0.000 HD 
HETATM   15  H1  UNL     1      -9.997   7.013  75.274  1.00  0.00     0.000 HD 
HETATM   16  O   UNL     1      -8.342   8.438  74.168  1.00  0.00    -0.266 OA 
HETATM   17  N   UNL     1      -9.984   6.914  74.260  1.00  0.00    -0.315 N  
ENDBRANCH   4  13
BRANCH  11  18
HETATM   18  O   UNL     1     -11.274  10.150  69.483  1.00  0.00    -0.238 OA 
BRANCH  18  19
HETATM   19  C   UNL     1     -11.113  11.491  69.179  1.00  0.00    -0.259 A  
HETATM   20  C   UNL     1      -9.938  11.814  68.486  1.00  0.00    -0.203 A  
HETATM   21  C   UNL     1     -10.328  14.205  68.775  1.00  0.00    -0.229 A  
HETATM   22  C   UNL     1      -9.554  13.154  68.276  1.00  0.00    -0.218 A  
HETATM   23  C   UNL     1     -11.506  13.881  69.447  1.00  0.00    -0.280 A  
HETATM   24 CL   UNL     1     -12.527  15.118  70.114  1.00  0.00    -0.375 Cl 
HETATM   25  C   UNL     1     -11.892  12.550  69.637  1.00  0.00    -0.382 A  
BRANCH  21  26
HETATM   26  N   UNL     1      -9.970  15.569  68.685  1.00  0.00    -0.203 N  
HETATM   27  H   UNL     1      -9.491  15.967  69.493  1.00  0.00     0.000 HD 
BRANCH  26  28
HETATM   28  C   UNL     1     -10.195  16.414  67.633  1.00  0.00    -0.272 C  
HETATM   29  O   UNL     1     -10.740  17.510  67.711  1.00  0.00    -0.380 OA 
BRANCH  28  30
HETATM   30  N   UNL     1      -9.742  15.908  66.434  1.00  0.00    -0.266 N  
HETATM   31  H   UNL     1      -8.741  15.775  66.285  1.00  0.00     0.000 HD 
BRANCH  30  32
HETATM   32  C   UNL     1     -10.663  15.568  65.398  1.00  0.00    -0.405 C  
HETATM   33  C   UNL     1     -10.682  14.225  64.729  1.00  0.00    -0.435 C  
HETATM   34  C   UNL     1     -11.768  14.591  65.696  1.00  0.00    -0.335 C  
ENDBRANCH  30  32
ENDBRANCH  28  30
ENDBRANCH  26  28
ENDBRANCH  21  26
ENDBRANCH  18  19
ENDBRANCH  11  18
ENDBRANCH   2   3
TORSDOF 8
ENDMDL
MODEL      129
REMARK 921   NORMALIZED FREE ENERGY PREDICTED BY IDOCK:   -4.58 KCAL/MOL
REMARK 922        TOTAL FREE ENERGY PREDICTED BY IDOCK:   -8.26 KCAL/MOL
REMARK 923 INTER-LIGAND FREE ENERGY PREDICTED BY IDOCK:   -7.03 KCAL/MOL
REMARK 924 INTRA-LIGAND FREE ENERGY PREDICTED BY IDOCK:   -1.23 KCAL/MOL
REMARK 927      BINDING AFFINITY PREDICTED BY RF-SCORE:    0.00 PKD
ROOT
HETATM    1  C   UNL     1     -10.387  17.949  66.475  1.00  0.00    -0.362 C  
HETATM    2  O   UNL     1     -10.902  16.894  67.286  1.00  0.00    -0.257 OA 
ENDROOT
BRANCH   2   3
HETATM    3  C   UNL     1     -10.737  15.629  66.786  1.00  0.00    -0.300 A  
HETATM    4  C   UNL     1      -9.663  14.847  67.234  1.00  0.00    -0.228 A  
HETATM    5  N   UNL     1     -12.201  13.564  64.224  1.00  0.00    -0.554 NA 
HETATM    6  C   UNL     1      -9.454  13.569  66.670  1.00  0.00    -0.271 A  
HETATM    7  C   UNL     1     -11.361  13.891  65.206  1.00  0.00    -0.314 A  
HETATM    8  C   UNL     1     -10.296  13.068  65.641  1.00  0.00    -0.294 A  
HETATM    9  C   UNL     1     -11.964  12.432  63.553  1.00  0.00    -0.538 A  
HETATM   10  C   UNL     1     -11.559  15.133  65.774  1.00  0.00    -0.097 A  
HETATM   11  C   UNL     1     -10.138  11.819  64.971  1.00  0.00    -0.263 A  
HETATM   12  C   UNL     1     -10.931  11.574  63.856  1.00  0.00    -0.474 A  
BRANCH   4  13
HETATM   13  C   UNL     1      -8.786  15.337  68.339  1.00  0.00    -0.170 C  
HETATM   14  H2  UNL     1      -7.377  16.120  67.010  1.00  0.00     0.000 HD 
HETATM   15  H1  UNL     1      -7.031  16.315  68.742  1.00  0.00     0.000 HD 
HETATM   16  O   UNL     1      -9.051  15.175  69.523  1.00  0.00    -0.209 OA 
HETATM   17  N   UNL     1      -7.629  15.980  67.988  1.00  0.00    -0.126 N  
ENDBRANCH   4  13
BRANCH  11  18
HETATM   18  O   UNL     1      -9.113  10.994  65.400  1.00  0.00    -0.198 OA 
BRANCH  18  19
HETATM   19  C   UNL     1      -9.256  10.026  66.379  1.00  0.00    -0.156 A  
HETATM   20  C   UNL     1      -8.278  10.036  67.382  1.00  0.00    -0.118 A  
HETATM   21  C   UNL     1      -9.071   7.914  68.289  1.00  0.00    -0.134 A  
HETATM   22  C   UNL     1      -8.191   8.999  68.334  1.00  0.00    -0.116 A  
HETATM   23  C   UNL     1     -10.055   7.917  67.301  1.00  0.00    -0.238 A  
HETATM   24 CL   UNL     1     -11.185   6.606  67.158  1.00  0.00    -0.423 Cl 
HETATM   25  C   UNL     1     -10.148   8.958  66.371  1.00  0.00    -0.333 A  
BRANCH  21  26
HETATM   26  N   UNL     1      -8.997   6.794  69.147  1.00  0.00    -0.133 N  
HETATM   27  H   UNL     1      -9.873   6.486  69.569  1.00  0.00     0.000 HD 
BRANCH  26  28
HETATM   28  C   UNL     1      -7.879   6.076  69.473  1.00  0.00    -0.099 C  
HETATM   29  O   UNL     1      -7.109   6.344  70.390  1.00  0.00    -0.065 OA 
BRANCH  28  30
HETATM   30  N   UNL     1      -7.684   4.987  68.651  1.00  0.00    -0.078 N  
HETATM   31  H   UNL     1      -6.736   4.677  68.435  1.00  0.00     0.000 HD 
BRANCH  30  32
HETATM   32  C   UNL     1      -8.800   4.288  68.100  1.00  0.00    -0.107 C  
HETATM   33  C   UNL     1      -8.693   2.911  67.514  1.00  0.00    -0.142 C  
HETATM   34  C   UNL     1      -9.359   3.105  68.843  1.00  0.00    -0.231 C  
ENDBRANCH  30  32
ENDBRANCH  28  30
ENDBRANCH  26  28
ENDBRANCH  21  26
ENDBRANCH  18  19
ENDBRANCH  11  18
ENDBRANCH   2   3
TORSDOF 8
ENDMDL
MODEL      130
REMARK 921   NORMALIZED FREE ENERGY PREDICTED BY IDOCK:   -4.58 KCAL/MOL
REMARK 922        TOTAL FREE ENERGY PREDICTED BY IDOCK:   -8.26 KCAL/MOL
REMARK 923 INTER-LIGAND FREE ENERGY PREDICTED BY IDOCK:   -7.90 KCAL/MOL
REMARK 924 INTRA-LIGAND FREE ENERGY PREDICTED BY IDOCK:   -0.36 KCAL/MOL
REMARK 927      BINDING AFFINITY PREDICTED BY RF-SCORE:    0.00 PKD
ROOT
HETATM    1  C   UNL     1      -8.554   2.529  69.244  1.00  0.00    -0.072 C  
HETATM    2  O   UNL     1      -9.442   3.104  68.287  1.00  0.00    -0.193 OA 
ENDROOT
BRANCH   2   3
HETATM    3  C   UNL     1      -9.769   4.418  68.498  1.00  0.00    -0.113 A  
HETATM    4  C   UNL     1      -9.790   5.304  67.411  1.00  0.00    -0.183 A  
HETATM    5  N   UNL     1     -10.404   6.590  71.300  1.00  0.00    -0.202 NA 
HETATM    6  C   UNL     1     -10.061   6.672  67.638  1.00  0.00    -0.192 A  
HETATM    7  C   UNL     1     -10.247   6.251  70.020  1.00  0.00    -0.188 A  
HETATM    8  C   UNL     1     -10.290   7.173  68.949  1.00  0.00    -0.202 A  
HETATM    9  C   UNL     1     -10.517   7.889  71.591  1.00  0.00    -0.209 A  
HETATM   10  C   UNL     1      -9.992   4.916  69.782  1.00  0.00    -0.314 A  
HETATM   11  C   UNL     1     -10.518   8.539  69.289  1.00  0.00    -0.215 A  
HETATM   12  C   UNL     1     -10.525   8.881  70.636  1.00  0.00    -0.271 A  
BRANCH   4  13
HETATM   13  C   UNL     1      -9.588   4.796  66.022  1.00  0.00    -0.180 C  
HETATM   14  H2  UNL     1     -11.521   4.008  65.921  1.00  0.00     0.000 HD 
HETATM   15  H1  UNL     1     -10.498   3.796  64.483  1.00  0.00     0.000 HD 
HETATM   16  O   UNL     1      -8.537   4.929  65.409  1.00  0.00    -0.127 OA 
HETATM   17  N   UNL     1     -10.636   4.143  65.431  1.00  0.00    -0.131 N  
ENDBRANCH   4  13
BRANCH  11  18
HETATM   18  O   UNL     1     -10.582   9.450  68.248  1.00  0.00    -0.222 OA 
BRANCH  18  19
HETATM   19  C   UNL     1     -11.173  10.698  68.348  1.00  0.00    -0.288 A  
HETATM   20  C   UNL     1     -11.125  11.481  67.187  1.00  0.00    -0.355 A  
HETATM   21  C   UNL     1     -11.947  13.445  68.378  1.00  0.00    -0.324 A  
HETATM   22  C   UNL     1     -11.517  12.835  67.197  1.00  0.00    -0.394 A  
HETATM   23  C   UNL     1     -12.012  12.658  69.529  1.00  0.00    -0.270 A  
HETATM   24 CL   UNL     1     -12.522  13.330  71.047  1.00  0.00    -0.452 Cl 
HETATM   25  C   UNL     1     -11.639  11.310  69.508  1.00  0.00    -0.398 A  
BRANCH  21  26
HETATM   26  N   UNL     1     -12.272  14.814  68.494  1.00  0.00    -0.605 N  
HETATM   27  H   UNL     1     -13.264  15.052  68.445  1.00  0.00     0.000 HD 
BRANCH  26  28
HETATM   28  C   UNL     1     -11.404  15.858  68.666  1.00  0.00    -0.376 C  
HETATM   29  O   UNL     1     -11.200  16.440  69.726  1.00  0.00    -0.325 OA 
BRANCH  28  30
HETATM   30  N   UNL     1     -10.757  16.212  67.502  1.00  0.00    -0.315 N  
HETATM   31  H   UNL     1     -11.267  16.217  66.619  1.00  0.00     0.000 HD 
BRANCH  30  32
HETATM   32  C   UNL     1      -9.376  16.572  67.524  1.00  0.00    -0.218 C  
HETATM   33  C   UNL     1      -8.309  15.761  66.849  1.00  0.00    -0.283 C  
HETATM   34  C   UNL     1      -8.732  17.072  66.258  1.00  0.00    -0.285 C  
ENDBRANCH  30  32
ENDBRANCH  28  30
ENDBRANCH  26  28
ENDBRANCH  21  26
ENDBRANCH  18  19
ENDBRANCH  11  18
ENDBRANCH   2   3
TORSDOF 8
ENDMDL
MODEL      131
REMARK 921   NORMALIZED FREE ENERGY PREDICTED BY IDOCK:   -4.56 KCAL/MOL
REMARK 922        TOTAL FREE ENERGY PREDICTED BY IDOCK:   -8.23 KCAL/MOL
REMARK 923 INTER-LIGAND FREE ENERGY PREDICTED BY IDOCK:   -7.10 KCAL/MOL
REMARK 924 INTRA-LIGAND FREE ENERGY PREDICTED BY IDOCK:   -1.14 KCAL/MOL
REMARK 927      BINDING AFFINITY PREDICTED BY RF-SCORE:    0.00 PKD
ROOT
HETATM    1  C   UNL     1     -10.786   5.863  69.383  1.00  0.00    -0.352 C  
HETATM    2  O   UNL     1      -9.712   6.552  70.020  1.00  0.00    -0.164 OA 
ENDROOT
BRANCH   2   3
HETATM    3  C   UNL     1      -9.265   7.676  69.375  1.00  0.00    -0.149 A  
HETATM    4  C   UNL     1      -9.354   8.919  70.017  1.00  0.00    -0.184 A  
HETATM    5  N   UNL     1      -8.045   8.562  66.103  1.00  0.00    -0.101 NA 
HETATM    6  C   UNL     1      -8.955  10.085  69.327  1.00  0.00    -0.186 A  
HETATM    7  C   UNL     1      -8.426   8.758  67.367  1.00  0.00    -0.116 A  
HETATM    8  C   UNL     1      -8.488  10.027  67.985  1.00  0.00    -0.117 A  
HETATM    9  C   UNL     1      -7.797   9.641  65.355  1.00  0.00    -0.117 A  
HETATM   10  C   UNL     1      -8.808   7.626  68.057  1.00  0.00    -0.127 A  
HETATM   11  C   UNL     1      -8.114  11.148  67.186  1.00  0.00    -0.138 A  
HETATM   12  C   UNL     1      -7.870  10.930  65.835  1.00  0.00    -0.090 A  
BRANCH   4  13
HETATM   13  C   UNL     1      -9.808   9.001  71.437  1.00  0.00    -0.311 C  
HETATM   14  H2  UNL     1     -11.815   9.196  70.890  1.00  0.00     0.000 HD 
HETATM   15  H1  UNL     1     -11.460   9.202  72.632  1.00  0.00     0.000 HD 
HETATM   16  O   UNL     1      -9.037   8.958  72.387  1.00  0.00    -0.372 OA 
HETATM   17  N   UNL     1     -11.151   9.146  71.662  1.00  0.00    -0.356 N  
ENDBRANCH   4  13
BRANCH  11  18
HETATM   18  O   UNL     1      -8.151  12.395  67.785  1.00  0.00    -0.138 OA 
BRANCH  18  19
HETATM   19  C   UNL     1      -8.442  13.568  67.110  1.00  0.00    -0.166 A  
HETATM   20  C   UNL     1      -7.613  14.657  67.411  1.00  0.00    -0.218 A  
HETATM   21  C   UNL     1      -9.050  16.197  66.180  1.00  0.00    -0.347 A  
HETATM   22  C   UNL     1      -7.905  15.955  66.944  1.00  0.00    -0.282 A  
HETATM   23  C   UNL     1      -9.863  15.108  65.866  1.00  0.00    -0.341 A  
HETATM   24 CL   UNL     1     -11.313  15.312  64.932  1.00  0.00    -0.399 Cl 
HETATM   25  C   UNL     1      -9.558  13.819  66.317  1.00  0.00    -0.265 A  
BRANCH  21  26
HETATM   26  N   UNL     1      -9.462  17.478  65.749  1.00  0.00     0.062 N  
HETATM   27  H   UNL     1      -9.479  17.633  64.740  1.00  0.00     0.000 HD 
BRANCH  26  28
HETATM   28  C   UNL     1      -9.841  18.531  66.534  1.00  0.00    -0.363 C  
HETATM   29  O   UNL     1     -10.737  18.502  67.372  1.00  0.00    -0.425 OA 
BRANCH  28  30
HETATM   30  N   UNL     1      -9.104  19.671  66.293  1.00  0.00    -0.375 N  
HETATM   31  H   UNL     1      -9.188  20.149  65.396  1.00  0.00     0.000 HD 
BRANCH  30  32
HETATM   32  C   UNL     1      -8.224  20.187  67.291  1.00  0.00    -0.336 C  
HETATM   33  C   UNL     1      -7.789  19.393  68.487  1.00  0.00    -0.389 C  
HETATM   34  C   UNL     1      -6.820  19.651  67.373  1.00  0.00    -0.234 C  
ENDBRANCH  30  32
ENDBRANCH  28  30
ENDBRANCH  26  28
ENDBRANCH  21  26
ENDBRANCH  18  19
ENDBRANCH  11  18
ENDBRANCH   2   3
TORSDOF 8
ENDMDL
MODEL      132
REMARK 921   NORMALIZED FREE ENERGY PREDICTED BY IDOCK:   -4.56 KCAL/MOL
REMARK 922        TOTAL FREE ENERGY PREDICTED BY IDOCK:   -8.23 KCAL/MOL
REMARK 923 INTER-LIGAND FREE ENERGY PREDICTED BY IDOCK:   -7.01 KCAL/MOL
REMARK 924 INTRA-LIGAND FREE ENERGY PREDICTED BY IDOCK:   -1.21 KCAL/MOL
REMARK 927      BINDING AFFINITY PREDICTED BY RF-SCORE:    0.00 PKD
ROOT
HETATM    1  C   UNL     1      -9.452   3.422  66.008  1.00  0.00    -0.112 C  
HETATM    2  O   UNL     1      -9.731   4.373  67.033  1.00  0.00    -0.185 OA 
ENDROOT
BRANCH   2   3
HETATM    3  C   UNL     1      -9.230   5.632  66.826  1.00  0.00    -0.128 A  
HETATM    4  C   UNL     1      -9.313   6.583  67.852  1.00  0.00    -0.111 A  
HETATM    5  N   UNL     1      -7.856   7.536  64.094  1.00  0.00    -0.134 NA 
HETATM    6  C   UNL     1      -8.857   7.899  67.616  1.00  0.00    -0.128 A  
HETATM    7  C   UNL     1      -8.282   7.302  65.336  1.00  0.00    -0.137 A  
HETATM    8  C   UNL     1      -8.338   8.285  66.350  1.00  0.00    -0.117 A  
HETATM    9  C   UNL     1      -7.551   8.795  63.768  1.00  0.00    -0.124 A  
HETATM   10  C   UNL     1      -8.721   6.017  65.585  1.00  0.00    -0.142 A  
HETATM   11  C   UNL     1      -7.903   9.596  65.994  1.00  0.00    -0.102 A  
HETATM   12  C   UNL     1      -7.611   9.844  64.658  1.00  0.00    -0.139 A  
BRANCH   4  13
HETATM   13  C   UNL     1      -9.822   6.192  69.200  1.00  0.00    -0.145 C  
HETATM   14  H2  UNL     1     -11.771   6.796  68.751  1.00  0.00     0.000 HD 
HETATM   15  H1  UNL     1     -11.499   6.128  70.376  1.00  0.00     0.000 HD 
HETATM   16  O   UNL     1      -9.105   5.720  70.073  1.00  0.00    -0.139 OA 
HETATM   17  N   UNL     1     -11.152   6.395  69.455  1.00  0.00    -0.363 N  
ENDBRANCH   4  13
BRANCH  11  18
HETATM   18  O   UNL     1      -7.933  10.565  66.983  1.00  0.00    -0.114 OA 
BRANCH  18  19
HETATM   19  C   UNL     1      -8.900  11.552  67.070  1.00  0.00    -0.173 A  
HETATM   20  C   UNL     1      -8.861  12.330  68.235  1.00  0.00    -0.178 A  
HETATM   21  C   UNL     1     -10.997  13.381  67.701  1.00  0.00    -0.259 A  
HETATM   22  C   UNL     1      -9.891  13.242  68.543  1.00  0.00    -0.169 A  
HETATM   23  C   UNL     1     -11.023  12.619  66.532  1.00  0.00    -0.269 A  
HETATM   24 CL   UNL     1     -12.361  12.714  65.430  1.00  0.00    -0.531 Cl 
HETATM   25  C   UNL     1      -9.989  11.729  66.223  1.00  0.00    -0.246 A  
BRANCH  21  26
HETATM   26  N   UNL     1     -12.111  14.204  67.979  1.00  0.00    -0.545 N  
HETATM   27  H   UNL     1     -12.958  14.019  67.442  1.00  0.00     0.000 HD 
BRANCH  26  28
HETATM   28  C   UNL     1     -12.178  15.222  68.891  1.00  0.00    -0.097 C  
HETATM   29  O   UNL     1     -11.558  16.277  68.819  1.00  0.00    -0.342 OA 
BRANCH  28  30
HETATM   30  N   UNL     1     -13.033  14.948  69.937  1.00  0.00    -0.585 N  
HETATM   31  H   UNL     1     -14.003  15.263  69.895  1.00  0.00     0.000 HD 
BRANCH  30  32
HETATM   32  C   UNL     1     -12.572  14.225  71.078  1.00  0.00    -0.358 C  
HETATM   33  C   UNL     1     -13.497  13.557  72.052  1.00  0.00    -0.584 C  
HETATM   34  C   UNL     1     -12.701  12.725  71.092  1.00  0.00    -0.355 C  
ENDBRANCH  30  32
ENDBRANCH  28  30
ENDBRANCH  26  28
ENDBRANCH  21  26
ENDBRANCH  18  19
ENDBRANCH  11  18
ENDBRANCH   2   3
TORSDOF 8
ENDMDL
MODEL      133
REMARK 921   NORMALIZED FREE ENERGY PREDICTED BY IDOCK:   -4.56 KCAL/MOL
REMARK 922        TOTAL FREE ENERGY PREDICTED BY IDOCK:   -8.22 KCAL/MOL
REMARK 923 INTER-LIGAND FREE ENERGY PREDICTED BY IDOCK:   -7.10 KCAL/MOL
REMARK 924 INTRA-LIGAND FREE ENERGY PREDICTED BY IDOCK:   -1.12 KCAL/MOL
REMARK 927      BINDING AFFINITY PREDICTED BY RF-SCORE:    0.00 PKD
ROOT
HETATM    1  C   UNL     1      -9.038   2.966  67.747  1.00  0.00    -0.180 C  
HETATM    2  O   UNL     1      -9.843   3.737  66.857  1.00  0.00    -0.182 OA 
ENDROOT
BRANCH   2   3
HETATM    3  C   UNL     1      -9.838   5.090  67.076  1.00  0.00    -0.185 A  
HETATM    4  C   UNL     1      -9.068   5.918  66.247  1.00  0.00    -0.157 A  
HETATM    5  N   UNL     1     -11.114   7.397  69.530  1.00  0.00    -0.136 NA 
HETATM    6  C   UNL     1      -9.010   7.304  66.513  1.00  0.00    -0.175 A  
HETATM    7  C   UNL     1     -10.453   7.005  68.440  1.00  0.00    -0.201 A  
HETATM    8  C   UNL     1      -9.698   7.873  67.619  1.00  0.00    -0.196 A  
HETATM    9  C   UNL     1     -10.977   8.669  69.917  1.00  0.00    -0.168 A  
HETATM   10  C   UNL     1     -10.510   5.654  68.161  1.00  0.00    -0.260 A  
HETATM   11  C   UNL     1      -9.661   9.246  68.004  1.00  0.00    -0.150 A  
HETATM   12  C   UNL     1     -10.230   9.595  69.223  1.00  0.00    -0.215 A  
BRANCH   4  13
HETATM   13  C   UNL     1      -8.365   5.349  65.059  1.00  0.00    -0.145 C  
HETATM   14  H2  UNL     1      -6.494   5.471  65.980  1.00  0.00     0.000 HD 
HETATM   15  H1  UNL     1      -6.526   4.813  64.329  1.00  0.00     0.000 HD 
HETATM   16  O   UNL     1      -8.946   5.027  64.031  1.00  0.00    -0.097 OA 
HETATM   17  N   UNL     1      -7.006   5.202  65.141  1.00  0.00    -0.060 N  
ENDBRANCH   4  13
BRANCH  11  18
HETATM   18  O   UNL     1      -8.942  10.112  67.199  1.00  0.00    -0.135 OA 
BRANCH  18  19
HETATM   19  C   UNL     1      -9.301  11.428  66.964  1.00  0.00    -0.174 A  
HETATM   20  C   UNL     1      -8.466  12.392  67.545  1.00  0.00    -0.175 A  
HETATM   21  C   UNL     1     -10.015  14.191  66.982  1.00  0.00    -0.260 A  
HETATM   22  C   UNL     1      -8.811  13.759  67.545  1.00  0.00    -0.197 A  
HETATM   23  C   UNL     1     -10.835  13.231  66.388  1.00  0.00    -0.288 A  
HETATM   24 CL   UNL     1     -12.356  13.670  65.674  1.00  0.00    -0.484 Cl 
HETATM   25  C   UNL     1     -10.478  11.879  66.374  1.00  0.00    -0.258 A  
BRANCH  21  26
HETATM   26  N   UNL     1     -10.477  15.526  67.019  1.00  0.00    -0.298 N  
HETATM   27  H   UNL     1     -10.601  15.988  66.119  1.00  0.00     0.000 HD 
BRANCH  26  28
HETATM   28  C   UNL     1     -10.777  16.265  68.131  1.00  0.00    -0.322 C  
HETATM   29  O   UNL     1     -11.820  16.188  68.770  1.00  0.00    -0.339 OA 
BRANCH  28  30
HETATM   30  N   UNL     1      -9.768  17.137  68.481  1.00  0.00    -0.279 N  
HETATM   31  H   UNL     1      -9.169  16.925  69.279  1.00  0.00     0.000 HD 
BRANCH  30  32
HETATM   32  C   UNL     1      -9.557  18.335  67.734  1.00  0.00    -0.283 C  
HETATM   33  C   UNL     1     -10.660  19.058  67.020  1.00  0.00    -0.543 C  
HETATM   34  C   UNL     1     -10.084  19.636  68.278  1.00  0.00    -0.560 C  
ENDBRANCH  30  32
ENDBRANCH  28  30
ENDBRANCH  26  28
ENDBRANCH  21  26
ENDBRANCH  18  19
ENDBRANCH  11  18
ENDBRANCH   2   3
TORSDOF 8
ENDMDL
MODEL      134
REMARK 921   NORMALIZED FREE ENERGY PREDICTED BY IDOCK:   -4.55 KCAL/MOL
REMARK 922        TOTAL FREE ENERGY PREDICTED BY IDOCK:   -8.21 KCAL/MOL
REMARK 923 INTER-LIGAND FREE ENERGY PREDICTED BY IDOCK:   -7.07 KCAL/MOL
REMARK 924 INTRA-LIGAND FREE ENERGY PREDICTED BY IDOCK:   -1.14 KCAL/MOL
REMARK 927      BINDING AFFINITY PREDICTED BY RF-SCORE:    0.00 PKD
ROOT
HETATM    1  C   UNL     1      -8.199   1.547  66.715  1.00  0.00    -0.078 C  
HETATM    2  O   UNL     1      -8.891   2.255  65.688  1.00  0.00    -0.118 OA 
ENDROOT
BRANCH   2   3
HETATM    3  C   UNL     1      -9.056   3.598  65.902  1.00  0.00    -0.153 A  
HETATM    4  C   UNL     1      -8.320   4.512  65.136  1.00  0.00    -0.122 A  
HETATM    5  N   UNL     1     -10.775   5.732  68.240  1.00  0.00    -0.230 NA 
HETATM    6  C   UNL     1      -8.440   5.895  65.402  1.00  0.00    -0.153 A  
HETATM    7  C   UNL     1      -9.989   5.423  67.208  1.00  0.00    -0.171 A  
HETATM    8  C   UNL     1      -9.273   6.376  66.447  1.00  0.00    -0.176 A  
HETATM    9  C   UNL     1     -10.812   7.009  68.633  1.00  0.00    -0.147 A  
HETATM   10  C   UNL     1      -9.871   4.077  66.928  1.00  0.00    -0.157 A  
HETATM   11  C   UNL     1      -9.422   7.742  66.830  1.00  0.00    -0.187 A  
HETATM   12  C   UNL     1     -10.122   8.018  67.999  1.00  0.00    -0.238 A  
BRANCH   4  13
HETATM   13  C   UNL     1      -7.465   4.033  64.009  1.00  0.00    -0.070 C  
HETATM   14  H2  UNL     1      -5.737   4.040  65.184  1.00  0.00     0.000 HD 
HETATM   15  H1  UNL     1      -5.548   3.526  63.492  1.00  0.00     0.000 HD 
HETATM   16  O   UNL     1      -7.902   3.812  62.887  1.00  0.00    -0.067 OA 
HETATM   17  N   UNL     1      -6.131   3.854  64.262  1.00  0.00    -0.018 N  
ENDBRANCH   4  13
BRANCH  11  18
HETATM   18  O   UNL     1      -8.742   8.688  66.082  1.00  0.00    -0.138 OA 
BRANCH  18  19
HETATM   19  C   UNL     1      -9.240   9.947  65.791  1.00  0.00    -0.179 A  
HETATM   20  C   UNL     1      -8.948  10.942  66.733  1.00  0.00    -0.158 A  
HETATM   21  C   UNL     1     -10.463  12.521  65.655  1.00  0.00    -0.273 A  
HETATM   22  C   UNL     1      -9.543  12.218  66.661  1.00  0.00    -0.227 A  
HETATM   23  C   UNL     1     -10.737  11.535  64.707  1.00  0.00    -0.306 A  
HETATM   24 CL   UNL     1     -11.876  11.814  63.426  1.00  0.00    -0.516 Cl 
HETATM   25  C   UNL     1     -10.129  10.277  64.772  1.00  0.00    -0.336 A  
BRANCH  21  26
HETATM   26  N   UNL     1     -11.169  13.742  65.563  1.00  0.00    -0.297 N  
HETATM   27  H   UNL     1     -10.731  14.480  65.012  1.00  0.00     0.000 HD 
BRANCH  26  28
HETATM   28  C   UNL     1     -12.377  14.041  66.131  1.00  0.00    -0.458 C  
HETATM   29  O   UNL     1     -13.470  13.860  65.606  1.00  0.00    -0.590 OA 
BRANCH  28  30
HETATM   30  N   UNL     1     -12.254  14.587  67.391  1.00  0.00    -0.597 N  
HETATM   31  H   UNL     1     -12.988  14.435  68.084  1.00  0.00     0.000 HD 
BRANCH  30  32
HETATM   32  C   UNL     1     -11.107  15.363  67.735  1.00  0.00    -0.320 C  
HETATM   33  C   UNL     1     -11.070  16.290  68.914  1.00  0.00    -0.345 C  
HETATM   34  C   UNL     1     -10.318  14.994  68.963  1.00  0.00    -0.243 C  
ENDBRANCH  30  32
ENDBRANCH  28  30
ENDBRANCH  26  28
ENDBRANCH  21  26
ENDBRANCH  18  19
ENDBRANCH  11  18
ENDBRANCH   2   3
TORSDOF 8
ENDMDL
MODEL      135
REMARK 921   NORMALIZED FREE ENERGY PREDICTED BY IDOCK:   -4.54 KCAL/MOL
REMARK 922        TOTAL FREE ENERGY PREDICTED BY IDOCK:   -8.20 KCAL/MOL
REMARK 923 INTER-LIGAND FREE ENERGY PREDICTED BY IDOCK:   -7.11 KCAL/MOL
REMARK 924 INTRA-LIGAND FREE ENERGY PREDICTED BY IDOCK:   -1.09 KCAL/MOL
REMARK 927      BINDING AFFINITY PREDICTED BY RF-SCORE:    0.00 PKD
ROOT
HETATM    1  C   UNL     1     -10.900  19.027  67.722  1.00  0.00    -0.288 C  
HETATM    2  O   UNL     1      -9.942  18.255  68.444  1.00  0.00    -0.342 OA 
ENDROOT
BRANCH   2   3
HETATM    3  C   UNL     1     -10.287  16.949  68.675  1.00  0.00    -0.332 A  
HETATM    4  C   UNL     1     -10.037  15.986  67.688  1.00  0.00    -0.245 A  
HETATM    5  N   UNL     1     -12.058  15.066  71.183  1.00  0.00    -0.294 NA 
HETATM    6  C   UNL     1     -10.454  14.653  67.899  1.00  0.00    -0.242 A  
HETATM    7  C   UNL     1     -11.390  15.274  70.049  1.00  0.00    -0.290 A  
HETATM    8  C   UNL     1     -11.143  14.273  69.082  1.00  0.00    -0.291 A  
HETATM    9  C   UNL     1     -12.605  13.861  71.371  1.00  0.00    -0.361 A  
HETATM   10  C   UNL     1     -10.966  16.570  69.834  1.00  0.00    -0.273 A  
HETATM   11  C   UNL     1     -11.651  12.970  69.366  1.00  0.00    -0.299 A  
HETATM   12  C   UNL     1     -12.471  12.821  70.478  1.00  0.00    -0.280 A  
BRANCH   4  13
HETATM   13  C   UNL     1      -9.283  16.354  66.452  1.00  0.00    -0.302 C  
HETATM   14  H2  UNL     1      -7.436  16.238  67.424  1.00  0.00     0.000 HD 
HETATM   15  H1  UNL     1      -7.404  16.678  65.702  1.00  0.00     0.000 HD 
HETATM   16  O   UNL     1      -9.830  16.599  65.385  1.00  0.00    -0.538 OA 
HETATM   17  N   UNL     1      -7.919  16.427  66.545  1.00  0.00    -0.290 N  
ENDBRANCH   4  13
BRANCH  11  18
HETATM   18  O   UNL     1     -11.400  11.975  68.438  1.00  0.00    -0.233 OA 
BRANCH  18  19
HETATM   19  C   UNL     1     -10.628  10.854  68.695  1.00  0.00    -0.195 A  
HETATM   20  C   UNL     1     -11.317   9.759  69.232  1.00  0.00    -0.059 A  
HETATM   21  C   UNL     1      -9.236   8.570  69.688  1.00  0.00    -0.157 A  
HETATM   22  C   UNL     1     -10.633   8.625  69.714  1.00  0.00    -0.224 A  
HETATM   23  C   UNL     1      -8.554   9.654  69.135  1.00  0.00    -0.146 A  
HETATM   24 CL   UNL     1      -6.819   9.682  69.070  1.00  0.00    -0.050 Cl 
HETATM   25  C   UNL     1      -9.240  10.768  68.642  1.00  0.00    -0.184 A  
BRANCH  21  26
HETATM   26  N   UNL     1      -8.472   7.512  70.229  1.00  0.00    -0.137 N  
HETATM   27  H   UNL     1      -7.982   7.707  71.103  1.00  0.00     0.000 HD 
BRANCH  26  28
HETATM   28  C   UNL     1      -8.316   6.256  69.711  1.00  0.00    -0.125 C  
HETATM   29  O   UNL     1      -7.796   5.997  68.631  1.00  0.00    -0.097 OA 
BRANCH  28  30
HETATM   30  N   UNL     1      -8.814   5.271  70.536  1.00  0.00    -0.129 N  
HETATM   31  H   UNL     1      -8.722   4.291  70.269  1.00  0.00     0.000 HD 
BRANCH  30  32
HETATM   32  C   UNL     1      -9.459   5.613  71.763  1.00  0.00    -0.149 C  
HETATM   33  C   UNL     1     -10.948   5.737  71.897  1.00  0.00    -0.318 C  
HETATM   34  C   UNL     1     -10.242   4.556  72.494  1.00  0.00    -0.246 C  
ENDBRANCH  30  32
ENDBRANCH  28  30
ENDBRANCH  26  28
ENDBRANCH  21  26
ENDBRANCH  18  19
ENDBRANCH  11  18
ENDBRANCH   2   3
TORSDOF 8
ENDMDL
MODEL      136
REMARK 921   NORMALIZED FREE ENERGY PREDICTED BY IDOCK:   -4.54 KCAL/MOL
REMARK 922        TOTAL FREE ENERGY PREDICTED BY IDOCK:   -8.20 KCAL/MOL
REMARK 923 INTER-LIGAND FREE ENERGY PREDICTED BY IDOCK:   -6.54 KCAL/MOL
REMARK 924 INTRA-LIGAND FREE ENERGY PREDICTED BY IDOCK:   -1.66 KCAL/MOL
REMARK 927      BINDING AFFINITY PREDICTED BY RF-SCORE:    0.00 PKD
ROOT
HETATM    1  C   UNL     1     -13.306  10.701  72.039  1.00  0.00    -0.304 C  
HETATM    2  O   UNL     1     -12.392   9.816  71.394  1.00  0.00    -0.334 OA 
ENDROOT
BRANCH   2   3
HETATM    3  C   UNL     1     -11.641  10.371  70.390  1.00  0.00    -0.337 A  
HETATM    4  C   UNL     1     -10.371   9.847  70.112  1.00  0.00    -0.336 A  
HETATM    5  N   UNL     1     -11.822  13.215  68.187  1.00  0.00    -0.352 NA 
HETATM    6  C   UNL     1      -9.569  10.460  69.123  1.00  0.00    -0.226 A  
HETATM    7  C   UNL     1     -11.296  12.120  68.738  1.00  0.00    -0.288 A  
HETATM    8  C   UNL     1     -10.015  11.613  68.421  1.00  0.00    -0.201 A  
HETATM    9  C   UNL     1     -11.053  13.922  67.353  1.00  0.00    -0.298 A  
HETATM   10  C   UNL     1     -12.072  11.503  69.699  1.00  0.00    -0.363 A  
HETATM   11  C   UNL     1      -9.265  12.336  67.447  1.00  0.00    -0.182 A  
HETATM   12  C   UNL     1      -9.773  13.551  67.005  1.00  0.00    -0.251 A  
BRANCH   4  13
HETATM   13  C   UNL     1      -9.895   8.617  70.811  1.00  0.00    -0.192 C  
HETATM   14  H2  UNL     1      -8.461   9.671  71.907  1.00  0.00     0.000 HD 
HETATM   15  H1  UNL     1      -8.553   7.919  72.194  1.00  0.00     0.000 HD 
HETATM   16  O   UNL     1     -10.363   7.506  70.599  1.00  0.00    -0.206 OA 
HETATM   17  N   UNL     1      -8.878   8.760  71.717  1.00  0.00    -0.216 N  
ENDBRANCH   4  13
BRANCH  11  18
HETATM   18  O   UNL     1      -8.017  11.839  67.111  1.00  0.00    -0.152 OA 
BRANCH  18  19
HETATM   19  C   UNL     1      -7.815  10.758  66.271  1.00  0.00    -0.156 A  
HETATM   20  C   UNL     1      -8.871  10.470  65.396  1.00  0.00    -0.203 A  
HETATM   21  C   UNL     1      -7.843   8.364  64.717  1.00  0.00    -0.128 A  
HETATM   22  C   UNL     1      -8.882   9.294  64.620  1.00  0.00    -0.218 A  
HETATM   23  C   UNL     1      -6.783   8.663  65.575  1.00  0.00    -0.063 A  
HETATM   24 CL   UNL     1      -5.454   7.563  65.773  1.00  0.00    -0.028 Cl 
HETATM   25  C   UNL     1      -6.769   9.841  66.329  1.00  0.00    -0.087 A  
BRANCH  21  26
HETATM   26  N   UNL     1      -7.819   7.123  64.043  1.00  0.00    -0.152 N  
HETATM   27  H   UNL     1      -7.592   7.150  63.049  1.00  0.00     0.000 HD 
BRANCH  26  28
HETATM   28  C   UNL     1      -8.068   5.888  64.578  1.00  0.00    -0.132 C  
HETATM   29  O   UNL     1      -7.270   4.958  64.607  1.00  0.00    -0.060 OA 
BRANCH  28  30
HETATM   30  N   UNL     1      -9.340   5.777  65.098  1.00  0.00    -0.344 N  
HETATM   31  H   UNL     1     -10.144   5.745  64.471  1.00  0.00     0.000 HD 
BRANCH  30  32
HETATM   32  C   UNL     1      -9.540   5.705  66.509  1.00  0.00    -0.155 C  
HETATM   33  C   UNL     1      -9.304   6.867  67.429  1.00  0.00    -0.144 C  
HETATM   34  C   UNL     1     -10.706   6.436  67.119  1.00  0.00    -0.433 C  
ENDBRANCH  30  32
ENDBRANCH  28  30
ENDBRANCH  26  28
ENDBRANCH  21  26
ENDBRANCH  18  19
ENDBRANCH  11  18
ENDBRANCH   2   3
TORSDOF 8
ENDMDL
MODEL      137
REMARK 921   NORMALIZED FREE ENERGY PREDICTED BY IDOCK:   -4.54 KCAL/MOL
REMARK 922        TOTAL FREE ENERGY PREDICTED BY IDOCK:   -8.20 KCAL/MOL
REMARK 923 INTER-LIGAND FREE ENERGY PREDICTED BY IDOCK:   -7.03 KCAL/MOL
REMARK 924 INTRA-LIGAND FREE ENERGY PREDICTED BY IDOCK:   -1.17 KCAL/MOL
REMARK 927      BINDING AFFINITY PREDICTED BY RF-SCORE:    0.00 PKD
ROOT
HETATM    1  C   UNL     1      -7.688   7.089  63.272  1.00  0.00    -0.118 C  
HETATM    2  O   UNL     1      -7.164   6.729  64.549  1.00  0.00    -0.063 OA 
ENDROOT
BRANCH   2   3
HETATM    3  C   UNL     1      -7.902   7.140  65.628  1.00  0.00    -0.112 A  
HETATM    4  C   UNL     1      -7.588   8.356  66.252  1.00  0.00    -0.086 A  
HETATM    5  N   UNL     1     -10.499   5.814  67.742  1.00  0.00    -0.216 NA 
HETATM    6  C   UNL     1      -8.304   8.748  67.405  1.00  0.00    -0.109 A  
HETATM    7  C   UNL     1      -9.600   6.700  67.309  1.00  0.00    -0.132 A  
HETATM    8  C   UNL     1      -9.321   7.924  67.959  1.00  0.00    -0.152 A  
HETATM    9  C   UNL     1     -11.103   6.062  68.908  1.00  0.00    -0.279 A  
HETATM   10  C   UNL     1      -8.900   6.335  66.178  1.00  0.00    -0.160 A  
HETATM   11  C   UNL     1     -10.063   8.203  69.145  1.00  0.00    -0.202 A  
HETATM   12  C   UNL     1     -10.878   7.198  69.653  1.00  0.00    -0.254 A  
BRANCH   4  13
HETATM   13  C   UNL     1      -6.548   9.255  65.669  1.00  0.00    -0.069 C  
HETATM   14  H2  UNL     1      -7.951  10.303  64.528  1.00  0.00     0.000 HD 
HETATM   15  H1  UNL     1      -6.257  10.823  64.382  1.00  0.00     0.000 HD 
HETATM   16  O   UNL     1      -5.358   9.163  65.940  1.00  0.00    -0.039 OA 
HETATM   17  N   UNL     1      -6.967  10.209  64.780  1.00  0.00    -0.136 N  
ENDBRANCH   4  13
BRANCH  11  18
HETATM   18  O   UNL     1      -9.815   9.407  69.780  1.00  0.00    -0.178 OA 
BRANCH  18  19
HETATM   19  C   UNL     1     -10.711  10.462  69.815  1.00  0.00    -0.278 A  
HETATM   20  C   UNL     1     -10.543  11.426  68.812  1.00  0.00    -0.235 A  
HETATM   21  C   UNL     1     -12.143  12.930  69.876  1.00  0.00    -0.265 A  
HETATM   22  C   UNL     1     -11.258  12.641  68.834  1.00  0.00    -0.329 A  
HETATM   23  C   UNL     1     -12.322  11.960  70.863  1.00  0.00    -0.300 A  
HETATM   24 CL   UNL     1     -13.391  12.233  72.204  1.00  0.00    -0.587 Cl 
HETATM   25  C   UNL     1     -11.624  10.748  70.826  1.00  0.00    -0.322 A  
BRANCH  21  26
HETATM   26  N   UNL     1     -12.829  14.156  70.021  1.00  0.00    -0.395 N  
HETATM   27  H   UNL     1     -13.837  14.133  69.868  1.00  0.00     0.000 HD 
BRANCH  26  28
HETATM   28  C   UNL     1     -12.290  15.371  70.344  1.00  0.00    -0.402 C  
HETATM   29  O   UNL     1     -11.889  15.692  71.458  1.00  0.00    -0.340 OA 
BRANCH  28  30
HETATM   30  N   UNL     1     -12.234  16.235  69.271  1.00  0.00    -0.293 N  
HETATM   31  H   UNL     1     -13.033  16.834  69.060  1.00  0.00     0.000 HD 
BRANCH  30  32
HETATM   32  C   UNL     1     -11.067  16.297  68.452  1.00  0.00    -0.362 C  
HETATM   33  C   UNL     1     -10.575  17.568  67.825  1.00  0.00    -0.375 C  
HETATM   34  C   UNL     1      -9.836  16.978  68.988  1.00  0.00    -0.240 C  
ENDBRANCH  30  32
ENDBRANCH  28  30
ENDBRANCH  26  28
ENDBRANCH  21  26
ENDBRANCH  18  19
ENDBRANCH  11  18
ENDBRANCH   2   3
TORSDOF 8
ENDMDL
MODEL      138
REMARK 921   NORMALIZED FREE ENERGY PREDICTED BY IDOCK:   -4.52 KCAL/MOL
REMARK 922        TOTAL FREE ENERGY PREDICTED BY IDOCK:   -8.17 KCAL/MOL
REMARK 923 INTER-LIGAND FREE ENERGY PREDICTED BY IDOCK:   -7.02 KCAL/MOL
REMARK 924 INTRA-LIGAND FREE ENERGY PREDICTED BY IDOCK:   -1.15 KCAL/MOL
REMARK 927      BINDING AFFINITY PREDICTED BY RF-SCORE:    0.00 PKD
ROOT
HETATM    1  C   UNL     1      -5.126  15.186  70.282  1.00  0.00    -0.112 C  
HETATM    2  O   UNL     1      -5.814  15.367  69.046  1.00  0.00    -0.097 OA 
ENDROOT
BRANCH   2   3
HETATM    3  C   UNL     1      -7.109  14.919  69.019  1.00  0.00    -0.130 A  
HETATM    4  C   UNL     1      -7.393  13.667  68.456  1.00  0.00    -0.114 A  
HETATM    5  N   UNL     1     -10.387  16.198  69.791  1.00  0.00    -0.265 NA 
HETATM    6  C   UNL     1      -8.735  13.234  68.368  1.00  0.00    -0.126 A  
HETATM    7  C   UNL     1      -9.482  15.315  69.368  1.00  0.00    -0.231 A  
HETATM    8  C   UNL     1      -9.806  14.053  68.818  1.00  0.00    -0.141 A  
HETATM    9  C   UNL     1     -11.677  15.907  69.598  1.00  0.00    -0.317 A  
HETATM   10  C   UNL     1      -8.165  15.719  69.458  1.00  0.00    -0.136 A  
HETATM   11  C   UNL     1     -11.193  13.733  68.725  1.00  0.00    -0.271 A  
HETATM   12  C   UNL     1     -12.112  14.730  69.031  1.00  0.00    -0.256 A  
BRANCH   4  13
HETATM   13  C   UNL     1      -6.282  12.775  68.009  1.00  0.00    -0.103 C  
HETATM   14  H2  UNL     1      -6.416  11.583  69.721  1.00  0.00     0.000 HD 
HETATM   15  H1  UNL     1      -5.177  11.129  68.531  1.00  0.00     0.000 HD 
HETATM   16  O   UNL     1      -5.675  12.939  66.959  1.00  0.00    -0.323 OA 
HETATM   17  N   UNL     1      -5.935  11.739  68.836  1.00  0.00    -0.049 N  
ENDBRANCH   4  13
BRANCH  11  18
HETATM   18  O   UNL     1     -11.525  12.493  68.207  1.00  0.00    -0.262 OA 
BRANCH  18  19
HETATM   19  C   UNL     1     -11.698  11.355  68.976  1.00  0.00    -0.343 A  
HETATM   20  C   UNL     1     -12.223  11.568  70.258  1.00  0.00    -0.415 A  
HETATM   21  C   UNL     1     -11.787   9.258  70.910  1.00  0.00    -0.282 A  
HETATM   22  C   UNL     1     -12.278  10.531  71.211  1.00  0.00    -0.472 A  
HETATM   23  C   UNL     1     -11.282   9.044  69.627  1.00  0.00     0.022 A  
HETATM   24 CL   UNL     1     -10.638   7.499  69.165  1.00  0.00    -0.221 Cl 
HETATM   25  C   UNL     1     -11.247  10.072  68.679  1.00  0.00    -0.175 A  
BRANCH  21  26
HETATM   26  N   UNL     1     -11.723   8.191  71.834  1.00  0.00    -0.290 N  
HETATM   27  H   UNL     1     -12.479   7.508  71.791  1.00  0.00     0.000 HD 
BRANCH  26  28
HETATM   28  C   UNL     1     -10.759   7.974  72.779  1.00  0.00    -0.362 C  
HETATM   29  O   UNL     1      -9.654   8.507  72.797  1.00  0.00    -0.259 OA 
BRANCH  28  30
HETATM   30  N   UNL     1     -11.149   7.070  73.744  1.00  0.00    -0.391 N  
HETATM   31  H   UNL     1     -11.898   7.313  74.394  1.00  0.00     0.000 HD 
BRANCH  30  32
HETATM   32  C   UNL     1     -10.513   5.796  73.841  1.00  0.00    -0.275 C  
HETATM   33  C   UNL     1     -11.167   4.521  73.396  1.00  0.00    -0.404 C  
HETATM   34  C   UNL     1     -10.056   5.111  72.580  1.00  0.00    -0.220 C  
ENDBRANCH  30  32
ENDBRANCH  28  30
ENDBRANCH  26  28
ENDBRANCH  21  26
ENDBRANCH  18  19
ENDBRANCH  11  18
ENDBRANCH   2   3
TORSDOF 8
ENDMDL
MODEL      139
REMARK 921   NORMALIZED FREE ENERGY PREDICTED BY IDOCK:   -4.50 KCAL/MOL
REMARK 922        TOTAL FREE ENERGY PREDICTED BY IDOCK:   -8.14 KCAL/MOL
REMARK 923 INTER-LIGAND FREE ENERGY PREDICTED BY IDOCK:   -6.93 KCAL/MOL
REMARK 924 INTRA-LIGAND FREE ENERGY PREDICTED BY IDOCK:   -1.21 KCAL/MOL
REMARK 927      BINDING AFFINITY PREDICTED BY RF-SCORE:    0.00 PKD
ROOT
HETATM    1  C   UNL     1     -13.150  15.863  72.730  1.00  0.00    -0.491 C  
HETATM    2  O   UNL     1     -13.446  15.360  71.428  1.00  0.00    -0.469 OA 
ENDROOT
BRANCH   2   3
HETATM    3  C   UNL     1     -12.974  14.102  71.158  1.00  0.00    -0.349 A  
HETATM    4  C   UNL     1     -12.106  13.911  70.074  1.00  0.00    -0.411 A  
HETATM    5  N   UNL     1     -13.529  10.740  72.327  1.00  0.00    -0.185 NA 
HETATM    6  C   UNL     1     -11.672  12.605  69.755  1.00  0.00    -0.354 A  
HETATM    7  C   UNL     1     -13.003  11.707  71.574  1.00  0.00    -0.358 A  
HETATM    8  C   UNL     1     -12.118  11.477  70.497  1.00  0.00    -0.472 A  
HETATM    9  C   UNL     1     -13.272   9.475  71.981  1.00  0.00    -0.452 A  
HETATM   10  C   UNL     1     -13.409  12.990  71.881  1.00  0.00    -0.539 A  
HETATM   11  C   UNL     1     -11.783  10.118  70.224  1.00  0.00    -0.282 A  
HETATM   12  C   UNL     1     -12.462   9.127  70.924  1.00  0.00    -0.153 A  
BRANCH   4  13
HETATM   13  C   UNL     1     -11.597  15.084  69.303  1.00  0.00    -0.315 C  
HETATM   14  H2  UNL     1     -12.460  14.415  67.521  1.00  0.00     0.000 HD 
HETATM   15  H1  UNL     1     -11.557  15.944  67.443  1.00  0.00     0.000 HD 
HETATM   16  O   UNL     1     -10.918  15.969  69.806  1.00  0.00    -0.282 OA 
HETATM   17  N   UNL     1     -11.904  15.143  67.970  1.00  0.00    -0.283 N  
ENDBRANCH   4  13
BRANCH  11  18
HETATM   18  O   UNL     1     -10.901   9.878  69.184  1.00  0.00    -0.218 OA 
BRANCH  18  19
HETATM   19  C   UNL     1      -9.644   9.322  69.349  1.00  0.00    -0.168 A  
HETATM   20  C   UNL     1      -9.578   7.929  69.205  1.00  0.00    -0.157 A  
HETATM   21  C   UNL     1      -7.280   7.871  70.022  1.00  0.00    -0.062 A  
HETATM   22  C   UNL     1      -8.408   7.212  69.527  1.00  0.00    -0.133 A  
HETATM   23  C   UNL     1      -7.342   9.260  70.146  1.00  0.00    -0.096 A  
HETATM   24 CL   UNL     1      -5.995  10.165  70.763  1.00  0.00    -0.095 Cl 
HETATM   25  C   UNL     1      -8.499   9.968  69.807  1.00  0.00    -0.189 A  
BRANCH  21  26
HETATM   26  N   UNL     1      -6.102   7.220  70.451  1.00  0.00    -0.027 N  
HETATM   27  H   UNL     1      -5.256   7.789  70.486  1.00  0.00     0.000 HD 
BRANCH  26  28
HETATM   28  C   UNL     1      -5.972   5.911  70.825  1.00  0.00    -0.029 C  
HETATM   29  O   UNL     1      -5.920   4.958  70.054  1.00  0.00    -0.019 OA 
BRANCH  28  30
HETATM   30  N   UNL     1      -5.902   5.749  72.192  1.00  0.00    -0.030 N  
HETATM   31  H   UNL     1      -5.100   6.113  72.706  1.00  0.00     0.000 HD 
BRANCH  30  32
HETATM   32  C   UNL     1      -6.946   5.075  72.894  1.00  0.00    -0.081 C  
HETATM   33  C   UNL     1      -8.005   5.797  73.674  1.00  0.00    -0.108 C  
HETATM   34  C   UNL     1      -8.353   5.157  72.364  1.00  0.00    -0.121 C  
ENDBRANCH  30  32
ENDBRANCH  28  30
ENDBRANCH  26  28
ENDBRANCH  21  26
ENDBRANCH  18  19
ENDBRANCH  11  18
ENDBRANCH   2   3
TORSDOF 8
ENDMDL
MODEL      140
REMARK 921   NORMALIZED FREE ENERGY PREDICTED BY IDOCK:   -4.48 KCAL/MOL
REMARK 922        TOTAL FREE ENERGY PREDICTED BY IDOCK:   -8.11 KCAL/MOL
REMARK 923 INTER-LIGAND FREE ENERGY PREDICTED BY IDOCK:   -7.01 KCAL/MOL
REMARK 924 INTRA-LIGAND FREE ENERGY PREDICTED BY IDOCK:   -1.10 KCAL/MOL
REMARK 927      BINDING AFFINITY PREDICTED BY RF-SCORE:    0.00 PKD
ROOT
HETATM    1  C   UNL     1     -13.265  12.153  72.056  1.00  0.00    -0.391 C  
HETATM    2  O   UNL     1     -12.914  10.804  71.752  1.00  0.00    -0.446 OA 
ENDROOT
BRANCH   2   3
HETATM    3  C   UNL     1     -12.167  10.629  70.616  1.00  0.00    -0.365 A  
HETATM    4  C   UNL     1     -11.065   9.763  70.644  1.00  0.00    -0.398 A  
HETATM    5  N   UNL     1     -11.974  12.045  67.310  1.00  0.00    -0.590 NA 
HETATM    6  C   UNL     1     -10.256   9.634  69.493  1.00  0.00    -0.233 A  
HETATM    7  C   UNL     1     -11.633  11.256  68.329  1.00  0.00    -0.300 A  
HETATM    8  C   UNL     1     -10.521  10.383  68.315  1.00  0.00    -0.221 A  
HETATM    9  C   UNL     1     -11.161  12.077  66.249  1.00  0.00    -0.342 A  
HETATM   10  C   UNL     1     -12.422  11.363  69.457  1.00  0.00    -0.100 A  
HETATM   11  C   UNL     1      -9.737  10.365  67.124  1.00  0.00    -0.172 A  
HETATM   12  C   UNL     1     -10.026  11.305  66.142  1.00  0.00    -0.268 A  
BRANCH   4  13
HETATM   13  C   UNL     1     -10.787   8.939  71.858  1.00  0.00    -0.363 C  
HETATM   14  H2  UNL     1      -8.717   9.074  71.599  1.00  0.00     0.000 HD 
HETATM   15  H1  UNL     1      -9.285   8.140  73.000  1.00  0.00     0.000 HD 
HETATM   16  O   UNL     1     -11.670   8.467  72.561  1.00  0.00    -0.388 OA 
HETATM   17  N   UNL     1      -9.475   8.702  72.172  1.00  0.00    -0.305 N  
ENDBRANCH   4  13
BRANCH  11  18
HETATM   18  O   UNL     1      -8.657   9.500  67.088  1.00  0.00    -0.130 OA 
BRANCH  18  19
HETATM   19  C   UNL     1      -8.754   8.133  67.287  1.00  0.00    -0.124 A  
HETATM   20  C   UNL     1      -7.705   7.556  68.015  1.00  0.00    -0.116 A  
HETATM   21  C   UNL     1      -8.484   5.301  67.505  1.00  0.00    -0.105 A  
HETATM   22  C   UNL     1      -7.576   6.157  68.133  1.00  0.00    -0.098 A  
HETATM   23  C   UNL     1      -9.538   5.879  66.797  1.00  0.00    -0.148 A  
HETATM   24 CL   UNL     1     -10.709   4.897  65.973  1.00  0.00    -0.334 Cl 
HETATM   25  C   UNL     1      -9.672   7.268  66.699  1.00  0.00    -0.249 A  
BRANCH  21  26
HETATM   26  N   UNL     1      -8.376   3.892  67.500  1.00  0.00    -0.094 N  
HETATM   27  H   UNL     1      -8.122   3.459  66.612  1.00  0.00     0.000 HD 
BRANCH  26  28
HETATM   28  C   UNL     1      -8.575   3.045  68.555  1.00  0.00    -0.086 C  
HETATM   29  O   UNL     1      -7.825   2.130  68.878  1.00  0.00    -0.046 OA 
BRANCH  28  30
HETATM   30  N   UNL     1      -9.735   3.317  69.249  1.00  0.00    -0.021 N  
HETATM   31  H   UNL     1     -10.637   3.242  68.779  1.00  0.00     0.000 HD 
BRANCH  30  32
HETATM   32  C   UNL     1      -9.682   3.704  70.622  1.00  0.00    -0.145 C  
HETATM   33  C   UNL     1      -8.691   4.698  71.154  1.00  0.00    -0.140 C  
HETATM   34  C   UNL     1     -10.131   5.088  71.008  1.00  0.00    -0.297 C  
ENDBRANCH  30  32
ENDBRANCH  28  30
ENDBRANCH  26  28
ENDBRANCH  21  26
ENDBRANCH  18  19
ENDBRANCH  11  18
ENDBRANCH   2   3
TORSDOF 8
ENDMDL
MODEL      141
REMARK 921   NORMALIZED FREE ENERGY PREDICTED BY IDOCK:   -4.45 KCAL/MOL
REMARK 922        TOTAL FREE ENERGY PREDICTED BY IDOCK:   -8.07 KCAL/MOL
REMARK 923 INTER-LIGAND FREE ENERGY PREDICTED BY IDOCK:   -6.91 KCAL/MOL
REMARK 924 INTRA-LIGAND FREE ENERGY PREDICTED BY IDOCK:   -1.16 KCAL/MOL
REMARK 927      BINDING AFFINITY PREDICTED BY RF-SCORE:    0.00 PKD
ROOT
HETATM    1  C   UNL     1     -12.030  14.045  67.268  1.00  0.00    -0.413 C  
HETATM    2  O   UNL     1     -10.928  13.146  67.152  1.00  0.00    -0.261 OA 
ENDROOT
BRANCH   2   3
HETATM    3  C   UNL     1     -10.809  12.224  68.159  1.00  0.00    -0.227 A  
HETATM    4  C   UNL     1      -9.691  11.378  68.188  1.00  0.00    -0.194 A  
HETATM    5  N   UNL     1     -12.804  10.989  70.892  1.00  0.00    -0.327 NA 
HETATM    6  C   UNL     1      -9.601  10.383  69.187  1.00  0.00    -0.226 A  
HETATM    7  C   UNL     1     -11.750  11.069  70.079  1.00  0.00    -0.355 A  
HETATM    8  C   UNL     1     -10.632  10.206  70.149  1.00  0.00    -0.337 A  
HETATM    9  C   UNL     1     -12.844   9.975  71.761  1.00  0.00    -0.446 A  
HETATM   10  C   UNL     1     -11.819  12.044  69.105  1.00  0.00    -0.369 A  
HETATM   11  C   UNL     1     -10.662   9.201  71.161  1.00  0.00    -0.310 A  
HETATM   12  C   UNL     1     -11.835   9.046  71.889  1.00  0.00    -0.447 A  
BRANCH   4  13
HETATM   13  C   UNL     1      -8.579  11.568  67.210  1.00  0.00    -0.150 C  
HETATM   14  H2  UNL     1      -9.311  10.083  65.935  1.00  0.00     0.000 HD 
HETATM   15  H1  UNL     1      -7.820  10.906  65.426  1.00  0.00     0.000 HD 
HETATM   16  O   UNL     1      -7.678  12.380  67.374  1.00  0.00    -0.152 OA 
HETATM   17  N   UNL     1      -8.579  10.776  66.093  1.00  0.00    -0.163 N  
ENDBRANCH   4  13
BRANCH  11  18
HETATM   18  O   UNL     1      -9.565   8.362  71.254  1.00  0.00    -0.160 OA 
BRANCH  18  19
HETATM   19  C   UNL     1      -9.310   7.322  70.376  1.00  0.00    -0.158 A  
HETATM   20  C   UNL     1     -10.265   6.296  70.365  1.00  0.00    -0.248 A  
HETATM   21  C   UNL     1      -8.848   4.881  68.972  1.00  0.00    -0.092 A  
HETATM   22  C   UNL     1     -10.043   5.094  69.663  1.00  0.00    -0.332 A  
HETATM   23  C   UNL     1      -7.907   5.911  68.969  1.00  0.00    -0.095 A  
HETATM   24 CL   UNL     1      -6.386   5.734  68.150  1.00  0.00    -0.039 Cl 
HETATM   25  C   UNL     1      -8.140   7.109  69.652  1.00  0.00    -0.129 A  
BRANCH  21  26
HETATM   26  N   UNL     1      -8.510   3.674  68.319  1.00  0.00    -0.090 N  
HETATM   27  H   UNL     1      -7.516   3.453  68.259  1.00  0.00     0.000 HD 
BRANCH  26  28
HETATM   28  C   UNL     1      -9.370   2.769  67.760  1.00  0.00    -0.190 C  
HETATM   29  O   UNL     1      -9.689   1.696  68.260  1.00  0.00    -0.181 OA 
BRANCH  28  30
HETATM   30  N   UNL     1      -9.864   3.183  66.541  1.00  0.00    -0.366 N  
HETATM   31  H   UNL     1     -10.871   3.281  66.409  1.00  0.00     0.000 HD 
BRANCH  30  32
HETATM   32  C   UNL     1      -8.976   3.476  65.463  1.00  0.00    -0.141 C  
HETATM   33  C   UNL     1      -9.452   3.877  64.098  1.00  0.00    -0.159 C  
HETATM   34  C   UNL     1      -8.834   4.902  65.001  1.00  0.00    -0.154 C  
ENDBRANCH  30  32
ENDBRANCH  28  30
ENDBRANCH  26  28
ENDBRANCH  21  26
ENDBRANCH  18  19
ENDBRANCH  11  18
ENDBRANCH   2   3
TORSDOF 8
ENDMDL
MODEL      142
REMARK 921   NORMALIZED FREE ENERGY PREDICTED BY IDOCK:   -4.44 KCAL/MOL
REMARK 922        TOTAL FREE ENERGY PREDICTED BY IDOCK:   -8.05 KCAL/MOL
REMARK 923 INTER-LIGAND FREE ENERGY PREDICTED BY IDOCK:   -7.17 KCAL/MOL
REMARK 924 INTRA-LIGAND FREE ENERGY PREDICTED BY IDOCK:   -0.89 KCAL/MOL
REMARK 927      BINDING AFFINITY PREDICTED BY RF-SCORE:    0.00 PKD
ROOT
HETATM    1  C   UNL     1     -10.304  17.993  67.765  1.00  0.00    -0.393 C  
HETATM    2  O   UNL     1     -10.908  16.756  67.389  1.00  0.00    -0.283 OA 
ENDROOT
BRANCH   2   3
HETATM    3  C   UNL     1     -10.117  15.646  67.526  1.00  0.00    -0.253 A  
HETATM    4  C   UNL     1     -10.492  14.452  66.893  1.00  0.00    -0.269 A  
HETATM    5  N   UNL     1      -7.211  14.661  69.414  1.00  0.00    -0.155 NA 
HETATM    6  C   UNL     1      -9.712  13.290  67.089  1.00  0.00    -0.236 A  
HETATM    7  C   UNL     1      -8.232  14.519  68.566  1.00  0.00    -0.154 A  
HETATM    8  C   UNL     1      -8.570  13.300  67.935  1.00  0.00    -0.188 A  
HETATM    9  C   UNL     1      -6.528  13.564  69.753  1.00  0.00    -0.049 A  
HETATM   10  C   UNL     1      -8.996  15.649  68.357  1.00  0.00    -0.185 A  
HETATM   11  C   UNL     1      -7.751  12.173  68.240  1.00  0.00    -0.135 A  
HETATM   12  C   UNL     1      -6.795  12.315  69.238  1.00  0.00    -0.039 A  
BRANCH   4  13
HETATM   13  C   UNL     1     -11.666  14.425  65.973  1.00  0.00    -0.375 C  
HETATM   14  H2  UNL     1     -10.649  15.477  64.481  1.00  0.00     0.000 HD 
HETATM   15  H1  UNL     1     -12.326  15.009  64.122  1.00  0.00     0.000 HD 
HETATM   16  O   UNL     1     -12.735  13.906  66.269  1.00  0.00    -0.399 OA 
HETATM   17  N   UNL     1     -11.524  15.028  64.751  1.00  0.00    -0.412 N  
ENDBRANCH   4  13
BRANCH  11  18
HETATM   18  O   UNL     1      -8.058  10.977  67.613  1.00  0.00    -0.113 OA 
BRANCH  18  19
HETATM   19  C   UNL     1      -9.066  10.123  68.026  1.00  0.00    -0.131 A  
HETATM   20  C   UNL     1      -9.444  10.245  69.370  1.00  0.00    -0.225 A  
HETATM   21  C   UNL     1     -10.823   8.236  69.249  1.00  0.00    -0.048 A  
HETATM   22  C   UNL     1     -10.320   9.320  69.973  1.00  0.00    -0.245 A  
HETATM   23  C   UNL     1     -10.460   8.129  67.906  1.00  0.00    -0.197 A  
HETATM   24 CL   UNL     1     -11.025   6.809  66.928  1.00  0.00    -0.440 Cl 
HETATM   25  C   UNL     1      -9.605   9.060  67.308  1.00  0.00    -0.206 A  
BRANCH  21  26
HETATM   26  N   UNL     1     -11.633   7.218  69.800  1.00  0.00    -0.510 N  
HETATM   27  H   UNL     1     -11.980   6.513  69.150  1.00  0.00     0.000 HD 
BRANCH  26  28
HETATM   28  C   UNL     1     -12.002   7.074  71.109  1.00  0.00    -0.356 C  
HETATM   29  O   UNL     1     -12.968   7.617  71.635  1.00  0.00    -0.334 OA 
BRANCH  28  30
HETATM   30  N   UNL     1     -11.163   6.237  71.813  1.00  0.00    -0.271 N  
HETATM   31  H   UNL     1     -11.036   6.371  72.816  1.00  0.00     0.000 HD 
BRANCH  30  32
HETATM   32  C   UNL     1     -10.470   5.182  71.146  1.00  0.00    -0.170 C  
HETATM   33  C   UNL     1      -8.974   5.076  71.120  1.00  0.00    -0.165 C  
HETATM   34  C   UNL     1      -9.771   4.134  71.970  1.00  0.00    -0.231 C  
ENDBRANCH  30  32
ENDBRANCH  28  30
ENDBRANCH  26  28
ENDBRANCH  21  26
ENDBRANCH  18  19
ENDBRANCH  11  18
ENDBRANCH   2   3
TORSDOF 8
ENDMDL
MODEL      143
REMARK 921   NORMALIZED FREE ENERGY PREDICTED BY IDOCK:   -4.41 KCAL/MOL
REMARK 922        TOTAL FREE ENERGY PREDICTED BY IDOCK:   -8.00 KCAL/MOL
REMARK 923 INTER-LIGAND FREE ENERGY PREDICTED BY IDOCK:   -7.04 KCAL/MOL
REMARK 924 INTRA-LIGAND FREE ENERGY PREDICTED BY IDOCK:   -0.96 KCAL/MOL
REMARK 927      BINDING AFFINITY PREDICTED BY RF-SCORE:    0.00 PKD
ROOT
HETATM    1  C   UNL     1     -10.576  19.678  66.931  1.00  0.00    -0.484 C  
HETATM    2  O   UNL     1     -10.845  18.284  67.074  1.00  0.00    -0.329 OA 
ENDROOT
BRANCH   2   3
HETATM    3  C   UNL     1      -9.744  17.482  67.219  1.00  0.00    -0.276 A  
HETATM    4  C   UNL     1      -9.625  16.328  66.430  1.00  0.00    -0.316 A  
HETATM    5  N   UNL     1      -6.888  17.244  69.401  1.00  0.00    -0.209 NA 
HETATM    6  C   UNL     1      -8.523  15.466  66.626  1.00  0.00    -0.296 A  
HETATM    7  C   UNL     1      -7.707  16.896  68.408  1.00  0.00    -0.219 A  
HETATM    8  C   UNL     1      -7.546  15.730  67.623  1.00  0.00    -0.177 A  
HETATM    9  C   UNL     1      -5.913  16.392  69.731  1.00  0.00    -0.201 A  
HETATM   10  C   UNL     1      -8.782  17.735  68.197  1.00  0.00    -0.266 A  
HETATM   11  C   UNL     1      -6.430  14.898  67.936  1.00  0.00    -0.162 A  
HETATM   12  C   UNL     1      -5.687  15.206  69.069  1.00  0.00    -0.097 A  
BRANCH   4  13
HETATM   13  C   UNL     1     -10.620  16.048  65.353  1.00  0.00    -0.408 C  
HETATM   14  H2  UNL     1     -11.203  14.239  66.223  1.00  0.00     0.000 HD 
HETATM   15  H1  UNL     1     -12.020  14.695  64.711  1.00  0.00     0.000 HD 
HETATM   16  O   UNL     1     -10.802  16.796  64.401  1.00  0.00    -0.812 OA 
HETATM   17  N   UNL     1     -11.340  14.887  65.447  1.00  0.00    -0.349 N  
ENDBRANCH   4  13
BRANCH  11  18
HETATM   18  O   UNL     1      -6.248  13.764  67.163  1.00  0.00    -0.215 OA 
BRANCH  18  19
HETATM   19  C   UNL     1      -6.668  12.499  67.536  1.00  0.00    -0.151 A  
HETATM   20  C   UNL     1      -6.137  11.443  66.782  1.00  0.00    -0.145 A  
HETATM   21  C   UNL     1      -7.654   9.835  67.815  1.00  0.00    -0.090 A  
HETATM   22  C   UNL     1      -6.615  10.125  66.927  1.00  0.00    -0.075 A  
HETATM   23  C   UNL     1      -8.167  10.885  68.578  1.00  0.00    -0.140 A  
HETATM   24 CL   UNL     1      -9.467  10.626  69.700  1.00  0.00    -0.042 Cl 
HETATM   25  C   UNL     1      -7.676  12.188  68.444  1.00  0.00    -0.134 A  
BRANCH  21  26
HETATM   26  N   UNL     1      -8.250   8.562  67.956  1.00  0.00    -0.119 N  
HETATM   27  H   UNL     1      -7.729   7.875  68.502  1.00  0.00     0.000 HD 
BRANCH  26  28
HETATM   28  C   UNL     1      -9.448   8.150  67.441  1.00  0.00    -0.155 C  
HETATM   29  O   UNL     1     -10.230   8.859  66.817  1.00  0.00    -0.261 OA 
BRANCH  28  30
HETATM   30  N   UNL     1      -9.710   6.820  67.693  1.00  0.00    -0.124 N  
HETATM   31  H   UNL     1      -9.689   6.145  66.929  1.00  0.00     0.000 HD 
BRANCH  30  32
HETATM   32  C   UNL     1     -10.010   6.381  69.018  1.00  0.00    -0.149 C  
HETATM   33  C   UNL     1     -10.453   7.313  70.107  1.00  0.00    -0.229 C  
HETATM   34  C   UNL     1     -11.443   6.379  69.478  1.00  0.00    -0.412 C  
ENDBRANCH  30  32
ENDBRANCH  28  30
ENDBRANCH  26  28
ENDBRANCH  21  26
ENDBRANCH  18  19
ENDBRANCH  11  18
ENDBRANCH   2   3
TORSDOF 8
ENDMDL
MODEL      144
REMARK 921   NORMALIZED FREE ENERGY PREDICTED BY IDOCK:   -4.38 KCAL/MOL
REMARK 922        TOTAL FREE ENERGY PREDICTED BY IDOCK:   -7.96 KCAL/MOL
REMARK 923 INTER-LIGAND FREE ENERGY PREDICTED BY IDOCK:   -6.65 KCAL/MOL
REMARK 924 INTRA-LIGAND FREE ENERGY PREDICTED BY IDOCK:   -1.31 KCAL/MOL
REMARK 927      BINDING AFFINITY PREDICTED BY RF-SCORE:    0.00 PKD
ROOT
HETATM    1  C   UNL     1     -10.103   6.647  70.018  1.00  0.00    -0.177 C  
HETATM    2  O   UNL     1      -8.881   6.787  69.295  1.00  0.00    -0.137 OA 
ENDROOT
BRANCH   2   3
HETATM    3  C   UNL     1      -8.455   8.074  69.096  1.00  0.00    -0.136 A  
HETATM    4  C   UNL     1      -8.698   8.695  67.862  1.00  0.00    -0.137 A  
HETATM    5  N   UNL     1      -6.473  10.525  70.838  1.00  0.00    -0.341 NA 
HETATM    6  C   UNL     1      -8.201   9.997  67.633  1.00  0.00    -0.114 A  
HETATM    7  C   UNL     1      -7.203  10.018  69.844  1.00  0.00    -0.145 A  
HETATM    8  C   UNL     1      -7.439  10.681  68.618  1.00  0.00    -0.098 A  
HETATM    9  C   UNL     1      -5.854  11.690  70.623  1.00  0.00    -0.077 A  
HETATM   10  C   UNL     1      -7.705   8.750  70.058  1.00  0.00    -0.082 A  
HETATM   11  C   UNL     1      -6.849  11.971  68.466  1.00  0.00    -0.078 A  
HETATM   12  C   UNL     1      -5.972  12.406  69.453  1.00  0.00    -0.100 A  
BRANCH   4  13
HETATM   13  C   UNL     1      -9.526   8.010  66.825  1.00  0.00    -0.202 C  
HETATM   14  H2  UNL     1     -11.305   8.819  67.567  1.00  0.00     0.000 HD 
HETATM   15  H1  UNL     1     -11.444   7.752  66.152  1.00  0.00     0.000 HD 
HETATM   16  O   UNL     1      -9.051   7.275  65.971  1.00  0.00    -0.153 OA 
HETATM   17  N   UNL     1     -10.879   8.219  66.860  1.00  0.00    -0.109 N  
ENDBRANCH   4  13
BRANCH  11  18
HETATM   18  O   UNL     1      -7.087  12.642  67.278  1.00  0.00    -0.149 OA 
BRANCH  18  19
HETATM   19  C   UNL     1      -7.983  13.689  67.148  1.00  0.00    -0.041 A  
HETATM   20  C   UNL     1      -7.427  14.972  67.241  1.00  0.00    -0.215 A  
HETATM   21  C   UNL     1      -9.633  16.011  67.315  1.00  0.00    -0.225 A  
HETATM   22  C   UNL     1      -8.240  16.121  67.312  1.00  0.00    -0.203 A  
HETATM   23  C   UNL     1     -10.184  14.734  67.203  1.00  0.00    -0.245 A  
HETATM   24 CL   UNL     1     -11.904  14.496  67.210  1.00  0.00    -0.430 Cl 
HETATM   25  C   UNL     1      -9.372  13.599  67.113  1.00  0.00    -0.240 A  
BRANCH  21  26
HETATM   26  N   UNL     1     -10.517  17.102  67.472  1.00  0.00    -0.348 N  
HETATM   27  H   UNL     1     -11.168  17.050  68.256  1.00  0.00     0.000 HD 
BRANCH  26  28
HETATM   28  C   UNL     1     -10.595  18.221  66.689  1.00  0.00    -0.298 C  
HETATM   29  O   UNL     1     -10.602  18.226  65.463  1.00  0.00    -0.632 OA 
BRANCH  28  30
HETATM   30  N   UNL     1     -10.668  19.385  67.424  1.00  0.00    -0.483 N  
HETATM   31  H   UNL     1     -11.547  19.648  67.872  1.00  0.00     0.000 HD 
BRANCH  30  32
HETATM   32  C   UNL     1      -9.523  20.224  67.564  1.00  0.00    -0.406 C  
HETATM   33  C   UNL     1      -8.311  19.828  68.356  1.00  0.00    -0.291 C  
HETATM   34  C   UNL     1      -8.249  19.844  66.858  1.00  0.00    -0.358 C  
ENDBRANCH  30  32
ENDBRANCH  28  30
ENDBRANCH  26  28
ENDBRANCH  21  26
ENDBRANCH  18  19
ENDBRANCH  11  18
ENDBRANCH   2   3
TORSDOF 8
ENDMDL
MODEL      145
REMARK 921   NORMALIZED FREE ENERGY PREDICTED BY IDOCK:   -4.37 KCAL/MOL
REMARK 922        TOTAL FREE ENERGY PREDICTED BY IDOCK:   -7.95 KCAL/MOL
REMARK 923 INTER-LIGAND FREE ENERGY PREDICTED BY IDOCK:   -6.49 KCAL/MOL
REMARK 924 INTRA-LIGAND FREE ENERGY PREDICTED BY IDOCK:   -1.46 KCAL/MOL
REMARK 927      BINDING AFFINITY PREDICTED BY RF-SCORE:    0.00 PKD
ROOT
HETATM    1  C   UNL     1     -12.407  11.017  69.133  1.00  0.00    -0.009 C  
HETATM    2  O   UNL     1     -11.703  11.103  67.895  1.00  0.00    -0.542 OA 
ENDROOT
BRANCH   2   3
HETATM    3  C   UNL     1     -10.467  11.691  67.957  1.00  0.00    -0.194 A  
HETATM    4  C   UNL     1     -10.163  12.746  67.085  1.00  0.00    -0.235 A  
HETATM    5  N   UNL     1      -7.339  11.146  69.658  1.00  0.00    -0.033 NA 
HETATM    6  C   UNL     1      -8.867  13.308  67.103  1.00  0.00    -0.223 A  
HETATM    7  C   UNL     1      -8.197  11.736  68.824  1.00  0.00    -0.027 A  
HETATM    8  C   UNL     1      -7.857  12.809  67.970  1.00  0.00    -0.150 A  
HETATM    9  C   UNL     1      -6.061  11.536  69.613  1.00  0.00    -0.114 A  
HETATM   10  C   UNL     1      -9.471  11.205  68.804  1.00  0.00    -0.173 A  
HETATM   11  C   UNL     1      -6.508  13.269  68.026  1.00  0.00    -0.131 A  
HETATM   12  C   UNL     1      -5.603  12.539  68.789  1.00  0.00    -0.061 A  
BRANCH   4  13
HETATM   13  C   UNL     1     -11.217  13.311  66.191  1.00  0.00    -0.296 C  
HETATM   14  H2  UNL     1     -12.042  14.465  67.724  1.00  0.00     0.000 HD 
HETATM   15  H1  UNL     1     -12.821  14.585  66.131  1.00  0.00     0.000 HD 
HETATM   16  O   UNL     1     -11.325  13.005  65.010  1.00  0.00    -0.288 OA 
HETATM   17  N   UNL     1     -12.101  14.200  66.742  1.00  0.00    -0.446 N  
ENDBRANCH   4  13
BRANCH  11  18
HETATM   18  O   UNL     1      -6.165  14.333  67.210  1.00  0.00    -0.301 OA 
BRANCH  18  19
HETATM   19  C   UNL     1      -6.299  15.662  67.573  1.00  0.00    -0.151 A  
HETATM   20  C   UNL     1      -5.342  16.137  68.480  1.00  0.00    -0.103 A  
HETATM   21  C   UNL     1      -6.560  18.226  68.798  1.00  0.00    -0.237 A  
HETATM   22  C   UNL     1      -5.463  17.407  69.078  1.00  0.00    -0.164 A  
HETATM   23  C   UNL     1      -7.501  17.759  67.879  1.00  0.00    -0.210 A  
HETATM   24 CL   UNL     1      -8.905  18.700  67.477  1.00  0.00    -0.279 Cl 
HETATM   25  C   UNL     1      -7.366  16.505  67.275  1.00  0.00    -0.199 A  
BRANCH  21  26
HETATM   26  N   UNL     1      -6.803  19.472  69.419  1.00  0.00    -0.340 N  
HETATM   27  H   UNL     1      -7.546  19.494  70.117  1.00  0.00     0.000 HD 
BRANCH  26  28
HETATM   28  C   UNL     1      -6.151  20.651  69.186  1.00  0.00    -0.287 C  
HETATM   29  O   UNL     1      -5.343  21.174  69.946  1.00  0.00    -0.484 OA 
BRANCH  28  30
HETATM   30  N   UNL     1      -6.493  21.224  67.980  1.00  0.00    -0.218 N  
HETATM   31  H   UNL     1      -7.431  21.604  67.847  1.00  0.00     0.000 HD 
BRANCH  30  32
HETATM   32  C   UNL     1      -5.545  21.287  66.915  1.00  0.00    -0.291 C  
HETATM   33  C   UNL     1      -5.215  20.112  66.043  1.00  0.00    -0.179 C  
HETATM   34  C   UNL     1      -6.040  21.237  65.494  1.00  0.00    -0.121 C  
ENDBRANCH  30  32
ENDBRANCH  28  30
ENDBRANCH  26  28
ENDBRANCH  21  26
ENDBRANCH  18  19
ENDBRANCH  11  18
ENDBRANCH   2   3
TORSDOF 8
ENDMDL
MODEL      146
REMARK 921   NORMALIZED FREE ENERGY PREDICTED BY IDOCK:   -4.36 KCAL/MOL
REMARK 922        TOTAL FREE ENERGY PREDICTED BY IDOCK:   -7.93 KCAL/MOL
REMARK 923 INTER-LIGAND FREE ENERGY PREDICTED BY IDOCK:   -7.67 KCAL/MOL
REMARK 924 INTRA-LIGAND FREE ENERGY PREDICTED BY IDOCK:   -0.26 KCAL/MOL
REMARK 927      BINDING AFFINITY PREDICTED BY RF-SCORE:    0.00 PKD
ROOT
HETATM    1  C   UNL     1     -10.510   5.541  73.817  1.00  0.00    -0.272 C  
HETATM    2  O   UNL     1     -11.227   5.443  72.588  1.00  0.00    -0.265 OA 
ENDROOT
BRANCH   2   3
HETATM    3  C   UNL     1     -11.372   6.615  71.893  1.00  0.00    -0.279 A  
HETATM    4  C   UNL     1     -10.555   6.860  70.780  1.00  0.00    -0.245 A  
HETATM    5  N   UNL     1     -13.208   9.697  72.217  1.00  0.00    -0.434 NA 
HETATM    6  C   UNL     1     -10.658   8.096  70.103  1.00  0.00    -0.237 A  
HETATM    7  C   UNL     1     -12.353   8.828  71.676  1.00  0.00    -0.337 A  
HETATM    8  C   UNL     1     -11.556   9.106  70.542  1.00  0.00    -0.238 A  
HETATM    9  C   UNL     1     -13.241  10.934  71.711  1.00  0.00    -0.408 A  
HETATM   10  C   UNL     1     -12.250   7.612  72.319  1.00  0.00    -0.261 A  
HETATM   11  C   UNL     1     -11.696  10.402  69.963  1.00  0.00    -0.286 A  
HETATM   12  C   UNL     1     -12.477  11.334  70.638  1.00  0.00    -0.439 A  
BRANCH   4  13
HETATM   13  C   UNL     1      -9.629   5.801  70.279  1.00  0.00    -0.164 C  
HETATM   14  H2  UNL     1     -11.189   4.694  69.438  1.00  0.00     0.000 HD 
HETATM   15  H1  UNL     1      -9.552   4.027  69.255  1.00  0.00     0.000 HD 
HETATM   16  O   UNL     1      -8.420   5.830  70.462  1.00  0.00    -0.122 OA 
HETATM   17  N   UNL     1     -10.184   4.750  69.597  1.00  0.00    -0.209 N  
ENDBRANCH   4  13
BRANCH  11  18
HETATM   18  O   UNL     1     -10.936  10.682  68.841  1.00  0.00    -0.215 OA 
BRANCH  18  19
HETATM   19  C   UNL     1     -10.166  11.823  68.693  1.00  0.00    -0.201 A  
HETATM   20  C   UNL     1     -10.856  13.035  68.820  1.00  0.00    -0.277 A  
HETATM   21  C   UNL     1      -8.925  14.310  68.046  1.00  0.00    -0.183 A  
HETATM   22  C   UNL     1     -10.242  14.266  68.512  1.00  0.00    -0.245 A  
HETATM   23  C   UNL     1      -8.234  13.102  67.938  1.00  0.00    -0.162 A  
HETATM   24 CL   UNL     1      -6.599  13.054  67.356  1.00  0.00    -0.159 Cl 
HETATM   25  C   UNL     1      -8.843  11.886  68.264  1.00  0.00    -0.174 A  
BRANCH  21  26
HETATM   26  N   UNL     1      -8.266  15.488  67.631  1.00  0.00    -0.146 N  
HETATM   27  H   UNL     1      -7.374  15.693  68.083  1.00  0.00     0.000 HD 
BRANCH  26  28
HETATM   28  C   UNL     1      -8.692  16.385  66.689  1.00  0.00    -0.256 C  
HETATM   29  O   UNL     1      -8.581  17.603  66.773  1.00  0.00    -0.236 OA 
BRANCH  28  30
HETATM   30  N   UNL     1      -9.279  15.778  65.600  1.00  0.00    -0.235 N  
HETATM   31  H   UNL     1      -8.697  15.436  64.835  1.00  0.00     0.000 HD 
BRANCH  30  32
HETATM   32  C   UNL     1     -10.696  15.624  65.534  1.00  0.00    -0.389 C  
HETATM   33  C   UNL     1     -11.479  15.793  64.266  1.00  0.00    -0.203 C  
HETATM   34  C   UNL     1     -11.268  14.422  64.832  1.00  0.00    -0.392 C  
ENDBRANCH  30  32
ENDBRANCH  28  30
ENDBRANCH  26  28
ENDBRANCH  21  26
ENDBRANCH  18  19
ENDBRANCH  11  18
ENDBRANCH   2   3
TORSDOF 8
ENDMDL
MODEL      147
REMARK 921   NORMALIZED FREE ENERGY PREDICTED BY IDOCK:   -4.36 KCAL/MOL
REMARK 922        TOTAL FREE ENERGY PREDICTED BY IDOCK:   -7.93 KCAL/MOL
REMARK 923 INTER-LIGAND FREE ENERGY PREDICTED BY IDOCK:   -6.94 KCAL/MOL
REMARK 924 INTRA-LIGAND FREE ENERGY PREDICTED BY IDOCK:   -0.99 KCAL/MOL
REMARK 927      BINDING AFFINITY PREDICTED BY RF-SCORE:    0.00 PKD
ROOT
HETATM    1  C   UNL     1      -7.453   3.523  65.510  1.00  0.00    -0.077 C  
HETATM    2  O   UNL     1      -8.353   3.836  66.572  1.00  0.00    -0.102 OA 
ENDROOT
BRANCH   2   3
HETATM    3  C   UNL     1      -8.451   5.165  66.891  1.00  0.00    -0.106 A  
HETATM    4  C   UNL     1      -8.615   5.540  68.232  1.00  0.00    -0.096 A  
HETATM    5  N   UNL     1      -8.704   8.312  65.157  1.00  0.00    -0.110 NA 
HETATM    6  C   UNL     1      -8.783   6.905  68.555  1.00  0.00    -0.125 A  
HETATM    7  C   UNL     1      -8.657   7.487  66.204  1.00  0.00    -0.149 A  
HETATM    8  C   UNL     1      -8.812   7.905  67.545  1.00  0.00    -0.128 A  
HETATM    9  C   UNL     1      -9.007   9.593  65.387  1.00  0.00    -0.190 A  
HETATM   10  C   UNL     1      -8.482   6.151  65.905  1.00  0.00    -0.145 A  
HETATM   11  C   UNL     1      -9.029   9.298  67.761  1.00  0.00    -0.126 A  
HETATM   12  C   UNL     1      -9.225  10.105  66.646  1.00  0.00    -0.181 A  
BRANCH   4  13
HETATM   13  C   UNL     1      -8.552   4.512  69.314  1.00  0.00    -0.078 C  
HETATM   14  H2  UNL     1     -10.626   4.256  69.330  1.00  0.00     0.000 HD 
HETATM   15  H1  UNL     1      -9.693   3.267  70.475  1.00  0.00     0.000 HD 
HETATM   16  O   UNL     1      -7.503   4.154  69.833  1.00  0.00    -0.048 OA 
HETATM   17  N   UNL     1      -9.736   3.969  69.737  1.00  0.00    -0.209 N  
ENDBRANCH   4  13
BRANCH  11  18
HETATM   18  O   UNL     1      -9.163   9.724  69.071  1.00  0.00    -0.150 OA 
BRANCH  18  19
HETATM   19  C   UNL     1     -10.341  10.214  69.608  1.00  0.00    -0.247 A  
HETATM   20  C   UNL     1     -10.711  11.496  69.180  1.00  0.00    -0.210 A  
HETATM   21  C   UNL     1     -12.492  11.627  70.842  1.00  0.00    -0.341 A  
HETATM   22  C   UNL     1     -11.779  12.192  69.781  1.00  0.00    -0.381 A  
HETATM   23  C   UNL     1     -12.134  10.342  71.254  1.00  0.00    -0.362 A  
HETATM   24 CL   UNL     1     -12.952   9.563  72.572  1.00  0.00    -0.376 Cl 
HETATM   25  C   UNL     1     -11.084   9.650  70.641  1.00  0.00    -0.384 A  
BRANCH  21  26
HETATM   26  N   UNL     1     -13.515  12.290  71.556  1.00  0.00    -0.030 N  
HETATM   27  H   UNL     1     -14.400  11.791  71.650  1.00  0.00     0.000 HD 
BRANCH  26  28
HETATM   28  C   UNL     1     -13.449  13.527  72.136  1.00  0.00    -0.537 C  
HETATM   29  O   UNL     1     -13.153  13.744  73.306  1.00  0.00    -0.450 OA 
BRANCH  28  30
HETATM   30  N   UNL     1     -13.757  14.546  71.259  1.00  0.00    -0.370 N  
HETATM   31  H   UNL     1     -14.571  14.462  70.651  1.00  0.00     0.000 HD 
BRANCH  30  32
HETATM   32  C   UNL     1     -12.943  15.717  71.198  1.00  0.00    -0.478 C  
HETATM   33  C   UNL     1     -11.451  15.685  71.353  1.00  0.00    -0.488 C  
HETATM   34  C   UNL     1     -12.053  15.925  70.002  1.00  0.00    -0.264 C  
ENDBRANCH  30  32
ENDBRANCH  28  30
ENDBRANCH  26  28
ENDBRANCH  21  26
ENDBRANCH  18  19
ENDBRANCH  11  18
ENDBRANCH   2   3
TORSDOF 8
ENDMDL
MODEL      148
REMARK 921   NORMALIZED FREE ENERGY PREDICTED BY IDOCK:   -4.34 KCAL/MOL
REMARK 922        TOTAL FREE ENERGY PREDICTED BY IDOCK:   -7.90 KCAL/MOL
REMARK 923 INTER-LIGAND FREE ENERGY PREDICTED BY IDOCK:   -7.54 KCAL/MOL
REMARK 924 INTRA-LIGAND FREE ENERGY PREDICTED BY IDOCK:   -0.36 KCAL/MOL
REMARK 927      BINDING AFFINITY PREDICTED BY RF-SCORE:    0.00 PKD
ROOT
HETATM    1  C   UNL     1     -13.759   7.378  71.564  1.00  0.00    -0.371 C  
HETATM    2  O   UNL     1     -12.436   7.909  71.555  1.00  0.00    -0.304 OA 
ENDROOT
BRANCH   2   3
HETATM    3  C   UNL     1     -12.322   9.205  71.123  1.00  0.00    -0.267 A  
HETATM    4  C   UNL     1     -11.336   9.532  70.181  1.00  0.00    -0.241 A  
HETATM    5  N   UNL     1     -13.739  12.417  71.928  1.00  0.00    -0.125 NA 
HETATM    6  C   UNL     1     -11.175  10.878  69.786  1.00  0.00    -0.351 A  
HETATM    7  C   UNL     1     -12.949  11.546  71.299  1.00  0.00    -0.297 A  
HETATM    8  C   UNL     1     -11.975  11.913  70.342  1.00  0.00    -0.400 A  
HETATM    9  C   UNL     1     -13.533  13.718  71.706  1.00  0.00    -0.376 A  
HETATM   10  C   UNL     1     -13.103  10.225  71.667  1.00  0.00    -0.553 A  
HETATM   11  C   UNL     1     -11.855  13.304  70.051  1.00  0.00    -0.295 A  
HETATM   12  C   UNL     1     -12.583  14.196  70.831  1.00  0.00    -0.433 A  
BRANCH   4  13
HETATM   13  C   UNL     1     -10.507   8.458  69.556  1.00  0.00    -0.224 C  
HETATM   14  H2  UNL     1      -8.852   8.901  70.752  1.00  0.00     0.000 HD 
HETATM   15  H1  UNL     1      -8.660   7.572  69.587  1.00  0.00     0.000 HD 
HETATM   16  O   UNL     1     -10.919   7.734  68.660  1.00  0.00    -0.018 OA 
HETATM   17  N   UNL     1      -9.225   8.305  70.014  1.00  0.00    -0.151 N  
ENDBRANCH   4  13
BRANCH  11  18
HETATM   18  O   UNL     1     -10.920  13.676  69.101  1.00  0.00    -0.246 OA 
BRANCH  18  19
HETATM   19  C   UNL     1     -10.593  12.910  67.995  1.00  0.00    -0.227 A  
HETATM   20  C   UNL     1      -9.290  12.395  67.984  1.00  0.00    -0.204 A  
HETATM   21  C   UNL     1      -9.522  11.640  65.675  1.00  0.00    -0.209 A  
HETATM   22  C   UNL     1      -8.763  11.757  66.843  1.00  0.00    -0.189 A  
HETATM   23  C   UNL     1     -10.826  12.137  65.697  1.00  0.00    -0.284 A  
HETATM   24 CL   UNL     1     -11.841  12.048  64.290  1.00  0.00    -0.439 Cl 
HETATM   25  C   UNL     1     -11.350  12.752  66.838  1.00  0.00    -0.371 A  
BRANCH  21  26
HETATM   26  N   UNL     1      -9.040  11.097  64.464  1.00  0.00    -0.367 N  
HETATM   27  H   UNL     1      -9.522  11.386  63.613  1.00  0.00     0.000 HD 
BRANCH  26  28
HETATM   28  C   UNL     1      -7.997  10.226  64.307  1.00  0.00    -0.132 C  
HETATM   29  O   UNL     1      -6.846  10.544  64.025  1.00  0.00    -0.032 OA 
BRANCH  28  30
HETATM   30  N   UNL     1      -8.364   8.911  64.498  1.00  0.00    -0.166 N  
HETATM   31  H   UNL     1      -9.243   8.568  64.110  1.00  0.00     0.000 HD 
BRANCH  30  32
HETATM   32  C   UNL     1      -7.522   8.025  65.235  1.00  0.00    -0.080 C  
HETATM   33  C   UNL     1      -7.104   8.285  66.652  1.00  0.00    -0.077 C  
HETATM   34  C   UNL     1      -8.117   7.220  66.359  1.00  0.00    -0.119 C  
ENDBRANCH  30  32
ENDBRANCH  28  30
ENDBRANCH  26  28
ENDBRANCH  21  26
ENDBRANCH  18  19
ENDBRANCH  11  18
ENDBRANCH   2   3
TORSDOF 8
ENDMDL
MODEL      149
REMARK 921   NORMALIZED FREE ENERGY PREDICTED BY IDOCK:   -4.34 KCAL/MOL
REMARK 922        TOTAL FREE ENERGY PREDICTED BY IDOCK:   -7.90 KCAL/MOL
REMARK 923 INTER-LIGAND FREE ENERGY PREDICTED BY IDOCK:   -7.10 KCAL/MOL
REMARK 924 INTRA-LIGAND FREE ENERGY PREDICTED BY IDOCK:   -0.80 KCAL/MOL
REMARK 927      BINDING AFFINITY PREDICTED BY RF-SCORE:    0.00 PKD
ROOT
HETATM    1  C   UNL     1      -5.568  16.429  67.014  1.00  0.00    -0.012 C  
HETATM    2  O   UNL     1      -6.765  17.010  67.529  1.00  0.00    -0.132 OA 
ENDROOT
BRANCH   2   3
HETATM    3  C   UNL     1      -7.921  16.332  67.245  1.00  0.00    -0.167 A  
HETATM    4  C   UNL     1      -8.213  15.148  67.936  1.00  0.00    -0.152 A  
HETATM    5  N   UNL     1     -10.599  16.522  64.843  1.00  0.00    -0.690 NA 
HETATM    6  C   UNL     1      -9.371  14.414  67.597  1.00  0.00    -0.200 A  
HETATM    7  C   UNL     1      -9.901  16.030  65.867  1.00  0.00    -0.348 A  
HETATM    8  C   UNL     1     -10.235  14.839  66.551  1.00  0.00    -0.281 A  
HETATM    9  C   UNL     1     -11.621  15.795  64.381  1.00  0.00    -0.240 A  
HETATM   10  C   UNL     1      -8.772  16.743  66.218  1.00  0.00    -0.342 A  
HETATM   11  C   UNL     1     -11.395  14.144  66.097  1.00  0.00    -0.337 A  
HETATM   12  C   UNL     1     -12.011  14.597  64.936  1.00  0.00    -0.402 A  
BRANCH   4  13
HETATM   13  C   UNL     1      -7.340  14.700  69.062  1.00  0.00    -0.134 C  
HETATM   14  H2  UNL     1      -8.025  16.214  70.329  1.00  0.00     0.000 HD 
HETATM   15  H1  UNL     1      -6.809  15.104  71.000  1.00  0.00     0.000 HD 
HETATM   16  O   UNL     1      -6.575  13.749  68.975  1.00  0.00    -0.098 OA 
HETATM   17  N   UNL     1      -7.405  15.410  70.231  1.00  0.00     0.215 N  
ENDBRANCH   4  13
BRANCH  11  18
HETATM   18  O   UNL     1     -11.745  12.986  66.769  1.00  0.00    -0.344 OA 
BRANCH  18  19
HETATM   19  C   UNL     1     -11.278  11.726  66.437  1.00  0.00    -0.323 A  
HETATM   20  C   UNL     1     -11.276  10.791  67.480  1.00  0.00    -0.346 A  
HETATM   21  C   UNL     1     -10.006   9.188  66.149  1.00  0.00    -0.268 A  
HETATM   22  C   UNL     1     -10.658   9.532  67.336  1.00  0.00    -0.337 A  
HETATM   23  C   UNL     1     -10.027  10.114  65.105  1.00  0.00    -0.309 A  
HETATM   24 CL   UNL     1      -9.234   9.782  63.596  1.00  0.00    -0.279 Cl 
HETATM   25  C   UNL     1     -10.658  11.354  65.247  1.00  0.00    -0.336 A  
BRANCH  21  26
HETATM   26  N   UNL     1      -9.289   7.987  65.954  1.00  0.00    -0.404 N  
HETATM   27  H   UNL     1      -8.499   8.029  65.309  1.00  0.00     0.000 HD 
BRANCH  26  28
HETATM   28  C   UNL     1      -9.536   6.774  66.535  1.00  0.00    -0.140 C  
HETATM   29  O   UNL     1     -10.648   6.287  66.709  1.00  0.00    -0.253 OA 
BRANCH  28  30
HETATM   30  N   UNL     1      -8.385   6.123  66.925  1.00  0.00    -0.106 N  
HETATM   31  H   UNL     1      -8.132   5.235  66.491  1.00  0.00     0.000 HD 
BRANCH  30  32
HETATM   32  C   UNL     1      -7.544   6.682  67.934  1.00  0.00    -0.107 C  
HETATM   33  C   UNL     1      -8.051   7.611  68.997  1.00  0.00    -0.126 C  
HETATM   34  C   UNL     1      -7.688   6.201  69.353  1.00  0.00    -0.099 C  
ENDBRANCH  30  32
ENDBRANCH  28  30
ENDBRANCH  26  28
ENDBRANCH  21  26
ENDBRANCH  18  19
ENDBRANCH  11  18
ENDBRANCH   2   3
TORSDOF 8
ENDMDL
MODEL      150
REMARK 921   NORMALIZED FREE ENERGY PREDICTED BY IDOCK:   -4.32 KCAL/MOL
REMARK 922        TOTAL FREE ENERGY PREDICTED BY IDOCK:   -7.87 KCAL/MOL
REMARK 923 INTER-LIGAND FREE ENERGY PREDICTED BY IDOCK:   -6.50 KCAL/MOL
REMARK 924 INTRA-LIGAND FREE ENERGY PREDICTED BY IDOCK:   -1.38 KCAL/MOL
REMARK 927      BINDING AFFINITY PREDICTED BY RF-SCORE:    0.00 PKD
ROOT
HETATM    1  C   UNL     1      -7.185  16.685  69.201  1.00  0.00    -0.220 C  
HETATM    2  O   UNL     1      -6.892  15.780  68.137  1.00  0.00    -0.109 OA 
ENDROOT
BRANCH   2   3
HETATM    3  C   UNL     1      -7.871  14.864  67.853  1.00  0.00    -0.137 A  
HETATM    4  C   UNL     1      -7.548  13.500  67.820  1.00  0.00    -0.163 A  
HETATM    5  N   UNL     1     -11.315  14.885  66.799  1.00  0.00    -0.345 NA 
HETATM    6  C   UNL     1      -8.541  12.561  67.462  1.00  0.00    -0.183 A  
HETATM    7  C   UNL     1     -10.139  14.358  67.141  1.00  0.00    -0.253 A  
HETATM    8  C   UNL     1      -9.855  12.974  67.110  1.00  0.00    -0.230 A  
HETATM    9  C   UNL     1     -12.247  14.062  66.310  1.00  0.00    -0.462 A  
HETATM   10  C   UNL     1      -9.162  15.262  67.505  1.00  0.00    -0.202 A  
HETATM   11  C   UNL     1     -10.910  12.114  66.684  1.00  0.00    -0.268 A  
HETATM   12  C   UNL     1     -12.068  12.702  66.189  1.00  0.00    -0.399 A  
BRANCH   4  13
HETATM   13  C   UNL     1      -6.185  13.040  68.220  1.00  0.00    -0.085 C  
HETATM   14  H2  UNL     1      -5.673  12.526  66.260  1.00  0.00     0.000 HD 
HETATM   15  H1  UNL     1      -4.434  12.250  67.504  1.00  0.00     0.000 HD 
HETATM   16  O   UNL     1      -5.786  13.060  69.377  1.00  0.00    -0.083 OA 
HETATM   17  N   UNL     1      -5.365  12.564  67.231  1.00  0.00    -0.081 N  
ENDBRANCH   4  13
BRANCH  11  18
HETATM   18  O   UNL     1     -10.653  10.754  66.667  1.00  0.00    -0.245 OA 
BRANCH  18  19
HETATM   19  C   UNL     1     -10.681   9.947  67.792  1.00  0.00    -0.277 A  
HETATM   20  C   UNL     1     -10.335   8.606  67.579  1.00  0.00    -0.336 A  
HETATM   21  C   UNL     1     -11.037   7.983  69.831  1.00  0.00    -0.108 A  
HETATM   22  C   UNL     1     -10.500   7.636  68.588  1.00  0.00    -0.203 A  
HETATM   23  C   UNL     1     -11.362   9.322  70.046  1.00  0.00    -0.113 A  
HETATM   24 CL   UNL     1     -12.047   9.847  71.554  1.00  0.00    -0.483 Cl 
HETATM   25  C   UNL     1     -11.179  10.284  69.047  1.00  0.00    -0.260 A  
BRANCH  21  26
HETATM   26  N   UNL     1     -11.316   7.059  70.863  1.00  0.00    -0.279 N  
HETATM   27  H   UNL     1     -12.209   6.569  70.805  1.00  0.00     0.000 HD 
BRANCH  26  28
HETATM   28  C   UNL     1     -10.520   6.750  71.932  1.00  0.00    -0.199 C  
HETATM   29  O   UNL     1     -10.805   6.951  73.107  1.00  0.00    -0.279 OA 
BRANCH  28  30
HETATM   30  N   UNL     1      -9.325   6.172  71.559  1.00  0.00    -0.149 N  
HETATM   31  H   UNL     1      -9.314   5.218  71.198  1.00  0.00     0.000 HD 
BRANCH  30  32
HETATM   32  C   UNL     1      -8.103   6.900  71.675  1.00  0.00    -0.105 C  
HETATM   33  C   UNL     1      -7.381   7.478  70.494  1.00  0.00    -0.075 C  
HETATM   34  C   UNL     1      -8.113   8.386  71.435  1.00  0.00    -0.162 C  
ENDBRANCH  30  32
ENDBRANCH  28  30
ENDBRANCH  26  28
ENDBRANCH  21  26
ENDBRANCH  18  19
ENDBRANCH  11  18
ENDBRANCH   2   3
TORSDOF 8
ENDMDL
MODEL      151
REMARK 921   NORMALIZED FREE ENERGY PREDICTED BY IDOCK:   -4.31 KCAL/MOL
REMARK 922        TOTAL FREE ENERGY PREDICTED BY IDOCK:   -7.86 KCAL/MOL
REMARK 923 INTER-LIGAND FREE ENERGY PREDICTED BY IDOCK:   -7.17 KCAL/MOL
REMARK 924 INTRA-LIGAND FREE ENERGY PREDICTED BY IDOCK:   -0.69 KCAL/MOL
REMARK 927      BINDING AFFINITY PREDICTED BY RF-SCORE:    0.00 PKD
ROOT
HETATM    1  C   UNL     1      -7.856   7.490  62.647  1.00  0.00    -0.133 C  
HETATM    2  O   UNL     1      -7.103   7.336  63.848  1.00  0.00    -0.061 OA 
ENDROOT
BRANCH   2   3
HETATM    3  C   UNL     1      -7.788   7.572  65.011  1.00  0.00    -0.127 A  
HETATM    4  C   UNL     1      -7.392   8.630  65.841  1.00  0.00    -0.084 A  
HETATM    5  N   UNL     1     -10.399   5.998  66.930  1.00  0.00    -0.215 NA 
HETATM    6  C   UNL     1      -8.056   8.831  67.071  1.00  0.00    -0.099 A  
HETATM    7  C   UNL     1      -9.465   6.904  66.639  1.00  0.00    -0.166 A  
HETATM    8  C   UNL     1      -9.102   7.968  67.497  1.00  0.00    -0.146 A  
HETATM    9  C   UNL     1     -10.959   6.049  68.142  1.00  0.00    -0.246 A  
HETATM   10  C   UNL     1      -8.815   6.727  65.435  1.00  0.00     0.077 A  
HETATM   11  C   UNL     1      -9.797   8.053  68.740  1.00  0.00    -0.172 A  
HETATM   12  C   UNL     1     -10.653   7.012  69.079  1.00  0.00    -0.234 A  
BRANCH   4  13
HETATM   13  C   UNL     1      -6.320   9.571  65.400  1.00  0.00    -0.069 C  
HETATM   14  H2  UNL     1      -7.272  11.219  66.263  1.00  0.00     0.000 HD 
HETATM   15  H1  UNL     1      -5.732  11.534  65.433  1.00  0.00     0.000 HD 
HETATM   16  O   UNL     1      -5.344   9.215  64.753  1.00  0.00    -0.048 OA 
HETATM   17  N   UNL     1      -6.464  10.891  65.734  1.00  0.00    -0.075 N  
ENDBRANCH   4  13
BRANCH  11  18
HETATM   18  O   UNL     1      -9.466   9.101  69.581  1.00  0.00    -0.160 OA 
BRANCH  18  19
HETATM   19  C   UNL     1      -9.995  10.376  69.472  1.00  0.00    -0.202 A  
HETATM   20  C   UNL     1     -11.193  10.592  70.167  1.00  0.00    -0.378 A  
HETATM   21  C   UNL     1     -11.509  12.768  69.109  1.00  0.00    -0.306 A  
HETATM   22  C   UNL     1     -11.937  11.777  69.997  1.00  0.00    -0.421 A  
HETATM   23  C   UNL     1     -10.306  12.558  68.434  1.00  0.00    -0.230 A  
HETATM   24 CL   UNL     1      -9.699  13.726  67.301  1.00  0.00    -0.236 Cl 
HETATM   25  C   UNL     1      -9.563  11.388  68.620  1.00  0.00    -0.179 A  
BRANCH  21  26
HETATM   26  N   UNL     1     -12.238  13.942  68.815  1.00  0.00    -0.481 N  
HETATM   27  H   UNL     1     -13.025  13.839  68.174  1.00  0.00     0.000 HD 
BRANCH  26  28
HETATM   28  C   UNL     1     -12.005  15.201  69.296  1.00  0.00    -0.292 C  
HETATM   29  O   UNL     1     -11.703  16.174  68.613  1.00  0.00    -0.362 OA 
BRANCH  28  30
HETATM   30  N   UNL     1     -12.142  15.284  70.665  1.00  0.00    -0.323 N  
HETATM   31  H   UNL     1     -11.313  15.373  71.254  1.00  0.00     0.000 HD 
BRANCH  30  32
HETATM   32  C   UNL     1     -13.436  15.247  71.266  1.00  0.00    -0.514 C  
HETATM   33  C   UNL     1     -13.820  14.249  72.318  1.00  0.00    -0.622 C  
HETATM   34  C   UNL     1     -13.588  15.680  72.699  1.00  0.00    -0.667 C  
ENDBRANCH  30  32
ENDBRANCH  28  30
ENDBRANCH  26  28
ENDBRANCH  21  26
ENDBRANCH  18  19
ENDBRANCH  11  18
ENDBRANCH   2   3
TORSDOF 8
ENDMDL
MODEL      152
REMARK 921   NORMALIZED FREE ENERGY PREDICTED BY IDOCK:   -4.30 KCAL/MOL
REMARK 922        TOTAL FREE ENERGY PREDICTED BY IDOCK:   -7.84 KCAL/MOL
REMARK 923 INTER-LIGAND FREE ENERGY PREDICTED BY IDOCK:   -7.12 KCAL/MOL
REMARK 924 INTRA-LIGAND FREE ENERGY PREDICTED BY IDOCK:   -0.72 KCAL/MOL
REMARK 927      BINDING AFFINITY PREDICTED BY RF-SCORE:    0.00 PKD
ROOT
HETATM    1  C   UNL     1     -12.720   9.760  71.170  1.00  0.00    -0.340 C  
HETATM    2  O   UNL     1     -12.301  10.067  69.841  1.00  0.00    -0.020 OA 
ENDROOT
BRANCH   2   3
HETATM    3  C   UNL     1     -10.972  10.365  69.693  1.00  0.00    -0.277 A  
HETATM    4  C   UNL     1     -10.584  11.329  68.752  1.00  0.00    -0.234 A  
HETATM    5  N   UNL     1      -7.814   9.133  70.911  1.00  0.00    -0.171 NA 
HETATM    6  C   UNL     1      -9.209  11.589  68.553  1.00  0.00    -0.167 A  
HETATM    7  C   UNL     1      -8.641   9.901  70.201  1.00  0.00    -0.105 A  
HETATM    8  C   UNL     1      -8.211  10.875  69.270  1.00  0.00    -0.046 A  
HETATM    9  C   UNL     1      -6.505   9.229  70.658  1.00  0.00    -0.073 A  
HETATM   10  C   UNL     1      -9.987   9.667  70.393  1.00  0.00    -0.330 A  
HETATM   11  C   UNL     1      -6.802  11.023  69.104  1.00  0.00    -0.094 A  
HETATM   12  C   UNL     1      -5.972  10.108  69.742  1.00  0.00    -0.047 A  
BRANCH   4  13
HETATM   13  C   UNL     1     -11.614  12.116  68.013  1.00  0.00    -0.348 C  
HETATM   14  H2  UNL     1     -11.651  13.620  69.463  1.00  0.00     0.000 HD 
HETATM   15  H1  UNL     1     -12.734  13.832  68.069  1.00  0.00     0.000 HD 
HETATM   16  O   UNL     1     -12.100  11.749  66.951  1.00  0.00    -0.566 OA 
HETATM   17  N   UNL     1     -12.031  13.294  68.574  1.00  0.00    -0.340 N  
ENDBRANCH   4  13
BRANCH  11  18
HETATM   18  O   UNL     1      -6.366  11.987  68.211  1.00  0.00    -0.049 OA 
BRANCH  18  19
HETATM   19  C   UNL     1      -6.797  13.302  68.221  1.00  0.00    -0.105 A  
HETATM   20  C   UNL     1      -6.659  13.971  69.444  1.00  0.00    -0.118 A  
HETATM   21  C   UNL     1      -7.958  15.874  68.643  1.00  0.00    -0.156 A  
HETATM   22  C   UNL     1      -7.222  15.246  69.652  1.00  0.00    -0.187 A  
HETATM   23  C   UNL     1      -8.077  15.214  67.420  1.00  0.00    -0.186 A  
HETATM   24 CL   UNL     1      -8.983  15.909  66.111  1.00  0.00    -0.376 Cl 
HETATM   25  C   UNL     1      -7.500  13.957  67.214  1.00  0.00    -0.051 A  
BRANCH  21  26
HETATM   26  N   UNL     1      -8.628  17.108  68.798  1.00  0.00    -0.261 N  
HETATM   27  H   UNL     1      -8.058  17.949  68.708  1.00  0.00     0.000 HD 
BRANCH  26  28
HETATM   28  C   UNL     1      -9.959  17.299  69.054  1.00  0.00    -0.272 C  
HETATM   29  O   UNL     1     -10.652  16.578  69.763  1.00  0.00    -0.311 OA 
BRANCH  28  30
HETATM   30  N   UNL     1     -10.471  18.411  68.422  1.00  0.00    -0.348 N  
HETATM   31  H   UNL     1     -11.384  18.775  68.696  1.00  0.00     0.000 HD 
BRANCH  30  32
HETATM   32  C   UNL     1      -9.733  19.059  67.386  1.00  0.00    -0.315 C  
HETATM   33  C   UNL     1     -10.386  19.723  66.210  1.00  0.00    -0.626 C  
HETATM   34  C   UNL     1      -9.773  20.560  67.291  1.00  0.00    -0.600 C  
ENDBRANCH  30  32
ENDBRANCH  28  30
ENDBRANCH  26  28
ENDBRANCH  21  26
ENDBRANCH  18  19
ENDBRANCH  11  18
ENDBRANCH   2   3
TORSDOF 8
ENDMDL
MODEL      153
REMARK 921   NORMALIZED FREE ENERGY PREDICTED BY IDOCK:   -4.28 KCAL/MOL
REMARK 922        TOTAL FREE ENERGY PREDICTED BY IDOCK:   -7.82 KCAL/MOL
REMARK 923 INTER-LIGAND FREE ENERGY PREDICTED BY IDOCK:   -6.60 KCAL/MOL
REMARK 924 INTRA-LIGAND FREE ENERGY PREDICTED BY IDOCK:   -1.21 KCAL/MOL
REMARK 927      BINDING AFFINITY PREDICTED BY RF-SCORE:    0.00 PKD
ROOT
HETATM    1  C   UNL     1      -8.121  17.999  67.659  1.00  0.00    -0.232 C  
HETATM    2  O   UNL     1      -8.332  17.079  68.728  1.00  0.00    -0.251 OA 
ENDROOT
BRANCH   2   3
HETATM    3  C   UNL     1      -8.788  15.840  68.361  1.00  0.00    -0.185 A  
HETATM    4  C   UNL     1      -7.954  14.725  68.522  1.00  0.00    -0.136 A  
HETATM    5  N   UNL     1     -11.661  14.442  66.696  1.00  0.00    -0.371 NA 
HETATM    6  C   UNL     1      -8.398  13.457  68.082  1.00  0.00    -0.164 A  
HETATM    7  C   UNL     1     -10.471  14.444  67.299  1.00  0.00    -0.269 A  
HETATM    8  C   UNL     1      -9.664  13.294  67.457  1.00  0.00    -0.224 A  
HETATM    9  C   UNL     1     -12.068  13.303  66.129  1.00  0.00    -0.421 A  
HETATM   10  C   UNL     1     -10.029  15.673  67.744  1.00  0.00    -0.223 A  
HETATM   11  C   UNL     1     -10.180  12.073  66.931  1.00  0.00    -0.208 A  
HETATM   12  C   UNL     1     -11.347  12.131  66.177  1.00  0.00    -0.414 A  
BRANCH   4  13
HETATM   13  C   UNL     1      -6.635  14.865  69.208  1.00  0.00    -0.131 C  
HETATM   14  H2  UNL     1      -7.453  14.449  71.085  1.00  0.00     0.000 HD 
HETATM   15  H1  UNL     1      -5.706  14.771  71.032  1.00  0.00     0.000 HD 
HETATM   16  O   UNL     1      -5.602  15.149  68.616  1.00  0.00    -0.085 OA 
HETATM   17  N   UNL     1      -6.607  14.676  70.564  1.00  0.00    -0.079 N  
ENDBRANCH   4  13
BRANCH  11  18
HETATM   18  O   UNL     1      -9.410  10.935  67.096  1.00  0.00    -0.158 OA 
BRANCH  18  19
HETATM   19  C   UNL     1      -9.725   9.906  67.967  1.00  0.00    -0.140 A  
HETATM   20  C   UNL     1      -9.356  10.115  69.302  1.00  0.00    -0.227 A  
HETATM   21  C   UNL     1      -9.887   7.808  69.895  1.00  0.00    -0.177 A  
HETATM   22  C   UNL     1      -9.445   9.083  70.259  1.00  0.00    -0.230 A  
HETATM   23  C   UNL     1     -10.273   7.609  68.568  1.00  0.00    -0.199 A  
HETATM   24 CL   UNL     1     -10.823   6.057  68.018  1.00  0.00    -0.370 Cl 
HETATM   25  C   UNL     1     -10.199   8.642  67.628  1.00  0.00    -0.300 A  
BRANCH  21  26
HETATM   26  N   UNL     1      -9.923   6.699  70.768  1.00  0.00    -0.184 N  
HETATM   27  H   UNL     1      -9.094   6.103  70.780  1.00  0.00     0.000 HD 
BRANCH  26  28
HETATM   28  C   UNL     1     -10.946   6.335  71.600  1.00  0.00    -0.261 C  
HETATM   29  O   UNL     1     -12.137   6.371  71.312  1.00  0.00    -0.310 OA 
BRANCH  28  30
HETATM   30  N   UNL     1     -10.506   5.910  72.835  1.00  0.00    -0.210 N  
HETATM   31  H   UNL     1     -10.963   6.251  73.681  1.00  0.00     0.000 HD 
BRANCH  30  32
HETATM   32  C   UNL     1      -9.414   4.997  72.939  1.00  0.00    -0.137 C  
HETATM   33  C   UNL     1      -9.410   3.833  73.885  1.00  0.00    -0.106 C  
HETATM   34  C   UNL     1      -9.583   3.596  72.415  1.00  0.00    -0.200 C  
ENDBRANCH  30  32
ENDBRANCH  28  30
ENDBRANCH  26  28
ENDBRANCH  21  26
ENDBRANCH  18  19
ENDBRANCH  11  18
ENDBRANCH   2   3
TORSDOF 8
ENDMDL
MODEL      154
REMARK 921   NORMALIZED FREE ENERGY PREDICTED BY IDOCK:   -4.27 KCAL/MOL
REMARK 922        TOTAL FREE ENERGY PREDICTED BY IDOCK:   -7.80 KCAL/MOL
REMARK 923 INTER-LIGAND FREE ENERGY PREDICTED BY IDOCK:   -6.07 KCAL/MOL
REMARK 924 INTRA-LIGAND FREE ENERGY PREDICTED BY IDOCK:   -1.73 KCAL/MOL
REMARK 927      BINDING AFFINITY PREDICTED BY RF-SCORE:    0.00 PKD
ROOT
HETATM    1  C   UNL     1     -12.839  14.103  64.737  1.00  0.00    -0.056 C  
HETATM    2  O   UNL     1     -12.623  14.310  66.132  1.00  0.00    -0.436 OA 
ENDROOT
BRANCH   2   3
HETATM    3  C   UNL     1     -11.316  14.465  66.512  1.00  0.00    -0.350 A  
HETATM    4  C   UNL     1     -10.789  13.642  67.517  1.00  0.00    -0.275 A  
HETATM    5  N   UNL     1      -8.601  16.738  65.849  1.00  0.00    -0.502 NA 
HETATM    6  C   UNL     1      -9.461  13.846  67.955  1.00  0.00    -0.212 A  
HETATM    7  C   UNL     1      -9.227  15.704  66.413  1.00  0.00    -0.311 A  
HETATM    8  C   UNL     1      -8.657  14.886  67.415  1.00  0.00    -0.208 A  
HETATM    9  C   UNL     1      -7.398  17.072  66.327  1.00  0.00    -0.259 A  
HETATM   10  C   UNL     1     -10.521  15.485  65.987  1.00  0.00    -0.335 A  
HETATM   11  C   UNL     1      -7.329  15.208  67.825  1.00  0.00    -0.164 A  
HETATM   12  C   UNL     1      -6.762  16.378  67.332  1.00  0.00    -0.201 A  
BRANCH   4  13
HETATM   13  C   UNL     1     -11.602  12.521  68.074  1.00  0.00    -0.342 C  
HETATM   14  H2  UNL     1     -11.663  13.378  69.979  1.00  0.00     0.000 HD 
HETATM   15  H1  UNL     1     -12.505  11.825  69.777  1.00  0.00     0.000 HD 
HETATM   16  O   UNL     1     -11.952  11.555  67.408  1.00  0.00    -0.623 OA 
HETATM   17  N   UNL     1     -11.949  12.591  69.397  1.00  0.00    -0.286 N  
ENDBRANCH   4  13
BRANCH  11  18
HETATM   18  O   UNL     1      -6.750  14.403  68.790  1.00  0.00    -0.083 OA 
BRANCH  18  19
HETATM   19  C   UNL     1      -6.393  13.082  68.584  1.00  0.00    -0.083 A  
HETATM   20  C   UNL     1      -5.733  12.819  67.376  1.00  0.00    -0.077 A  
HETATM   21  C   UNL     1      -5.898  10.409  67.715  1.00  0.00    -0.044 A  
HETATM   22  C   UNL     1      -5.478  11.500  66.950  1.00  0.00    -0.126 A  
HETATM   23  C   UNL     1      -6.537  10.674  68.927  1.00  0.00    -0.055 A  
HETATM   24 CL   UNL     1      -7.107   9.384  69.941  1.00  0.00    -0.065 Cl 
HETATM   25  C   UNL     1      -6.771  11.985  69.353  1.00  0.00    -0.070 A  
BRANCH  21  26
HETATM   26  N   UNL     1      -5.761   9.060  67.320  1.00  0.00    -0.042 N  
HETATM   27  H   UNL     1      -5.075   8.504  67.831  1.00  0.00     0.000 HD 
BRANCH  26  28
HETATM   28  C   UNL     1      -6.448   8.416  66.327  1.00  0.00    -0.054 C  
HETATM   29  O   UNL     1      -5.969   7.591  65.557  1.00  0.00    -0.037 OA 
BRANCH  28  30
HETATM   30  N   UNL     1      -7.773   8.791  66.264  1.00  0.00    -0.097 N  
HETATM   31  H   UNL     1      -8.432   8.444  66.962  1.00  0.00     0.000 HD 
BRANCH  30  32
HETATM   32  C   UNL     1      -8.230   9.662  65.230  1.00  0.00    -0.131 C  
HETATM   33  C   UNL     1      -9.684   9.923  64.964  1.00  0.00    -0.359 C  
HETATM   34  C   UNL     1      -8.843  10.984  65.607  1.00  0.00    -0.187 C  
ENDBRANCH  30  32
ENDBRANCH  28  30
ENDBRANCH  26  28
ENDBRANCH  21  26
ENDBRANCH  18  19
ENDBRANCH  11  18
ENDBRANCH   2   3
TORSDOF 8
ENDMDL
MODEL      155
REMARK 921   NORMALIZED FREE ENERGY PREDICTED BY IDOCK:   -4.26 KCAL/MOL
REMARK 922        TOTAL FREE ENERGY PREDICTED BY IDOCK:   -7.79 KCAL/MOL
REMARK 923 INTER-LIGAND FREE ENERGY PREDICTED BY IDOCK:   -6.81 KCAL/MOL
REMARK 924 INTRA-LIGAND FREE ENERGY PREDICTED BY IDOCK:   -0.98 KCAL/MOL
REMARK 927      BINDING AFFINITY PREDICTED BY RF-SCORE:    0.00 PKD
ROOT
HETATM    1  C   UNL     1     -11.715  16.290  64.185  1.00  0.00     0.264 C  
HETATM    2  O   UNL     1     -12.006  15.074  64.872  1.00  0.00    -0.340 OA 
ENDROOT
BRANCH   2   3
HETATM    3  C   UNL     1     -10.955  14.510  65.547  1.00  0.00    -0.335 A  
HETATM    4  C   UNL     1     -10.757  13.124  65.476  1.00  0.00    -0.297 A  
HETATM    5  N   UNL     1      -8.434  15.549  67.900  1.00  0.00    -0.142 NA 
HETATM    6  C   UNL     1      -9.715  12.534  66.225  1.00  0.00    -0.259 A  
HETATM    7  C   UNL     1      -9.116  14.706  67.123  1.00  0.00    -0.223 A  
HETATM    8  C   UNL     1      -8.877  13.314  67.068  1.00  0.00    -0.216 A  
HETATM    9  C   UNL     1      -7.534  15.030  68.741  1.00  0.00    -0.133 A  
HETATM   10  C   UNL     1     -10.131  15.270  66.377  1.00  0.00    -0.287 A  
HETATM   11  C   UNL     1      -7.836  12.810  67.903  1.00  0.00    -0.156 A  
HETATM   12  C   UNL     1      -7.249  13.684  68.809  1.00  0.00    -0.100 A  
BRANCH   4  13
HETATM   13  C   UNL     1     -11.601  12.288  64.571  1.00  0.00    -0.353 C  
HETATM   14  H2  UNL     1     -10.074  12.100  63.156  1.00  0.00     0.000 HD 
HETATM   15  H1  UNL     1     -11.611  11.288  62.782  1.00  0.00     0.000 HD 
HETATM   16  O   UNL     1     -12.760  11.990  64.826  1.00  0.00    -0.421 OA 
HETATM   17  N   UNL     1     -11.035  11.859  63.400  1.00  0.00    -0.407 N  
ENDBRANCH   4  13
BRANCH  11  18
HETATM   18  O   UNL     1      -7.578  11.451  67.844  1.00  0.00    -0.100 OA 
BRANCH  18  19
HETATM   19  C   UNL     1      -8.157  10.516  68.686  1.00  0.00    -0.127 A  
HETATM   20  C   UNL     1      -7.567   9.245  68.669  1.00  0.00    -0.081 A  
HETATM   21  C   UNL     1      -9.376   8.299  70.005  1.00  0.00    -0.162 A  
HETATM   22  C   UNL     1      -8.162   8.151  69.329  1.00  0.00    -0.119 A  
HETATM   23  C   UNL     1      -9.950   9.571  70.037  1.00  0.00    -0.237 A  
HETATM   24 CL   UNL     1     -11.464   9.851  70.841  1.00  0.00    -0.422 Cl 
HETATM   25  C   UNL     1      -9.346  10.657  69.395  1.00  0.00    -0.082 A  
BRANCH  21  26
HETATM   26  N   UNL     1     -10.081   7.239  70.616  1.00  0.00    -0.194 N  
HETATM   27  H   UNL     1      -9.828   7.020  71.580  1.00  0.00     0.000 HD 
BRANCH  26  28
HETATM   28  C   UNL     1     -11.068   6.474  70.057  1.00  0.00    -0.363 C  
HETATM   29  O   UNL     1     -12.268   6.598  70.276  1.00  0.00    -0.294 OA 
BRANCH  28  30
HETATM   30  N   UNL     1     -10.578   5.515  69.196  1.00  0.00    -0.252 N  
HETATM   31  H   UNL     1     -10.582   4.533  69.474  1.00  0.00     0.000 HD 
BRANCH  30  32
HETATM   32  C   UNL     1     -10.066   5.886  67.917  1.00  0.00    -0.162 C  
HETATM   33  C   UNL     1     -10.634   5.371  66.627  1.00  0.00    -0.359 C  
HETATM   34  C   UNL     1     -10.886   6.791  67.037  1.00  0.00    -0.453 C  
ENDBRANCH  30  32
ENDBRANCH  28  30
ENDBRANCH  26  28
ENDBRANCH  21  26
ENDBRANCH  18  19
ENDBRANCH  11  18
ENDBRANCH   2   3
TORSDOF 8
ENDMDL
MODEL      156
REMARK 921   NORMALIZED FREE ENERGY PREDICTED BY IDOCK:   -4.26 KCAL/MOL
REMARK 922        TOTAL FREE ENERGY PREDICTED BY IDOCK:   -7.78 KCAL/MOL
REMARK 923 INTER-LIGAND FREE ENERGY PREDICTED BY IDOCK:   -6.84 KCAL/MOL
REMARK 924 INTRA-LIGAND FREE ENERGY PREDICTED BY IDOCK:   -0.94 KCAL/MOL
REMARK 927      BINDING AFFINITY PREDICTED BY RF-SCORE:    0.00 PKD
ROOT
HETATM    1  C   UNL     1     -10.369  16.081  65.754  1.00  0.00    -0.378 C  
HETATM    2  O   UNL     1     -11.184  14.922  65.591  1.00  0.00    -0.341 OA 
ENDROOT
BRANCH   2   3
HETATM    3  C   UNL     1     -10.548  13.722  65.771  1.00  0.00    -0.293 A  
HETATM    4  C   UNL     1     -11.086  12.564  65.191  1.00  0.00    -0.335 A  
HETATM    5  N   UNL     1      -7.779  12.433  67.681  1.00  0.00    -0.139 NA 
HETATM    6  C   UNL     1     -10.467  11.317  65.431  1.00  0.00    -0.326 A  
HETATM    7  C   UNL     1      -8.819  12.395  66.846  1.00  0.00    -0.205 A  
HETATM    8  C   UNL     1      -9.324  11.208  66.269  1.00  0.00    -0.216 A  
HETATM    9  C   UNL     1      -7.245  11.269  68.062  1.00  0.00    -0.079 A  
HETATM   10  C   UNL     1      -9.427  13.608  66.593  1.00  0.00    -0.285 A  
HETATM   11  C   UNL     1      -8.661   9.994  66.616  1.00  0.00    -0.125 A  
HETATM   12  C   UNL     1      -7.683  10.048  67.602  1.00  0.00    -0.091 A  
BRANCH   4  13
HETATM   13  C   UNL     1     -12.264  12.658  64.279  1.00  0.00    -0.445 C  
HETATM   14  H2  UNL     1     -11.224  13.821  62.889  1.00  0.00     0.000 HD 
HETATM   15  H1  UNL     1     -12.914  13.435  62.497  1.00  0.00     0.000 HD 
HETATM   16  O   UNL     1     -13.345  12.142  64.530  1.00  0.00    -0.691 OA 
HETATM   17  N   UNL     1     -12.110  13.372  63.120  1.00  0.00    -0.329 N  
ENDBRANCH   4  13
BRANCH  11  18
HETATM   18  O   UNL     1      -9.132   8.826  66.042  1.00  0.00    -0.185 OA 
BRANCH  18  19
HETATM   19  C   UNL     1      -9.313   7.642  66.736  1.00  0.00    -0.172 A  
HETATM   20  C   UNL     1     -10.437   7.599  67.571  1.00  0.00    -0.336 A  
HETATM   21  C   UNL     1      -9.713   5.496  68.574  1.00  0.00    -0.134 A  
HETATM   22  C   UNL     1     -10.642   6.534  68.472  1.00  0.00    -0.291 A  
HETATM   23  C   UNL     1      -8.604   5.532  67.727  1.00  0.00    -0.108 A  
HETATM   24 CL   UNL     1      -7.388   4.293  67.790  1.00  0.00    -0.068 Cl 
HETATM   25  C   UNL     1      -8.415   6.581  66.822  1.00  0.00    -0.113 A  
BRANCH  21  26
HETATM   26  N   UNL     1      -9.797   4.441  69.510  1.00  0.00    -0.212 N  
HETATM   27  H   UNL     1     -10.190   3.563  69.171  1.00  0.00     0.000 HD 
BRANCH  26  28
HETATM   28  C   UNL     1      -9.409   4.468  70.821  1.00  0.00    -0.151 C  
HETATM   29  O   UNL     1      -8.497   5.152  71.274  1.00  0.00    -0.118 OA 
BRANCH  28  30
HETATM   30  N   UNL     1     -10.157   3.628  71.618  1.00  0.00    -0.119 N  
HETATM   31  H   UNL     1     -11.000   3.192  71.244  1.00  0.00     0.000 HD 
BRANCH  30  32
HETATM   32  C   UNL     1      -9.760   3.365  72.964  1.00  0.00    -0.123 C  
HETATM   33  C   UNL     1     -10.705   3.452  74.126  1.00  0.00    -0.255 C  
HETATM   34  C   UNL     1     -10.250   2.111  73.636  1.00  0.00    -0.177 C  
ENDBRANCH  30  32
ENDBRANCH  28  30
ENDBRANCH  26  28
ENDBRANCH  21  26
ENDBRANCH  18  19
ENDBRANCH  11  18
ENDBRANCH   2   3
TORSDOF 8
ENDMDL
MODEL      157
REMARK 921   NORMALIZED FREE ENERGY PREDICTED BY IDOCK:   -4.26 KCAL/MOL
REMARK 922        TOTAL FREE ENERGY PREDICTED BY IDOCK:   -7.78 KCAL/MOL
REMARK 923 INTER-LIGAND FREE ENERGY PREDICTED BY IDOCK:   -7.21 KCAL/MOL
REMARK 924 INTRA-LIGAND FREE ENERGY PREDICTED BY IDOCK:   -0.58 KCAL/MOL
REMARK 927      BINDING AFFINITY PREDICTED BY RF-SCORE:    0.00 PKD
ROOT
HETATM    1  C   UNL     1      -6.640  15.333  69.914  1.00  0.00    -0.159 C  
HETATM    2  O   UNL     1      -6.513  15.108  68.512  1.00  0.00    -0.088 OA 
ENDROOT
BRANCH   2   3
HETATM    3  C   UNL     1      -7.532  14.398  67.932  1.00  0.00    -0.152 A  
HETATM    4  C   UNL     1      -7.303  13.078  67.518  1.00  0.00    -0.154 A  
HETATM    5  N   UNL     1     -10.890  15.013  66.783  1.00  0.00    -0.314 NA 
HETATM    6  C   UNL     1      -8.333  12.369  66.860  1.00  0.00    -0.117 A  
HETATM    7  C   UNL     1      -9.778  14.312  67.008  1.00  0.00    -0.253 A  
HETATM    8  C   UNL     1      -9.589  12.975  66.588  1.00  0.00    -0.259 A  
HETATM    9  C   UNL     1     -11.843  14.446  66.037  1.00  0.00    -0.372 A  
HETATM   10  C   UNL     1      -8.767  14.988  67.660  1.00  0.00    -0.182 A  
HETATM   11  C   UNL     1     -10.671  12.367  65.885  1.00  0.00    -0.266 A  
HETATM   12  C   UNL     1     -11.751  13.168  65.534  1.00  0.00    -0.393 A  
BRANCH   4  13
HETATM   13  C   UNL     1      -6.004  12.409  67.825  1.00  0.00    -0.111 C  
HETATM   14  H2  UNL     1      -5.661  11.932  65.819  1.00  0.00     0.000 HD 
HETATM   15  H1  UNL     1      -4.420  11.418  66.983  1.00  0.00     0.000 HD 
HETATM   16  O   UNL     1      -5.555  12.311  68.959  1.00  0.00    -0.061 OA 
HETATM   17  N   UNL     1      -5.307  11.875  66.774  1.00  0.00    -0.097 N  
ENDBRANCH   4  13
BRANCH  11  18
HETATM   18  O   UNL     1     -10.508  11.052  65.485  1.00  0.00    -0.262 OA 
BRANCH  18  19
HETATM   19  C   UNL     1     -10.484   9.975  66.356  1.00  0.00    -0.129 A  
HETATM   20  C   UNL     1     -11.006  10.223  67.632  1.00  0.00    -0.356 A  
HETATM   21  C   UNL     1     -10.203   8.075  68.466  1.00  0.00    -0.207 A  
HETATM   22  C   UNL     1     -10.878   9.281  68.673  1.00  0.00    -0.120 A  
HETATM   23  C   UNL     1      -9.701   7.824  67.189  1.00  0.00    -0.186 A  
HETATM   24 CL   UNL     1      -8.836   6.359  66.838  1.00  0.00    -0.117 Cl 
HETATM   25  C   UNL     1      -9.848   8.754  66.155  1.00  0.00    -0.297 A  
BRANCH  21  26
HETATM   26  N   UNL     1      -9.953   7.119  69.476  1.00  0.00    -0.162 N  
HETATM   27  H   UNL     1      -9.008   7.102  69.861  1.00  0.00     0.000 HD 
BRANCH  26  28
HETATM   28  C   UNL     1     -10.839   6.215  69.994  1.00  0.00    -0.341 C  
HETATM   29  O   UNL     1     -10.570   5.058  70.298  1.00  0.00    -0.229 OA 
BRANCH  28  30
HETATM   30  N   UNL     1     -12.106   6.735  70.148  1.00  0.00    -0.633 N  
HETATM   31  H   UNL     1     -12.763   6.710  69.368  1.00  0.00     0.000 HD 
BRANCH  30  32
HETATM   32  C   UNL     1     -12.505   7.309  71.392  1.00  0.00    -0.383 C  
HETATM   33  C   UNL     1     -13.160   8.655  71.499  1.00  0.00    -0.339 C  
HETATM   34  C   UNL     1     -13.973   7.413  71.710  1.00  0.00    -0.469 C  
ENDBRANCH  30  32
ENDBRANCH  28  30
ENDBRANCH  26  28
ENDBRANCH  21  26
ENDBRANCH  18  19
ENDBRANCH  11  18
ENDBRANCH   2   3
TORSDOF 8
ENDMDL
MODEL      158
REMARK 921   NORMALIZED FREE ENERGY PREDICTED BY IDOCK:   -4.23 KCAL/MOL
REMARK 922        TOTAL FREE ENERGY PREDICTED BY IDOCK:   -7.75 KCAL/MOL
REMARK 923 INTER-LIGAND FREE ENERGY PREDICTED BY IDOCK:   -7.54 KCAL/MOL
REMARK 924 INTRA-LIGAND FREE ENERGY PREDICTED BY IDOCK:   -0.21 KCAL/MOL
REMARK 927      BINDING AFFINITY PREDICTED BY RF-SCORE:    0.00 PKD
ROOT
HETATM    1  C   UNL     1      -9.363   2.797  70.971  1.00  0.00    -0.147 C  
HETATM    2  O   UNL     1      -9.113   3.929  71.802  1.00  0.00    -0.110 OA 
ENDROOT
BRANCH   2   3
HETATM    3  C   UNL     1      -9.364   5.149  71.232  1.00  0.00    -0.148 A  
HETATM    4  C   UNL     1     -10.289   6.013  71.836  1.00  0.00    -0.251 A  
HETATM    5  N   UNL     1      -8.496   6.909  68.212  1.00  0.00    -0.125 NA 
HETATM    6  C   UNL     1     -10.598   7.243  71.213  1.00  0.00    -0.236 A  
HETATM    7  C   UNL     1      -9.091   6.708  69.388  1.00  0.00    -0.143 A  
HETATM    8  C   UNL     1     -10.008   7.611  69.973  1.00  0.00    -0.190 A  
HETATM    9  C   UNL     1      -8.860   7.984  67.506  1.00  0.00    -0.128 A  
HETATM   10  C   UNL     1      -8.790   5.516  70.014  1.00  0.00    -0.139 A  
HETATM   11  C   UNL     1     -10.292   8.801  69.238  1.00  0.00    -0.214 A  
HETATM   12  C   UNL     1      -9.777   8.909  67.952  1.00  0.00    -0.190 A  
BRANCH   4  13
HETATM   13  C   UNL     1     -10.894   5.664  73.155  1.00  0.00    -0.281 C  
HETATM   14  H2  UNL     1      -9.772   7.108  74.166  1.00  0.00     0.000 HD 
HETATM   15  H1  UNL     1     -10.886   6.133  75.150  1.00  0.00     0.000 HD 
HETATM   16  O   UNL     1     -11.727   4.778  73.294  1.00  0.00    -0.312 OA 
HETATM   17  N   UNL     1     -10.472   6.371  74.250  1.00  0.00    -0.281 N  
ENDBRANCH   4  13
BRANCH  11  18
HETATM   18  O   UNL     1     -11.173   9.703  69.808  1.00  0.00    -0.233 OA 
BRANCH  18  19
HETATM   19  C   UNL     1     -11.569  10.884  69.204  1.00  0.00    -0.319 A  
HETATM   20  C   UNL     1     -11.563  10.875  67.802  1.00  0.00    -0.231 A  
HETATM   21  C   UNL     1     -11.950  13.281  67.703  1.00  0.00    -0.322 A  
HETATM   22  C   UNL     1     -11.761  12.055  67.059  1.00  0.00    -0.341 A  
HETATM   23  C   UNL     1     -11.976  13.284  69.098  1.00  0.00    -0.296 A  
HETATM   24 CL   UNL     1     -12.192  14.761  69.987  1.00  0.00    -0.373 Cl 
HETATM   25  C   UNL     1     -11.797  12.106  69.830  1.00  0.00    -0.392 A  
BRANCH  21  26
HETATM   26  N   UNL     1     -12.068  14.521  67.035  1.00  0.00    -0.505 N  
HETATM   27  H   UNL     1     -12.923  15.050  67.208  1.00  0.00     0.000 HD 
BRANCH  26  28
HETATM   28  C   UNL     1     -11.161  15.089  66.184  1.00  0.00    -0.329 C  
HETATM   29  O   UNL     1     -10.840  14.639  65.089  1.00  0.00    -0.349 OA 
BRANCH  28  30
HETATM   30  N   UNL     1     -10.617  16.254  66.681  1.00  0.00    -0.287 N  
HETATM   31  H   UNL     1     -11.164  17.115  66.669  1.00  0.00     0.000 HD 
BRANCH  30  32
HETATM   32  C   UNL     1      -9.293  16.264  67.215  1.00  0.00    -0.224 C  
HETATM   33  C   UNL     1      -8.941  16.925  68.515  1.00  0.00    -0.254 C  
HETATM   34  C   UNL     1      -8.990  15.429  68.429  1.00  0.00    -0.189 C  
ENDBRANCH  30  32
ENDBRANCH  28  30
ENDBRANCH  26  28
ENDBRANCH  21  26
ENDBRANCH  18  19
ENDBRANCH  11  18
ENDBRANCH   2   3
TORSDOF 8
ENDMDL
MODEL      159
REMARK 921   NORMALIZED FREE ENERGY PREDICTED BY IDOCK:   -4.22 KCAL/MOL
REMARK 922        TOTAL FREE ENERGY PREDICTED BY IDOCK:   -7.73 KCAL/MOL
REMARK 923 INTER-LIGAND FREE ENERGY PREDICTED BY IDOCK:   -6.77 KCAL/MOL
REMARK 924 INTRA-LIGAND FREE ENERGY PREDICTED BY IDOCK:   -0.96 KCAL/MOL
REMARK 927      BINDING AFFINITY PREDICTED BY RF-SCORE:    0.00 PKD
ROOT
HETATM    1  C   UNL     1     -10.239  20.047  66.857  1.00  0.00    -0.462 C  
HETATM    2  O   UNL     1      -9.196  19.280  67.455  1.00  0.00    -0.293 OA 
ENDROOT
BRANCH   2   3
HETATM    3  C   UNL     1      -9.385  17.923  67.457  1.00  0.00    -0.253 A  
HETATM    4  C   UNL     1      -8.455  17.097  66.811  1.00  0.00    -0.264 A  
HETATM    5  N   UNL     1     -11.927  15.589  68.490  1.00  0.00    -0.256 NA 
HETATM    6  C   UNL     1      -8.685  15.704  66.756  1.00  0.00    -0.306 A  
HETATM    7  C   UNL     1     -10.775  15.991  67.953  1.00  0.00    -0.316 A  
HETATM    8  C   UNL     1      -9.853  15.125  67.322  1.00  0.00    -0.228 A  
HETATM    9  C   UNL     1     -12.270  14.306  68.339  1.00  0.00    -0.162 A  
HETATM   10  C   UNL     1     -10.531  17.348  68.010  1.00  0.00    -0.383 A  
HETATM   11  C   UNL     1     -10.204  13.744  67.273  1.00  0.00    -0.253 A  
HETATM   12  C   UNL     1     -11.474  13.380  67.702  1.00  0.00    -0.353 A  
BRANCH   4  13
HETATM   13  C   UNL     1      -7.203  17.677  66.240  1.00  0.00    -0.307 C  
HETATM   14  H2  UNL     1      -6.023  16.910  67.784  1.00  0.00     0.000 HD 
HETATM   15  H1  UNL     1      -5.182  17.849  66.531  1.00  0.00     0.000 HD 
HETATM   16  O   UNL     1      -7.184  18.344  65.214  1.00  0.00    -0.504 OA 
HETATM   17  N   UNL     1      -6.036  17.452  66.921  1.00  0.00    -0.159 N  
ENDBRANCH   4  13
BRANCH  11  18
HETATM   18  O   UNL     1      -9.301  12.881  66.675  1.00  0.00    -0.240 OA 
BRANCH  18  19
HETATM   19  C   UNL     1      -8.991  11.624  67.166  1.00  0.00    -0.173 A  
HETATM   20  C   UNL     1      -9.069  10.579  66.236  1.00  0.00    -0.184 A  
HETATM   21  C   UNL     1      -8.798   8.896  67.982  1.00  0.00    -0.133 A  
HETATM   22  C   UNL     1      -8.963   9.231  66.635  1.00  0.00    -0.165 A  
HETATM   23  C   UNL     1      -8.701   9.940  68.903  1.00  0.00    -0.140 A  
HETATM   24 CL   UNL     1      -8.507   9.622  70.599  1.00  0.00    -0.160 Cl 
HETATM   25  C   UNL     1      -8.788  11.276  68.498  1.00  0.00    -0.159 A  
BRANCH  21  26
HETATM   26  N   UNL     1      -8.771   7.573  68.475  1.00  0.00    -0.128 N  
HETATM   27  H   UNL     1      -9.676   7.130  68.637  1.00  0.00     0.000 HD 
BRANCH  26  28
HETATM   28  C   UNL     1      -7.665   6.819  68.760  1.00  0.00    -0.110 C  
HETATM   29  O   UNL     1      -6.546   7.266  68.987  1.00  0.00    -0.035 OA 
BRANCH  28  30
HETATM   30  N   UNL     1      -7.927   5.466  68.767  1.00  0.00    -0.087 N  
HETATM   31  H   UNL     1      -7.183   4.806  68.996  1.00  0.00     0.000 HD 
BRANCH  30  32
HETATM   32  C   UNL     1      -9.234   4.981  68.458  1.00  0.00    -0.120 C  
HETATM   33  C   UNL     1      -9.553   4.246  67.190  1.00  0.00    -0.224 C  
HETATM   34  C   UNL     1      -9.486   3.497  68.487  1.00  0.00    -0.207 C  
ENDBRANCH  30  32
ENDBRANCH  28  30
ENDBRANCH  26  28
ENDBRANCH  21  26
ENDBRANCH  18  19
ENDBRANCH  11  18
ENDBRANCH   2   3
TORSDOF 8
ENDMDL
MODEL      160
REMARK 921   NORMALIZED FREE ENERGY PREDICTED BY IDOCK:   -4.19 KCAL/MOL
REMARK 922        TOTAL FREE ENERGY PREDICTED BY IDOCK:   -7.68 KCAL/MOL
REMARK 923 INTER-LIGAND FREE ENERGY PREDICTED BY IDOCK:   -7.19 KCAL/MOL
REMARK 924 INTRA-LIGAND FREE ENERGY PREDICTED BY IDOCK:   -0.49 KCAL/MOL
REMARK 927      BINDING AFFINITY PREDICTED BY RF-SCORE:    0.00 PKD
ROOT
HETATM    1  C   UNL     1      -6.702   7.158  63.559  1.00  0.00    -0.052 C  
HETATM    2  O   UNL     1      -7.705   8.034  64.071  1.00  0.00    -0.122 OA 
ENDROOT
BRANCH   2   3
HETATM    3  C   UNL     1      -8.158   7.742  65.331  1.00  0.00    -0.131 A  
HETATM    4  C   UNL     1      -8.158   8.744  66.311  1.00  0.00    -0.107 A  
HETATM    5  N   UNL     1      -9.218   4.834  67.174  1.00  0.00    -0.122 NA 
HETATM    6  C   UNL     1      -8.562   8.426  67.627  1.00  0.00    -0.130 A  
HETATM    7  C   UNL     1      -8.921   6.118  66.971  1.00  0.00    -0.114 A  
HETATM    8  C   UNL     1      -8.946   7.104  67.983  1.00  0.00    -0.127 A  
HETATM    9  C   UNL     1      -9.464   4.444  68.428  1.00  0.00    -0.154 A  
HETATM   10  C   UNL     1      -8.535   6.446  65.687  1.00  0.00    -0.147 A  
HETATM   11  C   UNL     1      -9.318   6.670  69.290  1.00  0.00    -0.142 A  
HETATM   12  C   UNL     1      -9.472   5.305  69.502  1.00  0.00    -0.192 A  
BRANCH   4  13
HETATM   13  C   UNL     1      -7.793  10.146  65.953  1.00  0.00    -0.132 C  
HETATM   14  H2  UNL     1      -9.786  10.696  65.653  1.00  0.00     0.000 HD 
HETATM   15  H1  UNL     1      -8.565  11.962  65.397  1.00  0.00     0.000 HD 
HETATM   16  O   UNL     1      -6.636  10.546  65.917  1.00  0.00    -0.115 OA 
HETATM   17  N   UNL     1      -8.814  11.004  65.642  1.00  0.00    -0.190 N  
ENDBRANCH   4  13
BRANCH  11  18
HETATM   18  O   UNL     1      -9.367   7.629  70.287  1.00  0.00    -0.157 OA 
BRANCH  18  19
HETATM   19  C   UNL     1     -10.435   8.486  70.485  1.00  0.00    -0.204 A  
HETATM   20  C   UNL     1     -10.277   9.776  69.960  1.00  0.00    -0.308 A  
HETATM   21  C   UNL     1     -12.292  10.569  71.083  1.00  0.00    -0.405 A  
HETATM   22  C   UNL     1     -11.198  10.803  70.245  1.00  0.00    -0.326 A  
HETATM   23  C   UNL     1     -12.457   9.279  71.589  1.00  0.00    -0.368 A  
HETATM   24 CL   UNL     1     -13.779   8.895  72.648  1.00  0.00    -0.454 Cl 
HETATM   25  C   UNL     1     -11.550   8.259  71.287  1.00  0.00    -0.318 A  
BRANCH  21  26
HETATM   26  N   UNL     1     -13.210  11.563  71.490  1.00  0.00    -0.313 N  
HETATM   27  H   UNL     1     -14.197  11.306  71.467  1.00  0.00     0.000 HD 
BRANCH  26  28
HETATM   28  C   UNL     1     -12.920  12.831  71.912  1.00  0.00    -0.295 C  
HETATM   29  O   UNL     1     -13.374  13.361  72.921  1.00  0.00    -0.534 OA 
BRANCH  28  30
HETATM   30  N   UNL     1     -12.044  13.487  71.074  1.00  0.00    -0.460 N  
HETATM   31  H   UNL     1     -11.039  13.423  71.240  1.00  0.00     0.000 HD 
BRANCH  30  32
HETATM   32  C   UNL     1     -12.533  14.256  69.976  1.00  0.00    -0.300 C  
HETATM   33  C   UNL     1     -11.827  15.471  69.450  1.00  0.00    -0.392 C  
HETATM   34  C   UNL     1     -11.801  14.197  68.661  1.00  0.00    -0.383 C  
ENDBRANCH  30  32
ENDBRANCH  28  30
ENDBRANCH  26  28
ENDBRANCH  21  26
ENDBRANCH  18  19
ENDBRANCH  11  18
ENDBRANCH   2   3
TORSDOF 8
ENDMDL
MODEL      161
REMARK 921   NORMALIZED FREE ENERGY PREDICTED BY IDOCK:   -4.19 KCAL/MOL
REMARK 922        TOTAL FREE ENERGY PREDICTED BY IDOCK:   -7.68 KCAL/MOL
REMARK 923 INTER-LIGAND FREE ENERGY PREDICTED BY IDOCK:   -6.56 KCAL/MOL
REMARK 924 INTRA-LIGAND FREE ENERGY PREDICTED BY IDOCK:   -1.12 KCAL/MOL
REMARK 927      BINDING AFFINITY PREDICTED BY RF-SCORE:    0.00 PKD
ROOT
HETATM    1  C   UNL     1     -12.584  12.578  63.245  1.00  0.00    -0.209 C  
HETATM    2  O   UNL     1     -11.195  12.322  63.441  1.00  0.00    -0.438 OA 
ENDROOT
BRANCH   2   3
HETATM    3  C   UNL     1     -10.859  11.768  64.649  1.00  0.00    -0.307 A  
HETATM    4  C   UNL     1      -9.925  10.724  64.690  1.00  0.00    -0.386 A  
HETATM    5  N   UNL     1     -11.933  12.004  68.079  1.00  0.00    -0.521 NA 
HETATM    6  C   UNL     1      -9.629  10.108  65.927  1.00  0.00    -0.274 A  
HETATM    7  C   UNL     1     -11.224  11.556  67.042  1.00  0.00    -0.300 A  
HETATM    8  C   UNL     1     -10.278  10.509  67.126  1.00  0.00    -0.270 A  
HETATM    9  C   UNL     1     -11.805  11.362  69.244  1.00  0.00    -0.349 A  
HETATM   10  C   UNL     1     -11.494  12.156  65.829  1.00  0.00    -0.414 A  
HETATM   11  C   UNL     1     -10.090   9.917  68.411  1.00  0.00    -0.167 A  
HETATM   12  C   UNL     1     -10.949  10.300  69.434  1.00  0.00    -0.289 A  
BRANCH   4  13
HETATM   13  C   UNL     1      -9.204  10.309  63.450  1.00  0.00    -0.292 C  
HETATM   14  H2  UNL     1      -7.335  10.416  64.379  1.00  0.00     0.000 HD 
HETATM   15  H1  UNL     1      -7.348   9.929  62.670  1.00  0.00     0.000 HD 
HETATM   16  O   UNL     1      -9.776  10.069  62.395  1.00  0.00    -0.197 OA 
HETATM   17  N   UNL     1      -7.840  10.213  63.516  1.00  0.00    -0.159 N  
ENDBRANCH   4  13
BRANCH  11  18
HETATM   18  O   UNL     1      -9.152   8.905  68.513  1.00  0.00    -0.137 OA 
BRANCH  18  19
HETATM   19  C   UNL     1      -9.467   7.556  68.515  1.00  0.00    -0.146 A  
HETATM   20  C   UNL     1      -9.074   6.849  69.659  1.00  0.00    -0.143 A  
HETATM   21  C   UNL     1      -9.624   4.709  68.624  1.00  0.00    -0.162 A  
HETATM   22  C   UNL     1      -9.161   5.443  69.719  1.00  0.00    -0.169 A  
HETATM   23  C   UNL     1     -10.032   5.418  67.493  1.00  0.00    -0.166 A  
HETATM   24 CL   UNL     1     -10.610   4.592  66.079  1.00  0.00    -0.319 Cl 
HETATM   25  C   UNL     1      -9.961   6.814  67.446  1.00  0.00    -0.192 A  
BRANCH  21  26
HETATM   26  N   UNL     1      -9.659   3.298  68.570  1.00  0.00    -0.128 N  
HETATM   27  H   UNL     1     -10.571   2.872  68.402  1.00  0.00     0.000 HD 
BRANCH  26  28
HETATM   28  C   UNL     1      -8.604   2.439  68.717  1.00  0.00    -0.074 C  
HETATM   29  O   UNL     1      -8.488   1.610  69.613  1.00  0.00    -0.045 OA 
BRANCH  28  30
HETATM   30  N   UNL     1      -7.648   2.593  67.736  1.00  0.00    -0.056 N  
HETATM   31  H   UNL     1      -6.959   3.342  67.812  1.00  0.00     0.000 HD 
BRANCH  30  32
HETATM   32  C   UNL     1      -7.616   1.713  66.613  1.00  0.00    -0.064 C  
HETATM   33  C   UNL     1      -8.754   1.582  65.644  1.00  0.00    -0.114 C  
HETATM   34  C   UNL     1      -7.504   2.297  65.230  1.00  0.00    -0.070 C  
ENDBRANCH  30  32
ENDBRANCH  28  30
ENDBRANCH  26  28
ENDBRANCH  21  26
ENDBRANCH  18  19
ENDBRANCH  11  18
ENDBRANCH   2   3
TORSDOF 8
ENDMDL
MODEL      162
REMARK 921   NORMALIZED FREE ENERGY PREDICTED BY IDOCK:   -4.16 KCAL/MOL
REMARK 922        TOTAL FREE ENERGY PREDICTED BY IDOCK:   -7.64 KCAL/MOL
REMARK 923 INTER-LIGAND FREE ENERGY PREDICTED BY IDOCK:   -7.10 KCAL/MOL
REMARK 924 INTRA-LIGAND FREE ENERGY PREDICTED BY IDOCK:   -0.54 KCAL/MOL
REMARK 927      BINDING AFFINITY PREDICTED BY RF-SCORE:    0.00 PKD
ROOT
HETATM    1  C   UNL     1      -8.955  10.163  62.369  1.00  0.00    -0.268 C  
HETATM    2  O   UNL     1      -8.900   9.222  63.439  1.00  0.00    -0.212 OA 
ENDROOT
BRANCH   2   3
HETATM    3  C   UNL     1      -9.146   9.731  64.687  1.00  0.00    -0.245 A  
HETATM    4  C   UNL     1      -8.442   9.223  65.788  1.00  0.00    -0.144 A  
HETATM    5  N   UNL     1     -11.463  12.023  66.222  1.00  0.00    -0.395 NA 
HETATM    6  C   UNL     1      -8.742   9.700  67.083  1.00  0.00    -0.137 A  
HETATM    7  C   UNL     1     -10.460  11.146  66.164  1.00  0.00    -0.253 A  
HETATM    8  C   UNL     1      -9.762  10.668  67.296  1.00  0.00    -0.195 A  
HETATM    9  C   UNL     1     -11.891  12.398  67.431  1.00  0.00    -0.289 A  
HETATM   10  C   UNL     1     -10.147  10.679  64.903  1.00  0.00    -0.402 A  
HETATM   11  C   UNL     1     -10.177  11.173  68.564  1.00  0.00    -0.198 A  
HETATM   12  C   UNL     1     -11.320  11.963  68.606  1.00  0.00    -0.331 A  
BRANCH   4  13
HETATM   13  C   UNL     1      -7.343   8.233  65.586  1.00  0.00    -0.072 C  
HETATM   14  H2  UNL     1      -8.525   6.636  66.232  1.00  0.00     0.000 HD 
HETATM   15  H1  UNL     1      -6.860   6.247  65.747  1.00  0.00     0.000 HD 
HETATM   16  O   UNL     1      -6.230   8.544  65.184  1.00  0.00    -0.052 OA 
HETATM   17  N   UNL     1      -7.611   6.924  65.885  1.00  0.00    -0.087 N  
ENDBRANCH   4  13
BRANCH  11  18
HETATM   18  O   UNL     1      -9.490  10.728  69.680  1.00  0.00    -0.025 OA 
BRANCH  18  19
HETATM   19  C   UNL     1     -10.031   9.888  70.638  1.00  0.00    -0.024 A  
HETATM   20  C   UNL     1      -9.126   9.011  71.249  1.00  0.00    -0.302 A  
HETATM   21  C   UNL     1     -10.927   7.785  72.347  1.00  0.00    -0.311 A  
HETATM   22  C   UNL     1      -9.565   7.978  72.102  1.00  0.00    -0.277 A  
HETATM   23  C   UNL     1     -11.825   8.672  71.752  1.00  0.00    -0.337 A  
HETATM   24 CL   UNL     1     -13.538   8.506  71.986  1.00  0.00    -0.397 Cl 
HETATM   25  C   UNL     1     -11.382   9.707  70.922  1.00  0.00    -0.431 A  
BRANCH  21  26
HETATM   26  N   UNL     1     -11.456   6.724  73.115  1.00  0.00    -0.483 N  
HETATM   27  H   UNL     1     -12.473   6.667  73.172  1.00  0.00     0.000 HD 
BRANCH  26  28
HETATM   28  C   UNL     1     -10.753   5.764  73.790  1.00  0.00    -0.217 C  
HETATM   29  O   UNL     1      -9.721   5.958  74.423  1.00  0.00    -0.171 OA 
BRANCH  28  30
HETATM   30  N   UNL     1     -11.326   4.514  73.692  1.00  0.00    -0.265 N  
HETATM   31  H   UNL     1     -12.301   4.380  73.961  1.00  0.00     0.000 HD 
BRANCH  30  32
HETATM   32  C   UNL     1     -10.563   3.405  73.217  1.00  0.00    -0.187 C  
HETATM   33  C   UNL     1      -9.654   2.600  74.098  1.00  0.00    -0.116 C  
HETATM   34  C   UNL     1     -10.956   2.015  73.640  1.00  0.00    -0.278 C  
ENDBRANCH  30  32
ENDBRANCH  28  30
ENDBRANCH  26  28
ENDBRANCH  21  26
ENDBRANCH  18  19
ENDBRANCH  11  18
ENDBRANCH   2   3
TORSDOF 8
ENDMDL
MODEL      163
REMARK 921   NORMALIZED FREE ENERGY PREDICTED BY IDOCK:   -4.15 KCAL/MOL
REMARK 922        TOTAL FREE ENERGY PREDICTED BY IDOCK:   -7.63 KCAL/MOL
REMARK 923 INTER-LIGAND FREE ENERGY PREDICTED BY IDOCK:   -6.21 KCAL/MOL
REMARK 924 INTRA-LIGAND FREE ENERGY PREDICTED BY IDOCK:   -1.42 KCAL/MOL
REMARK 927      BINDING AFFINITY PREDICTED BY RF-SCORE:    0.00 PKD
ROOT
HETATM    1  C   UNL     1      -7.713   3.679  64.132  1.00  0.00    -0.080 C  
HETATM    2  O   UNL     1      -8.658   4.262  65.028  1.00  0.00    -0.117 OA 
ENDROOT
BRANCH   2   3
HETATM    3  C   UNL     1      -8.302   5.476  65.555  1.00  0.00    -0.136 A  
HETATM    4  C   UNL     1      -8.245   5.632  66.947  1.00  0.00    -0.105 A  
HETATM    5  N   UNL     1      -7.652   8.812  64.360  1.00  0.00    -0.110 NA 
HETATM    6  C   UNL     1      -7.943   6.900  67.491  1.00  0.00    -0.112 A  
HETATM    7  C   UNL     1      -7.800   7.835  65.257  1.00  0.00    -0.117 A  
HETATM    8  C   UNL     1      -7.721   8.028  66.655  1.00  0.00    -0.094 A  
HETATM    9  C   UNL     1      -7.512  10.060  64.818  1.00  0.00    -0.143 A  
HETATM   10  C   UNL     1      -8.084   6.588  64.740  1.00  0.00    -0.112 A  
HETATM   11  C   UNL     1      -7.463   9.358  67.104  1.00  0.00    -0.091 A  
HETATM   12  C   UNL     1      -7.466  10.375  66.157  1.00  0.00    -0.131 A  
BRANCH   4  13
HETATM   13  C   UNL     1      -8.440   4.454  67.844  1.00  0.00    -0.098 C  
HETATM   14  H2  UNL     1      -6.398   4.014  67.879  1.00  0.00     0.000 HD 
HETATM   15  H1  UNL     1      -7.458   2.943  68.821  1.00  0.00     0.000 HD 
HETATM   16  O   UNL     1      -9.539   4.098  68.248  1.00  0.00    -0.158 OA 
HETATM   17  N   UNL     1      -7.325   3.747  68.208  1.00  0.00    -0.054 N  
ENDBRANCH   4  13
BRANCH  11  18
HETATM   18  O   UNL     1      -7.363   9.558  68.470  1.00  0.00    -0.077 OA 
BRANCH  18  19
HETATM   19  C   UNL     1      -8.448   9.778  69.301  1.00  0.00    -0.152 A  
HETATM   20  C   UNL     1      -8.437   9.062  70.506  1.00  0.00    -0.226 A  
HETATM   21  C   UNL     1     -10.728   9.727  71.016  1.00  0.00    -0.272 A  
HETATM   22  C   UNL     1      -9.558   9.044  71.360  1.00  0.00    -0.356 A  
HETATM   23  C   UNL     1     -10.729  10.454  69.825  1.00  0.00    -0.278 A  
HETATM   24 CL   UNL     1     -12.141  11.324  69.308  1.00  0.00    -0.394 Cl 
HETATM   25  C   UNL     1      -9.607  10.483  68.991  1.00  0.00    -0.213 A  
BRANCH  21  26
HETATM   26  N   UNL     1     -11.923   9.688  71.769  1.00  0.00    -0.381 N  
HETATM   27  H   UNL     1     -12.180  10.546  72.257  1.00  0.00     0.000 HD 
BRANCH  26  28
HETATM   28  C   UNL     1     -12.772   8.626  71.916  1.00  0.00    -0.366 C  
HETATM   29  O   UNL     1     -13.894   8.546  71.429  1.00  0.00    -0.330 OA 
BRANCH  28  30
HETATM   30  N   UNL     1     -12.238   7.617  72.689  1.00  0.00    -0.566 N  
HETATM   31  H   UNL     1     -11.937   7.814  73.644  1.00  0.00     0.000 HD 
BRANCH  30  32
HETATM   32  C   UNL     1     -12.103   6.297  72.163  1.00  0.00    -0.252 C  
HETATM   33  C   UNL     1     -10.821   5.775  71.583  1.00  0.00    -0.316 C  
HETATM   34  C   UNL     1     -11.285   5.288  72.923  1.00  0.00    -0.375 C  
ENDBRANCH  30  32
ENDBRANCH  28  30
ENDBRANCH  26  28
ENDBRANCH  21  26
ENDBRANCH  18  19
ENDBRANCH  11  18
ENDBRANCH   2   3
TORSDOF 8
ENDMDL
MODEL      164
REMARK 921   NORMALIZED FREE ENERGY PREDICTED BY IDOCK:   -4.14 KCAL/MOL
REMARK 922        TOTAL FREE ENERGY PREDICTED BY IDOCK:   -7.61 KCAL/MOL
REMARK 923 INTER-LIGAND FREE ENERGY PREDICTED BY IDOCK:   -6.49 KCAL/MOL
REMARK 924 INTRA-LIGAND FREE ENERGY PREDICTED BY IDOCK:   -1.12 KCAL/MOL
REMARK 927      BINDING AFFINITY PREDICTED BY RF-SCORE:    0.00 PKD
ROOT
HETATM    1  C   UNL     1      -9.839  19.628  68.369  1.00  0.00    -0.432 C  
HETATM    2  O   UNL     1     -10.347  18.415  68.920  1.00  0.00    -0.332 OA 
ENDROOT
BRANCH   2   3
HETATM    3  C   UNL     1      -9.551  17.312  68.756  1.00  0.00    -0.269 A  
HETATM    4  C   UNL     1      -9.940  16.092  69.327  1.00  0.00    -0.252 A  
HETATM    5  N   UNL     1      -6.305  16.546  67.396  1.00  0.00    -0.152 NA 
HETATM    6  C   UNL     1      -9.088  14.971  69.215  1.00  0.00    -0.157 A  
HETATM    7  C   UNL     1      -7.467  16.311  68.005  1.00  0.00    -0.136 A  
HETATM    8  C   UNL     1      -7.832  15.061  68.556  1.00  0.00    -0.137 A  
HETATM    9  C   UNL     1      -5.396  15.566  67.389  1.00  0.00     0.130 A  
HETATM   10  C   UNL     1      -8.316  17.394  68.112  1.00  0.00    -0.240 A  
HETATM   11  C   UNL     1      -6.878  14.007  68.436  1.00  0.00    -0.099 A  
HETATM   12  C   UNL     1      -5.620  14.322  67.935  1.00  0.00    -0.101 A  
BRANCH   4  13
HETATM   13  C   UNL     1     -11.270  15.963  69.993  1.00  0.00    -0.353 C  
HETATM   14  H2  UNL     1     -12.045  14.791  68.446  1.00  0.00     0.000 HD 
HETATM   15  H1  UNL     1     -13.139  15.143  69.802  1.00  0.00     0.000 HD 
HETATM   16  O   UNL     1     -11.533  16.488  71.067  1.00  0.00    -0.328 OA 
HETATM   17  N   UNL     1     -12.231  15.231  69.347  1.00  0.00    -0.257 N  
ENDBRANCH   4  13
BRANCH  11  18
HETATM   18  O   UNL     1      -7.229  12.772  68.953  1.00  0.00    -0.097 OA 
BRANCH  18  19
HETATM   19  C   UNL     1      -8.131  11.910  68.353  1.00  0.00    -0.155 A  
HETATM   20  C   UNL     1      -8.604  10.871  69.167  1.00  0.00    -0.060 A  
HETATM   21  C   UNL     1      -9.679   9.768  67.276  1.00  0.00    -0.169 A  
HETATM   22  C   UNL     1      -9.377   9.818  68.639  1.00  0.00    -0.147 A  
HETATM   23  C   UNL     1      -9.224  10.813  66.471  1.00  0.00    -0.168 A  
HETATM   24 CL   UNL     1      -9.538  10.832  64.764  1.00  0.00    -0.285 Cl 
HETATM   25  C   UNL     1      -8.472  11.865  67.005  1.00  0.00    -0.177 A  
BRANCH  21  26
HETATM   26  N   UNL     1     -10.371   8.706  66.653  1.00  0.00    -0.275 N  
HETATM   27  H   UNL     1     -11.061   8.965  65.947  1.00  0.00     0.000 HD 
BRANCH  26  28
HETATM   28  C   UNL     1     -10.218   7.367  66.891  1.00  0.00    -0.276 C  
HETATM   29  O   UNL     1      -9.228   6.706  66.598  1.00  0.00    -0.148 OA 
BRANCH  28  30
HETATM   30  N   UNL     1     -11.313   6.806  67.512  1.00  0.00    -0.707 N  
HETATM   31  H   UNL     1     -12.238   6.901  67.093  1.00  0.00     0.000 HD 
BRANCH  30  32
HETATM   32  C   UNL     1     -11.161   6.092  68.739  1.00  0.00    -0.132 C  
HETATM   33  C   UNL     1     -10.140   6.457  69.776  1.00  0.00    -0.211 C  
HETATM   34  C   UNL     1     -11.590   6.749  70.023  1.00  0.00    -0.367 C  
ENDBRANCH  30  32
ENDBRANCH  28  30
ENDBRANCH  26  28
ENDBRANCH  21  26
ENDBRANCH  18  19
ENDBRANCH  11  18
ENDBRANCH   2   3
TORSDOF 8
ENDMDL
MODEL      165
REMARK 921   NORMALIZED FREE ENERGY PREDICTED BY IDOCK:   -4.14 KCAL/MOL
REMARK 922        TOTAL FREE ENERGY PREDICTED BY IDOCK:   -7.61 KCAL/MOL
REMARK 923 INTER-LIGAND FREE ENERGY PREDICTED BY IDOCK:   -6.34 KCAL/MOL
REMARK 924 INTRA-LIGAND FREE ENERGY PREDICTED BY IDOCK:   -1.27 KCAL/MOL
REMARK 927      BINDING AFFINITY PREDICTED BY RF-SCORE:    0.00 PKD
ROOT
HETATM    1  C   UNL     1     -11.832  14.000  68.734  1.00  0.00    -0.361 C  
HETATM    2  O   UNL     1     -11.540  12.723  68.169  1.00  0.00    -0.292 OA 
ENDROOT
BRANCH   2   3
HETATM    3  C   UNL     1     -11.287  11.722  69.070  1.00  0.00    -0.278 A  
HETATM    4  C   UNL     1     -10.080  11.013  68.989  1.00  0.00    -0.197 A  
HETATM    5  N   UNL     1     -13.047   9.986  71.691  1.00  0.00    -0.414 NA 
HETATM    6  C   UNL     1      -9.847   9.938  69.875  1.00  0.00    -0.285 A  
HETATM    7  C   UNL     1     -12.033  10.272  70.873  1.00  0.00    -0.375 A  
HETATM    8  C   UNL     1     -10.822   9.543  70.831  1.00  0.00    -0.407 A  
HETATM    9  C   UNL     1     -12.945   8.890  72.448  1.00  0.00    -0.404 A  
HETATM   10  C   UNL     1     -12.241  11.328  70.009  1.00  0.00    -0.389 A  
HETATM   11  C   UNL     1     -10.707   8.442  71.730  1.00  0.00    -0.285 A  
HETATM   12  C   UNL     1     -11.834   8.077  72.458  1.00  0.00    -0.419 A  
BRANCH   4  13
HETATM   13  C   UNL     1      -9.026  11.432  68.018  1.00  0.00    -0.163 C  
HETATM   14  H2  UNL     1      -7.902  12.391  69.496  1.00  0.00     0.000 HD 
HETATM   15  H1  UNL     1      -7.248  12.436  67.844  1.00  0.00     0.000 HD 
HETATM   16  O   UNL     1      -9.078  11.171  66.824  1.00  0.00    -0.159 OA 
HETATM   17  N   UNL     1      -7.968  12.151  68.507  1.00  0.00    -0.141 N  
ENDBRANCH   4  13
BRANCH  11  18
HETATM   18  O   UNL     1      -9.520   7.731  71.715  1.00  0.00    -0.145 OA 
BRANCH  18  19
HETATM   19  C   UNL     1      -9.337   6.546  71.022  1.00  0.00    -0.160 A  
HETATM   20  C   UNL     1     -10.122   6.394  69.871  1.00  0.00    -0.206 A  
HETATM   21  C   UNL     1      -9.463   4.058  69.631  1.00  0.00    -0.192 A  
HETATM   22  C   UNL     1     -10.177   5.169  69.176  1.00  0.00    -0.259 A  
HETATM   23  C   UNL     1      -8.667   4.217  70.766  1.00  0.00    -0.087 A  
HETATM   24 CL   UNL     1      -7.753   2.890  71.414  1.00  0.00    -0.047 Cl 
HETATM   25  C   UNL     1      -8.602   5.441  71.441  1.00  0.00    -0.131 A  
BRANCH  21  26
HETATM   26  N   UNL     1      -9.532   2.773  69.046  1.00  0.00    -0.143 N  
HETATM   27  H   UNL     1     -10.132   2.093  69.514  1.00  0.00     0.000 HD 
BRANCH  26  28
HETATM   28  C   UNL     1      -8.884   2.342  67.921  1.00  0.00    -0.129 C  
HETATM   29  O   UNL     1      -9.195   2.634  66.771  1.00  0.00    -0.145 OA 
BRANCH  28  30
HETATM   30  N   UNL     1      -7.813   1.521  68.202  1.00  0.00    -0.056 N  
HETATM   31  H   UNL     1      -7.970   0.618  68.651  1.00  0.00     0.000 HD 
BRANCH  30  32
HETATM   32  C   UNL     1      -6.485   1.925  67.870  1.00  0.00    -0.028 C  
HETATM   33  C   UNL     1      -5.913   3.255  68.263  1.00  0.00    -0.024 C  
HETATM   34  C   UNL     1      -5.454   2.012  68.963  1.00  0.00    -0.013 C  
ENDBRANCH  30  32
ENDBRANCH  28  30
ENDBRANCH  26  28
ENDBRANCH  21  26
ENDBRANCH  18  19
ENDBRANCH  11  18
ENDBRANCH   2   3
TORSDOF 8
ENDMDL
MODEL      166
REMARK 921   NORMALIZED FREE ENERGY PREDICTED BY IDOCK:   -4.13 KCAL/MOL
REMARK 922        TOTAL FREE ENERGY PREDICTED BY IDOCK:   -7.60 KCAL/MOL
REMARK 923 INTER-LIGAND FREE ENERGY PREDICTED BY IDOCK:   -6.75 KCAL/MOL
REMARK 924 INTRA-LIGAND FREE ENERGY PREDICTED BY IDOCK:   -0.86 KCAL/MOL
REMARK 927      BINDING AFFINITY PREDICTED BY RF-SCORE:    0.00 PKD
ROOT
HETATM    1  C   UNL     1     -10.505  19.752  66.454  1.00  0.00    -0.507 C  
HETATM    2  O   UNL     1      -9.321  18.972  66.296  1.00  0.00    -0.331 OA 
ENDROOT
BRANCH   2   3
HETATM    3  C   UNL     1      -9.497  17.614  66.338  1.00  0.00    -0.259 A  
HETATM    4  C   UNL     1      -8.601  16.827  67.075  1.00  0.00    -0.233 A  
HETATM    5  N   UNL     1     -11.609  15.151  64.774  1.00  0.00    -0.395 NA 
HETATM    6  C   UNL     1      -8.743  15.421  67.064  1.00  0.00    -0.256 A  
HETATM    7  C   UNL     1     -10.637  15.613  65.561  1.00  0.00    -0.404 A  
HETATM    8  C   UNL     1      -9.761  14.787  66.302  1.00  0.00    -0.326 A  
HETATM    9  C   UNL     1     -11.698  13.828  64.607  1.00  0.00    -0.395 A  
HETATM   10  C   UNL     1     -10.493  16.985  65.590  1.00  0.00    -0.229 A  
HETATM   11  C   UNL     1      -9.954  13.379  66.181  1.00  0.00    -0.294 A  
HETATM   12  C   UNL     1     -10.872  12.927  65.240  1.00  0.00    -0.316 A  
BRANCH   4  13
HETATM   13  C   UNL     1      -7.546  17.472  67.911  1.00  0.00    -0.204 C  
HETATM   14  H2  UNL     1      -6.057  17.112  66.490  1.00  0.00     0.000 HD 
HETATM   15  H1  UNL     1      -5.554  17.949  67.975  1.00  0.00     0.000 HD 
HETATM   16  O   UNL     1      -7.769  17.947  69.017  1.00  0.00    -0.228 OA 
HETATM   17  N   UNL     1      -6.274  17.509  67.404  1.00  0.00    -0.133 N  
ENDBRANCH   4  13
BRANCH  11  18
HETATM   18  O   UNL     1      -9.117  12.558  66.917  1.00  0.00    -0.202 OA 
BRANCH  18  19
HETATM   19  C   UNL     1      -9.038  11.186  66.751  1.00  0.00    -0.166 A  
HETATM   20  C   UNL     1      -8.375  10.757  65.594  1.00  0.00    -0.144 A  
HETATM   21  C   UNL     1      -9.073   8.446  65.953  1.00  0.00    -0.171 A  
HETATM   22  C   UNL     1      -8.382   9.402  65.203  1.00  0.00    -0.151 A  
HETATM   23  C   UNL     1      -9.716   8.874  67.115  1.00  0.00    -0.184 A  
HETATM   24 CL   UNL     1     -10.610   7.762  68.105  1.00  0.00    -0.218 Cl 
HETATM   25  C   UNL     1      -9.690  10.216  67.508  1.00  0.00    -0.190 A  
BRANCH  21  26
HETATM   26  N   UNL     1      -9.203   7.089  65.585  1.00  0.00    -0.374 N  
HETATM   27  H   UNL     1     -10.063   6.830  65.101  1.00  0.00     0.000 HD 
BRANCH  26  28
HETATM   28  C   UNL     1      -8.302   6.083  65.805  1.00  0.00    -0.142 C  
HETATM   29  O   UNL     1      -8.535   5.049  66.422  1.00  0.00    -0.111 OA 
BRANCH  28  30
HETATM   30  N   UNL     1      -7.065   6.343  65.256  1.00  0.00    -0.059 N  
HETATM   31  H   UNL     1      -6.298   6.649  65.854  1.00  0.00     0.000 HD 
BRANCH  30  32
HETATM   32  C   UNL     1      -6.850   6.187  63.853  1.00  0.00    -0.038 C  
HETATM   33  C   UNL     1      -6.109   5.023  63.265  1.00  0.00    -0.021 C  
HETATM   34  C   UNL     1      -7.598   5.109  63.116  1.00  0.00    -0.066 C  
ENDBRANCH  30  32
ENDBRANCH  28  30
ENDBRANCH  26  28
ENDBRANCH  21  26
ENDBRANCH  18  19
ENDBRANCH  11  18
ENDBRANCH   2   3
TORSDOF 8
ENDMDL
MODEL      167
REMARK 921   NORMALIZED FREE ENERGY PREDICTED BY IDOCK:   -4.12 KCAL/MOL
REMARK 922        TOTAL FREE ENERGY PREDICTED BY IDOCK:   -7.59 KCAL/MOL
REMARK 923 INTER-LIGAND FREE ENERGY PREDICTED BY IDOCK:   -6.52 KCAL/MOL
REMARK 924 INTRA-LIGAND FREE ENERGY PREDICTED BY IDOCK:   -1.07 KCAL/MOL
REMARK 927      BINDING AFFINITY PREDICTED BY RF-SCORE:    0.00 PKD
ROOT
HETATM    1  C   UNL     1     -10.681   6.916  68.381  1.00  0.00    -0.211 C  
HETATM    2  O   UNL     1     -10.387   7.954  69.314  1.00  0.00    -0.213 OA 
ENDROOT
BRANCH   2   3
HETATM    3  C   UNL     1     -10.177   9.195  68.773  1.00  0.00    -0.210 A  
HETATM    4  C   UNL     1      -8.921   9.802  68.913  1.00  0.00    -0.144 A  
HETATM    5  N   UNL     1     -12.119  11.762  67.157  1.00  0.00    -0.465 NA 
HETATM    6  C   UNL     1      -8.723  11.109  68.413  1.00  0.00    -0.157 A  
HETATM    7  C   UNL     1     -11.035  11.189  67.681  1.00  0.00    -0.269 A  
HETATM    8  C   UNL     1      -9.779  11.830  67.792  1.00  0.00    -0.185 A  
HETATM    9  C   UNL     1     -12.033  13.048  66.802  1.00  0.00    -0.369 A  
HETATM   10  C   UNL     1     -11.209   9.908  68.164  1.00  0.00    -0.142 A  
HETATM   11  C   UNL     1      -9.698  13.168  67.305  1.00  0.00    -0.230 A  
HETATM   12  C   UNL     1     -10.877  13.787  66.907  1.00  0.00    -0.286 A  
BRANCH   4  13
HETATM   13  C   UNL     1      -7.787   9.052  69.530  1.00  0.00    -0.094 C  
HETATM   14  H2  UNL     1      -7.640  10.389  71.130  1.00  0.00     0.000 HD 
HETATM   15  H1  UNL     1      -6.493   9.030  71.119  1.00  0.00     0.000 HD 
HETATM   16  O   UNL     1      -7.307   8.041  69.034  1.00  0.00    -0.079 OA 
HETATM   17  N   UNL     1      -7.267   9.543  70.698  1.00  0.00    -0.129 N  
ENDBRANCH   4  13
BRANCH  11  18
HETATM   18  O   UNL     1      -8.470  13.800  67.389  1.00  0.00    -0.181 OA 
BRANCH  18  19
HETATM   19  C   UNL     1      -8.311  15.172  67.486  1.00  0.00    -0.172 A  
HETATM   20  C   UNL     1      -8.962  15.777  68.570  1.00  0.00    -0.194 A  
HETATM   21  C   UNL     1      -8.490  18.011  67.711  1.00  0.00    -0.247 A  
HETATM   22  C   UNL     1      -9.042  17.179  68.689  1.00  0.00    -0.268 A  
HETATM   23  C   UNL     1      -7.826  17.406  66.643  1.00  0.00    -0.257 A  
HETATM   24 CL   UNL     1      -7.119  18.357  65.373  1.00  0.00    -0.099 Cl 
HETATM   25  C   UNL     1      -7.734  16.014  66.541  1.00  0.00    -0.167 A  
BRANCH  21  26
HETATM   26  N   UNL     1      -8.603  19.419  67.709  1.00  0.00    -0.303 N  
HETATM   27  H   UNL     1      -9.495  19.803  67.398  1.00  0.00     0.000 HD 
BRANCH  26  28
HETATM   28  C   UNL     1      -7.646  20.325  68.077  1.00  0.00    -0.205 C  
HETATM   29  O   UNL     1      -7.151  21.170  67.339  1.00  0.00    -0.434 OA 
BRANCH  28  30
HETATM   30  N   UNL     1      -7.272  20.200  69.398  1.00  0.00    -0.089 N  
HETATM   31  H   UNL     1      -7.952  20.378  70.137  1.00  0.00     0.000 HD 
BRANCH  30  32
HETATM   32  C   UNL     1      -5.938  19.823  69.740  1.00  0.00    -0.303 C  
HETATM   33  C   UNL     1      -5.584  18.467  70.275  1.00  0.00    -0.227 C  
HETATM   34  C   UNL     1      -5.215  18.831  68.869  1.00  0.00    -0.192 C  
ENDBRANCH  30  32
ENDBRANCH  28  30
ENDBRANCH  26  28
ENDBRANCH  21  26
ENDBRANCH  18  19
ENDBRANCH  11  18
ENDBRANCH   2   3
TORSDOF 8
ENDMDL
MODEL      168
REMARK 921   NORMALIZED FREE ENERGY PREDICTED BY IDOCK:   -4.12 KCAL/MOL
REMARK 922        TOTAL FREE ENERGY PREDICTED BY IDOCK:   -7.58 KCAL/MOL
REMARK 923 INTER-LIGAND FREE ENERGY PREDICTED BY IDOCK:   -6.60 KCAL/MOL
REMARK 924 INTRA-LIGAND FREE ENERGY PREDICTED BY IDOCK:   -0.99 KCAL/MOL
REMARK 927      BINDING AFFINITY PREDICTED BY RF-SCORE:    0.00 PKD
ROOT
HETATM    1  C   UNL     1     -11.424  14.686  66.233  1.00  0.00    -0.351 C  
HETATM    2  O   UNL     1     -10.501  13.802  66.866  1.00  0.00    -0.269 OA 
ENDROOT
BRANCH   2   3
HETATM    3  C   UNL     1     -11.007  13.060  67.902  1.00  0.00    -0.241 A  
HETATM    4  C   UNL     1     -11.160  11.675  67.745  1.00  0.00    -0.309 A  
HETATM    5  N   UNL     1     -12.460  13.654  71.144  1.00  0.00    -0.366 NA 
HETATM    6  C   UNL     1     -11.743  10.921  68.788  1.00  0.00    -0.355 A  
HETATM    7  C   UNL     1     -12.042  12.941  70.098  1.00  0.00    -0.302 A  
HETATM    8  C   UNL     1     -12.201  11.541  69.982  1.00  0.00    -0.354 A  
HETATM    9  C   UNL     1     -13.151  13.018  72.094  1.00  0.00    -0.360 A  
HETATM   10  C   UNL     1     -11.459  13.663  69.076  1.00  0.00    -0.346 A  
HETATM   11  C   UNL     1     -12.849  10.879  71.067  1.00  0.00    -0.376 A  
HETATM   12  C   UNL     1     -13.408  11.666  72.068  1.00  0.00    -0.405 A  
BRANCH   4  13
HETATM   13  C   UNL     1     -10.655  10.997  66.515  1.00  0.00    -0.254 C  
HETATM   14  H2  UNL     1     -12.467  11.255  65.507  1.00  0.00     0.000 HD 
HETATM   15  H1  UNL     1     -11.173  10.424  64.616  1.00  0.00     0.000 HD 
HETATM   16  O   UNL     1      -9.526  10.533  66.425  1.00  0.00    -0.164 OA 
HETATM   17  N   UNL     1     -11.518  10.887  65.457  1.00  0.00     0.428 N  
ENDBRANCH   4  13
BRANCH  11  18
HETATM   18  O   UNL     1     -12.994   9.506  70.977  1.00  0.00    -0.294 OA 
BRANCH  18  19
HETATM   19  C   UNL     1     -11.960   8.605  71.163  1.00  0.00    -0.279 A  
HETATM   20  C   UNL     1     -10.890   9.070  71.940  1.00  0.00    -0.413 A  
HETATM   21  C   UNL     1      -9.531   7.122  71.380  1.00  0.00    -0.161 A  
HETATM   22  C   UNL     1      -9.693   8.334  72.057  1.00  0.00    -0.322 A  
HETATM   23  C   UNL     1     -10.606   6.652  70.624  1.00  0.00    -0.227 A  
HETATM   24 CL   UNL     1     -10.494   5.163  69.737  1.00  0.00    -0.335 Cl 
HETATM   25  C   UNL     1     -11.797   7.378  70.526  1.00  0.00    -0.187 A  
BRANCH  21  26
HETATM   26  N   UNL     1      -8.336   6.368  71.373  1.00  0.00    -0.122 N  
HETATM   27  H   UNL     1      -8.242   5.659  72.100  1.00  0.00     0.000 HD 
BRANCH  26  28
HETATM   28  C   UNL     1      -7.292   6.485  70.497  1.00  0.00    -0.082 C  
HETATM   29  O   UNL     1      -7.332   6.192  69.307  1.00  0.00    -0.082 OA 
BRANCH  28  30
HETATM   30  N   UNL     1      -6.149   6.977  71.090  1.00  0.00    -0.036 N  
HETATM   31  H   UNL     1      -6.014   7.985  71.173  1.00  0.00     0.000 HD 
BRANCH  30  32
HETATM   32  C   UNL     1      -5.153   6.086  71.590  1.00  0.00    -0.017 C  
HETATM   33  C   UNL     1      -5.442   5.028  72.614  1.00  0.00    -0.009 C  
HETATM   34  C   UNL     1      -5.202   4.637  71.187  1.00  0.00    -0.004 C  
ENDBRANCH  30  32
ENDBRANCH  28  30
ENDBRANCH  26  28
ENDBRANCH  21  26
ENDBRANCH  18  19
ENDBRANCH  11  18
ENDBRANCH   2   3
TORSDOF 8
ENDMDL
MODEL      169
REMARK 921   NORMALIZED FREE ENERGY PREDICTED BY IDOCK:   -4.09 KCAL/MOL
REMARK 922        TOTAL FREE ENERGY PREDICTED BY IDOCK:   -7.54 KCAL/MOL
REMARK 923 INTER-LIGAND FREE ENERGY PREDICTED BY IDOCK:   -7.02 KCAL/MOL
REMARK 924 INTRA-LIGAND FREE ENERGY PREDICTED BY IDOCK:   -0.53 KCAL/MOL
REMARK 927      BINDING AFFINITY PREDICTED BY RF-SCORE:    0.00 PKD
ROOT
HETATM    1  C   UNL     1      -7.275   8.429  73.686  1.00  0.00    -0.082 C  
HETATM    2  O   UNL     1      -6.824   8.898  72.416  1.00  0.00    -0.287 OA 
ENDROOT
BRANCH   2   3
HETATM    3  C   UNL     1      -7.575   8.504  71.340  1.00  0.00    -0.105 A  
HETATM    4  C   UNL     1      -7.311   9.057  70.079  1.00  0.00    -0.060 A  
HETATM    5  N   UNL     1     -10.487   6.476  70.720  1.00  0.00    -0.214 NA 
HETATM    6  C   UNL     1      -8.128   8.701  68.982  1.00  0.00    -0.121 A  
HETATM    7  C   UNL     1      -9.470   7.287  70.425  1.00  0.00    -0.165 A  
HETATM    8  C   UNL     1      -9.227   7.813  69.136  1.00  0.00    -0.144 A  
HETATM    9  C   UNL     1     -11.378   6.222  69.757  1.00  0.00    -0.436 A  
HETATM   10  C   UNL     1      -8.656   7.634  71.485  1.00  0.00    -0.126 A  
HETATM   11  C   UNL     1     -10.141   7.434  68.108  1.00  0.00    -0.179 A  
HETATM   12  C   UNL     1     -11.272   6.715  68.476  1.00  0.00    -0.227 A  
BRANCH   4  13
HETATM   13  C   UNL     1      -6.142   9.964  69.884  1.00  0.00    -0.048 C  
HETATM   14  H2  UNL     1      -7.057  11.532  70.919  1.00  0.00     0.000 HD 
HETATM   15  H1  UNL     1      -5.428  11.844  70.280  1.00  0.00     0.000 HD 
HETATM   16  O   UNL     1      -5.135   9.633  69.271  1.00  0.00    -0.036 OA 
HETATM   17  N   UNL     1      -6.227  11.224  70.413  1.00  0.00    -0.129 N  
ENDBRANCH   4  13
BRANCH  11  18
HETATM   18  O   UNL     1      -9.904   7.926  66.836  1.00  0.00    -0.195 OA 
BRANCH  18  19
HETATM   19  C   UNL     1     -10.156   9.232  66.452  1.00  0.00    -0.267 A  
HETATM   20  C   UNL     1     -11.034   9.944  67.280  1.00  0.00    -0.187 A  
HETATM   21  C   UNL     1     -11.162  11.792  65.693  1.00  0.00    -0.267 A  
HETATM   22  C   UNL     1     -11.523  11.213  66.912  1.00  0.00    -0.054 A  
HETATM   23  C   UNL     1     -10.272  11.089  64.880  1.00  0.00    -0.311 A  
HETATM   24 CL   UNL     1      -9.774  11.722  63.341  1.00  0.00    -0.363 Cl 
HETATM   25  C   UNL     1      -9.775   9.838  65.259  1.00  0.00    -0.371 A  
BRANCH  21  26
HETATM   26  N   UNL     1     -11.675  13.017  65.210  1.00  0.00    -0.336 N  
HETATM   27  H   UNL     1     -11.375  13.298  64.276  1.00  0.00     0.000 HD 
BRANCH  26  28
HETATM   28  C   UNL     1     -12.530  13.866  65.857  1.00  0.00    -0.481 C  
HETATM   29  O   UNL     1     -13.575  14.306  65.391  1.00  0.00    -0.516 OA 
BRANCH  28  30
HETATM   30  N   UNL     1     -12.099  14.197  67.124  1.00  0.00    -0.521 N  
HETATM   31  H   UNL     1     -12.501  13.728  67.935  1.00  0.00     0.000 HD 
BRANCH  30  32
HETATM   32  C   UNL     1     -11.093  15.193  67.307  1.00  0.00    -0.332 C  
HETATM   33  C   UNL     1     -10.553  15.570  68.655  1.00  0.00    -0.243 C  
HETATM   34  C   UNL     1      -9.708  14.764  67.714  1.00  0.00    -0.213 C  
ENDBRANCH  30  32
ENDBRANCH  28  30
ENDBRANCH  26  28
ENDBRANCH  21  26
ENDBRANCH  18  19
ENDBRANCH  11  18
ENDBRANCH   2   3
TORSDOF 8
ENDMDL
MODEL      170
REMARK 921   NORMALIZED FREE ENERGY PREDICTED BY IDOCK:   -4.08 KCAL/MOL
REMARK 922        TOTAL FREE ENERGY PREDICTED BY IDOCK:   -7.52 KCAL/MOL
REMARK 923 INTER-LIGAND FREE ENERGY PREDICTED BY IDOCK:   -6.41 KCAL/MOL
REMARK 924 INTRA-LIGAND FREE ENERGY PREDICTED BY IDOCK:   -1.11 KCAL/MOL
REMARK 927      BINDING AFFINITY PREDICTED BY RF-SCORE:    0.00 PKD
ROOT
HETATM    1  C   UNL     1      -9.230   4.199  62.983  1.00  0.00    -0.129 C  
HETATM    2  O   UNL     1      -8.121   4.089  63.874  1.00  0.00    -0.087 OA 
ENDROOT
BRANCH   2   3
HETATM    3  C   UNL     1      -8.326   4.579  65.137  1.00  0.00    -0.122 A  
HETATM    4  C   UNL     1      -7.845   5.854  65.466  1.00  0.00    -0.103 A  
HETATM    5  N   UNL     1      -9.623   3.388  68.279  1.00  0.00    -0.139 NA 
HETATM    6  C   UNL     1      -7.998   6.332  66.787  1.00  0.00    -0.108 A  
HETATM    7  C   UNL     1      -9.068   4.252  67.428  1.00  0.00    -0.138 A  
HETATM    8  C   UNL     1      -8.608   5.537  67.795  1.00  0.00    -0.108 A  
HETATM    9  C   UNL     1      -9.660   3.726  69.572  1.00  0.00    -0.160 A  
HETATM   10  C   UNL     1      -8.923   3.803  66.131  1.00  0.00    -0.135 A  
HETATM   11  C   UNL     1      -8.761   5.905  69.164  1.00  0.00    -0.118 A  
HETATM   12  C   UNL     1      -9.200   4.931  70.054  1.00  0.00    -0.182 A  
BRANCH   4  13
HETATM   13  C   UNL     1      -7.233   6.721  64.417  1.00  0.00    -0.069 C  
HETATM   14  H2  UNL     1      -9.027   7.733  64.063  1.00  0.00     0.000 HD 
HETATM   15  H1  UNL     1      -7.625   8.235  63.092  1.00  0.00     0.000 HD 
HETATM   16  O   UNL     1      -6.060   6.632  64.077  1.00  0.00    -0.033 OA 
HETATM   17  N   UNL     1      -8.043   7.643  63.809  1.00  0.00    -0.086 N  
ENDBRANCH   4  13
BRANCH  11  18
HETATM   18  O   UNL     1      -8.333   7.168  69.534  1.00  0.00    -0.130 OA 
BRANCH  18  19
HETATM   19  C   UNL     1      -9.127   8.301  69.480  1.00  0.00    -0.154 A  
HETATM   20  C   UNL     1      -8.679   9.309  68.617  1.00  0.00    -0.132 A  
HETATM   21  C   UNL     1     -10.335  10.886  69.466  1.00  0.00    -0.101 A  
HETATM   22  C   UNL     1      -9.281  10.583  68.600  1.00  0.00    -0.172 A  
HETATM   23  C   UNL     1     -10.792   9.874  70.311  1.00  0.00    -0.310 A  
HETATM   24 CL   UNL     1     -12.088  10.159  71.432  1.00  0.00    -0.472 Cl 
HETATM   25  C   UNL     1     -10.202   8.606  70.310  1.00  0.00    -0.213 A  
BRANCH  21  26
HETATM   26  N   UNL     1     -10.934  12.161  69.576  1.00  0.00    -0.462 N  
HETATM   27  H   UNL     1     -10.696  12.705  70.405  1.00  0.00     0.000 HD 
BRANCH  26  28
HETATM   28  C   UNL     1     -11.799  12.745  68.692  1.00  0.00    -0.304 C  
HETATM   29  O   UNL     1     -12.090  12.298  67.587  1.00  0.00    -0.502 OA 
BRANCH  28  30
HETATM   30  N   UNL     1     -12.334  13.924  69.166  1.00  0.00    -0.439 N  
HETATM   31  H   UNL     1     -12.558  14.677  68.516  1.00  0.00     0.000 HD 
BRANCH  30  32
HETATM   32  C   UNL     1     -12.576  14.098  70.562  1.00  0.00    -0.342 C  
HETATM   33  C   UNL     1     -11.859  15.119  71.395  1.00  0.00    -0.418 C  
HETATM   34  C   UNL     1     -13.297  15.334  71.029  1.00  0.00    -0.537 C  
ENDBRANCH  30  32
ENDBRANCH  28  30
ENDBRANCH  26  28
ENDBRANCH  21  26
ENDBRANCH  18  19
ENDBRANCH  11  18
ENDBRANCH   2   3
TORSDOF 8
ENDMDL
MODEL      171
REMARK 921   NORMALIZED FREE ENERGY PREDICTED BY IDOCK:   -4.06 KCAL/MOL
REMARK 922        TOTAL FREE ENERGY PREDICTED BY IDOCK:   -7.49 KCAL/MOL
REMARK 923 INTER-LIGAND FREE ENERGY PREDICTED BY IDOCK:   -6.40 KCAL/MOL
REMARK 924 INTRA-LIGAND FREE ENERGY PREDICTED BY IDOCK:   -1.09 KCAL/MOL
REMARK 927      BINDING AFFINITY PREDICTED BY RF-SCORE:    0.00 PKD
ROOT
HETATM    1  C   UNL     1      -9.035   1.974  65.476  1.00  0.00    -0.116 C  
HETATM    2  O   UNL     1      -9.500   3.063  64.680  1.00  0.00    -0.146 OA 
ENDROOT
BRANCH   2   3
HETATM    3  C   UNL     1      -9.501   4.287  65.295  1.00  0.00    -0.173 A  
HETATM    4  C   UNL     1      -8.667   5.303  64.806  1.00  0.00    -0.109 A  
HETATM    5  N   UNL     1     -10.932   5.790  68.239  1.00  0.00    -0.172 NA 
HETATM    6  C   UNL     1      -8.618   6.544  65.480  1.00  0.00    -0.109 A  
HETATM    7  C   UNL     1     -10.198   5.723  67.128  1.00  0.00    -0.207 A  
HETATM    8  C   UNL     1      -9.379   6.775  66.658  1.00  0.00    -0.197 A  
HETATM    9  C   UNL     1     -10.813   6.883  68.998  1.00  0.00    -0.212 A  
HETATM   10  C   UNL     1     -10.244   4.520  66.452  1.00  0.00    -0.249 A  
HETATM   11  C   UNL     1      -9.359   7.968  67.439  1.00  0.00    -0.145 A  
HETATM   12  C   UNL     1     -10.012   7.953  68.666  1.00  0.00    -0.201 A  
BRANCH   4  13
HETATM   13  C   UNL     1      -7.886   5.095  63.551  1.00  0.00    -0.084 C  
HETATM   14  H2  UNL     1      -6.287   4.218  64.571  1.00  0.00     0.000 HD 
HETATM   15  H1  UNL     1      -6.121   4.363  62.807  1.00  0.00     0.000 HD 
HETATM   16  O   UNL     1      -8.291   5.438  62.448  1.00  0.00    -0.100 OA 
HETATM   17  N   UNL     1      -6.655   4.505  63.665  1.00  0.00    -0.037 N  
ENDBRANCH   4  13
BRANCH  11  18
HETATM   18  O   UNL     1      -8.578   9.015  66.980  1.00  0.00    -0.115 OA 
BRANCH  18  19
HETATM   19  C   UNL     1      -8.939  10.348  67.071  1.00  0.00    -0.139 A  
HETATM   20  C   UNL     1      -8.134  11.134  67.906  1.00  0.00    -0.119 A  
HETATM   21  C   UNL     1      -9.677  13.018  67.758  1.00  0.00    -0.218 A  
HETATM   22  C   UNL     1      -8.491  12.457  68.238  1.00  0.00    -0.170 A  
HETATM   23  C   UNL     1     -10.467  12.239  66.911  1.00  0.00    -0.217 A  
HETATM   24 CL   UNL     1     -11.965  12.845  66.275  1.00  0.00    -0.474 Cl 
HETATM   25  C   UNL     1     -10.098  10.934  66.571  1.00  0.00    -0.269 A  
BRANCH  21  26
HETATM   26  N   UNL     1     -10.152  14.300  68.113  1.00  0.00    -0.227 N  
HETATM   27  H   UNL     1     -10.968  14.639  67.604  1.00  0.00     0.000 HD 
BRANCH  26  28
HETATM   28  C   UNL     1      -9.636  15.137  69.064  1.00  0.00    -0.229 C  
HETATM   29  O   UNL     1      -8.793  16.004  68.860  1.00  0.00    -0.205 OA 
BRANCH  28  30
HETATM   30  N   UNL     1     -10.164  14.913  70.317  1.00  0.00    -0.474 N  
HETATM   31  H   UNL     1      -9.570  14.541  71.059  1.00  0.00     0.000 HD 
BRANCH  30  32
HETATM   32  C   UNL     1     -11.537  15.198  70.585  1.00  0.00    -0.309 C  
HETATM   33  C   UNL     1     -12.368  14.392  71.539  1.00  0.00    -0.427 C  
HETATM   34  C   UNL     1     -11.915  15.768  71.926  1.00  0.00    -0.552 C  
ENDBRANCH  30  32
ENDBRANCH  28  30
ENDBRANCH  26  28
ENDBRANCH  21  26
ENDBRANCH  18  19
ENDBRANCH  11  18
ENDBRANCH   2   3
TORSDOF 8
ENDMDL
MODEL      172
REMARK 921   NORMALIZED FREE ENERGY PREDICTED BY IDOCK:   -4.04 KCAL/MOL
REMARK 922        TOTAL FREE ENERGY PREDICTED BY IDOCK:   -7.47 KCAL/MOL
REMARK 923 INTER-LIGAND FREE ENERGY PREDICTED BY IDOCK:   -6.83 KCAL/MOL
REMARK 924 INTRA-LIGAND FREE ENERGY PREDICTED BY IDOCK:   -0.64 KCAL/MOL
REMARK 927      BINDING AFFINITY PREDICTED BY RF-SCORE:    0.00 PKD
ROOT
HETATM    1  C   UNL     1     -12.813   6.754  70.699  1.00  0.00     0.278 C  
HETATM    2  O   UNL     1     -11.413   6.483  70.660  1.00  0.00    -0.328 OA 
ENDROOT
BRANCH   2   3
HETATM    3  C   UNL     1     -10.662   7.356  69.917  1.00  0.00    -0.243 A  
HETATM    4  C   UNL     1     -10.111   8.487  70.536  1.00  0.00    -0.218 A  
HETATM    5  N   UNL     1      -9.784   7.843  66.458  1.00  0.00    -0.222 NA 
HETATM    6  C   UNL     1      -9.393   9.422  69.758  1.00  0.00    -0.217 A  
HETATM    7  C   UNL     1      -9.819   8.106  67.765  1.00  0.00    -0.166 A  
HETATM    8  C   UNL     1      -9.238   9.252  68.355  1.00  0.00    -0.132 A  
HETATM    9  C   UNL     1      -9.247   8.764  65.652  1.00  0.00    -0.180 A  
HETATM   10  C   UNL     1     -10.508   7.196  68.540  1.00  0.00    -0.229 A  
HETATM   11  C   UNL     1      -8.580  10.161  67.475  1.00  0.00    -0.118 A  
HETATM   12  C   UNL     1      -8.692   9.939  66.108  1.00  0.00    -0.150 A  
BRANCH   4  13
HETATM   13  C   UNL     1     -10.231   8.670  72.013  1.00  0.00    -0.337 C  
HETATM   14  H2  UNL     1      -8.273   8.022  72.353  1.00  0.00     0.000 HD 
HETATM   15  H1  UNL     1      -9.217   8.487  73.785  1.00  0.00     0.000 HD 
HETATM   16  O   UNL     1     -11.254   9.063  72.557  1.00  0.00    -0.103 OA 
HETATM   17  N   UNL     1      -9.136   8.362  72.777  1.00  0.00    -0.253 N  
ENDBRANCH   4  13
BRANCH  11  18
HETATM   18  O   UNL     1      -7.989  11.278  68.041  1.00  0.00    -0.109 OA 
BRANCH  18  19
HETATM   19  C   UNL     1      -8.290  12.580  67.680  1.00  0.00    -0.172 A  
HETATM   20  C   UNL     1      -9.502  12.749  66.997  1.00  0.00    -0.233 A  
HETATM   21  C   UNL     1      -8.974  15.072  66.470  1.00  0.00    -0.274 A  
HETATM   22  C   UNL     1      -9.847  13.983  66.408  1.00  0.00    -0.306 A  
HETATM   23  C   UNL     1      -7.777  14.906  67.167  1.00  0.00    -0.142 A  
HETATM   24 CL   UNL     1      -6.623  16.198  67.288  1.00  0.00    -0.220 Cl 
HETATM   25  C   UNL     1      -7.449  13.685  67.766  1.00  0.00    -0.172 A  
BRANCH  21  26
HETATM   26  N   UNL     1      -9.202  16.312  65.833  1.00  0.00    -0.294 N  
HETATM   27  H   UNL     1      -8.499  16.612  65.156  1.00  0.00     0.000 HD 
BRANCH  26  28
HETATM   28  C   UNL     1     -10.262  17.156  66.023  1.00  0.00    -0.321 C  
HETATM   29  O   UNL     1     -11.000  17.575  65.138  1.00  0.00    -0.621 OA 
BRANCH  28  30
HETATM   30  N   UNL     1     -10.435  17.508  67.345  1.00  0.00    -0.350 N  
HETATM   31  H   UNL     1     -10.574  16.783  68.049  1.00  0.00     0.000 HD 
BRANCH  30  32
HETATM   32  C   UNL     1     -10.421  18.880  67.735  1.00  0.00    -0.416 C  
HETATM   33  C   UNL     1     -10.272  19.323  69.161  1.00  0.00    -0.188 C  
HETATM   34  C   UNL     1      -9.128  19.491  68.206  1.00  0.00    -0.398 C  
ENDBRANCH  30  32
ENDBRANCH  28  30
ENDBRANCH  26  28
ENDBRANCH  21  26
ENDBRANCH  18  19
ENDBRANCH  11  18
ENDBRANCH   2   3
TORSDOF 8
ENDMDL
MODEL      173
REMARK 921   NORMALIZED FREE ENERGY PREDICTED BY IDOCK:   -4.04 KCAL/MOL
REMARK 922        TOTAL FREE ENERGY PREDICTED BY IDOCK:   -7.47 KCAL/MOL
REMARK 923 INTER-LIGAND FREE ENERGY PREDICTED BY IDOCK:   -6.26 KCAL/MOL
REMARK 924 INTRA-LIGAND FREE ENERGY PREDICTED BY IDOCK:   -1.21 KCAL/MOL
REMARK 927      BINDING AFFINITY PREDICTED BY RF-SCORE:    0.00 PKD
ROOT
HETATM    1  C   UNL     1      -9.882  18.749  65.863  1.00  0.00    -0.041 C  
HETATM    2  O   UNL     1      -9.609  18.134  67.120  1.00  0.00    -0.266 OA 
ENDROOT
BRANCH   2   3
HETATM    3  C   UNL     1      -9.650  16.764  67.129  1.00  0.00    -0.236 A  
HETATM    4  C   UNL     1      -8.541  16.046  67.599  1.00  0.00    -0.175 A  
HETATM    5  N   UNL     1     -11.842  14.155  65.961  1.00  0.00    -0.383 NA 
HETATM    6  C   UNL     1      -8.556  14.634  67.546  1.00  0.00    -0.196 A  
HETATM    7  C   UNL     1     -10.758  14.686  66.529  1.00  0.00    -0.312 A  
HETATM    8  C   UNL     1      -9.664  13.927  67.004  1.00  0.00    -0.250 A  
HETATM    9  C   UNL     1     -11.850  12.836  65.750  1.00  0.00    -0.434 A  
HETATM   10  C   UNL     1     -10.733  16.064  66.597  1.00  0.00    -0.247 A  
HETATM   11  C   UNL     1      -9.755  12.511  66.857  1.00  0.00    -0.232 A  
HETATM   12  C   UNL     1     -10.822  12.001  66.128  1.00  0.00    -0.325 A  
BRANCH   4  13
HETATM   13  C   UNL     1      -7.381  16.765  68.205  1.00  0.00    -0.173 C  
HETATM   14  H2  UNL     1      -6.423  16.984  66.360  1.00  0.00     0.000 HD 
HETATM   15  H1  UNL     1      -5.587  17.659  67.776  1.00  0.00     0.000 HD 
HETATM   16  O   UNL     1      -7.289  16.992  69.404  1.00  0.00    -0.184 OA 
HETATM   17  N   UNL     1      -6.379  17.168  67.362  1.00  0.00    -0.138 N  
ENDBRANCH   4  13
BRANCH  11  18
HETATM   18  O   UNL     1      -8.700  11.754  67.337  1.00  0.00    -0.151 OA 
BRANCH  18  19
HETATM   19  C   UNL     1      -8.732  11.050  68.529  1.00  0.00    -0.159 A  
HETATM   20  C   UNL     1      -7.483  10.659  69.029  1.00  0.00    -0.117 A  
HETATM   21  C   UNL     1      -8.516   9.258  70.739  1.00  0.00    -0.195 A  
HETATM   22  C   UNL     1      -7.374   9.782  70.128  1.00  0.00    -0.159 A  
HETATM   23  C   UNL     1      -9.758   9.665  70.250  1.00  0.00    -0.259 A  
HETATM   24 CL   UNL     1     -11.234   9.059  70.937  1.00  0.00    -0.324 Cl 
HETATM   25  C   UNL     1      -9.860  10.550  69.172  1.00  0.00    -0.233 A  
BRANCH  21  26
HETATM   26  N   UNL     1      -8.495   8.308  71.784  1.00  0.00    -0.144 N  
HETATM   27  H   UNL     1      -8.746   8.648  72.712  1.00  0.00     0.000 HD 
BRANCH  26  28
HETATM   28  C   UNL     1      -8.175   6.981  71.688  1.00  0.00    -0.104 C  
HETATM   29  O   UNL     1      -7.040   6.522  71.758  1.00  0.00    -0.080 OA 
BRANCH  28  30
HETATM   30  N   UNL     1      -9.278   6.177  71.496  1.00  0.00    -0.146 N  
HETATM   31  H   UNL     1      -9.486   5.815  70.565  1.00  0.00     0.000 HD 
BRANCH  30  32
HETATM   32  C   UNL     1     -10.131   5.848  72.591  1.00  0.00    -0.179 C  
HETATM   33  C   UNL     1     -11.556   5.413  72.415  1.00  0.00    -0.167 C  
HETATM   34  C   UNL     1     -10.516   4.409  72.810  1.00  0.00    -0.253 C  
ENDBRANCH  30  32
ENDBRANCH  28  30
ENDBRANCH  26  28
ENDBRANCH  21  26
ENDBRANCH  18  19
ENDBRANCH  11  18
ENDBRANCH   2   3
TORSDOF 8
ENDMDL
MODEL      174
REMARK 921   NORMALIZED FREE ENERGY PREDICTED BY IDOCK:   -4.04 KCAL/MOL
REMARK 922        TOTAL FREE ENERGY PREDICTED BY IDOCK:   -7.46 KCAL/MOL
REMARK 923 INTER-LIGAND FREE ENERGY PREDICTED BY IDOCK:   -6.43 KCAL/MOL
REMARK 924 INTRA-LIGAND FREE ENERGY PREDICTED BY IDOCK:   -1.03 KCAL/MOL
REMARK 927      BINDING AFFINITY PREDICTED BY RF-SCORE:    0.00 PKD
ROOT
HETATM    1  C   UNL     1     -10.254  18.128  68.567  1.00  0.00    -0.384 C  
HETATM    2  O   UNL     1     -10.363  17.042  67.649  1.00  0.00    -0.310 OA 
ENDROOT
BRANCH   2   3
HETATM    3  C   UNL     1      -9.423  16.055  67.786  1.00  0.00    -0.217 A  
HETATM    4  C   UNL     1      -9.603  14.836  67.117  1.00  0.00    -0.231 A  
HETATM    5  N   UNL     1      -6.453  15.456  69.734  1.00  0.00    -0.164 NA 
HETATM    6  C   UNL     1      -8.668  13.795  67.311  1.00  0.00    -0.226 A  
HETATM    7  C   UNL     1      -7.420  15.188  68.855  1.00  0.00    -0.143 A  
HETATM    8  C   UNL     1      -7.561  13.949  68.189  1.00  0.00    -0.134 A  
HETATM    9  C   UNL     1      -5.625  14.461  70.070  1.00  0.00    -0.112 A  
HETATM   10  C   UNL     1      -8.335  16.200  68.647  1.00  0.00    -0.211 A  
HETATM   11  C   UNL     1      -6.595  12.945  68.494  1.00  0.00    -0.087 A  
HETATM   12  C   UNL     1      -5.695  13.200  69.522  1.00  0.00    -0.095 A  
BRANCH   4  13
HETATM   13  C   UNL     1     -10.738  14.662  66.163  1.00  0.00    -0.314 C  
HETATM   14  H2  UNL     1     -11.700  13.281  67.402  1.00  0.00     0.000 HD 
HETATM   15  H1  UNL     1     -12.509  13.672  65.868  1.00  0.00     0.000 HD 
HETATM   16  O   UNL     1     -10.804  15.247  65.091  1.00  0.00    -0.370 OA 
HETATM   17  N   UNL     1     -11.733  13.791  66.520  1.00  0.00    -0.364 N  
ENDBRANCH   4  13
BRANCH  11  18
HETATM   18  O   UNL     1      -6.708  11.734  67.834  1.00  0.00    -0.064 OA 
BRANCH  18  19
HETATM   19  C   UNL     1      -7.565  10.718  68.223  1.00  0.00    -0.098 A  
HETATM   20  C   UNL     1      -7.655  10.504  69.605  1.00  0.00    -0.134 A  
HETATM   21  C   UNL     1      -8.932   8.450  69.285  1.00  0.00    -0.150 A  
HETATM   22  C   UNL     1      -8.339   9.390  70.132  1.00  0.00    -0.197 A  
HETATM   23  C   UNL     1      -8.857   8.676  67.911  1.00  0.00    -0.137 A  
HETATM   24 CL   UNL     1      -9.553   7.558  66.779  1.00  0.00    -0.245 Cl 
HETATM   25  C   UNL     1      -8.193   9.793  67.394  1.00  0.00    -0.114 A  
BRANCH  21  26
HETATM   26  N   UNL     1      -9.558   7.263  69.728  1.00  0.00    -0.163 N  
HETATM   27  H   UNL     1      -8.954   6.451  69.854  1.00  0.00     0.000 HD 
BRANCH  26  28
HETATM   28  C   UNL     1     -10.885   7.084  70.006  1.00  0.00    -0.261 C  
HETATM   29  O   UNL     1     -11.610   6.245  69.482  1.00  0.00    -0.423 OA 
BRANCH  28  30
HETATM   30  N   UNL     1     -11.355   7.962  70.960  1.00  0.00    -0.271 N  
HETATM   31  H   UNL     1     -11.148   7.798  71.945  1.00  0.00     0.000 HD 
BRANCH  30  32
HETATM   32  C   UNL     1     -12.130   9.098  70.578  1.00  0.00     0.028 C  
HETATM   33  C   UNL     1     -13.351   9.543  71.327  1.00  0.00    -0.385 C  
HETATM   34  C   UNL     1     -12.083  10.334  71.435  1.00  0.00    -0.457 C  
ENDBRANCH  30  32
ENDBRANCH  28  30
ENDBRANCH  26  28
ENDBRANCH  21  26
ENDBRANCH  18  19
ENDBRANCH  11  18
ENDBRANCH   2   3
TORSDOF 8
ENDMDL
MODEL      175
REMARK 921   NORMALIZED FREE ENERGY PREDICTED BY IDOCK:   -4.03 KCAL/MOL
REMARK 922        TOTAL FREE ENERGY PREDICTED BY IDOCK:   -7.46 KCAL/MOL
REMARK 923 INTER-LIGAND FREE ENERGY PREDICTED BY IDOCK:   -6.73 KCAL/MOL
REMARK 924 INTRA-LIGAND FREE ENERGY PREDICTED BY IDOCK:   -0.72 KCAL/MOL
REMARK 927      BINDING AFFINITY PREDICTED BY RF-SCORE:    0.00 PKD
ROOT
HETATM    1  C   UNL     1      -5.126  11.715  71.607  1.00  0.00     0.015 C  
HETATM    2  O   UNL     1      -5.183  10.672  70.636  1.00  0.00    -0.065 OA 
ENDROOT
BRANCH   2   3
HETATM    3  C   UNL     1      -6.441  10.307  70.233  1.00  0.00    -0.137 A  
HETATM    4  C   UNL     1      -6.923  10.753  68.995  1.00  0.00    -0.085 A  
HETATM    5  N   UNL     1      -9.292   8.596  71.620  1.00  0.00    -0.239 NA 
HETATM    6  C   UNL     1      -8.244  10.433  68.609  1.00  0.00    -0.121 A  
HETATM    7  C   UNL     1      -8.586   9.267  70.708  1.00  0.00    -0.203 A  
HETATM    8  C   UNL     1      -9.103   9.688  69.461  1.00  0.00    -0.209 A  
HETATM    9  C   UNL     1     -10.590   8.393  71.374  1.00  0.00    -0.234 A  
HETATM   10  C   UNL     1      -7.290   9.577  71.067  1.00  0.00     0.020 A  
HETATM   11  C   UNL     1     -10.464   9.359  69.190  1.00  0.00    -0.217 A  
HETATM   12  C   UNL     1     -11.215   8.798  70.216  1.00  0.00    -0.212 A  
BRANCH   4  13
HETATM   13  C   UNL     1      -6.029  11.507  68.067  1.00  0.00    -0.046 C  
HETATM   14  H2  UNL     1      -5.745   9.846  66.830  1.00  0.00     0.000 HD 
HETATM   15  H1  UNL     1      -4.910  11.343  66.357  1.00  0.00     0.000 HD 
HETATM   16  O   UNL     1      -5.728  12.681  68.236  1.00  0.00    -0.054 OA 
HETATM   17  N   UNL     1      -5.521  10.828  66.991  1.00  0.00    -0.044 N  
ENDBRANCH   4  13
BRANCH  11  18
HETATM   18  O   UNL     1     -10.978   9.747  67.964  1.00  0.00    -0.246 OA 
BRANCH  18  19
HETATM   19  C   UNL     1     -11.001  11.056  67.515  1.00  0.00    -0.281 A  
HETATM   20  C   UNL     1     -11.527  11.992  68.416  1.00  0.00    -0.356 A  
HETATM   21  C   UNL     1     -11.539  13.743  66.716  1.00  0.00    -0.370 A  
HETATM   22  C   UNL     1     -11.783  13.323  68.026  1.00  0.00    -0.394 A  
HETATM   23  C   UNL     1     -10.997  12.814  65.827  1.00  0.00    -0.277 A  
HETATM   24 CL   UNL     1     -10.672  13.238  64.175  1.00  0.00    -0.398 Cl 
HETATM   25  C   UNL     1     -10.728  11.500  66.224  1.00  0.00    -0.321 A  
BRANCH  21  26
HETATM   26  N   UNL     1     -11.849  15.029  66.222  1.00  0.00    -0.116 N  
HETATM   27  H   UNL     1     -12.817  15.185  65.937  1.00  0.00     0.000 HD 
BRANCH  26  28
HETATM   28  C   UNL     1     -10.995  16.089  66.083  1.00  0.00    -0.083 C  
HETATM   29  O   UNL     1     -10.536  16.492  65.020  1.00  0.00    -0.670 OA 
BRANCH  28  30
HETATM   30  N   UNL     1     -10.683  16.685  67.286  1.00  0.00    -0.275 N  
HETATM   31  H   UNL     1     -10.596  16.115  68.128  1.00  0.00     0.000 HD 
BRANCH  30  32
HETATM   32  C   UNL     1     -10.480  18.096  67.363  1.00  0.00    -0.399 C  
HETATM   33  C   UNL     1      -9.779  18.759  68.511  1.00  0.00    -0.426 C  
HETATM   34  C   UNL     1      -9.089  18.643  67.186  1.00  0.00    -0.294 C  
ENDBRANCH  30  32
ENDBRANCH  28  30
ENDBRANCH  26  28
ENDBRANCH  21  26
ENDBRANCH  18  19
ENDBRANCH  11  18
ENDBRANCH   2   3
TORSDOF 8
ENDMDL
MODEL      176
REMARK 921   NORMALIZED FREE ENERGY PREDICTED BY IDOCK:   -4.03 KCAL/MOL
REMARK 922        TOTAL FREE ENERGY PREDICTED BY IDOCK:   -7.45 KCAL/MOL
REMARK 923 INTER-LIGAND FREE ENERGY PREDICTED BY IDOCK:   -6.96 KCAL/MOL
REMARK 924 INTRA-LIGAND FREE ENERGY PREDICTED BY IDOCK:   -0.49 KCAL/MOL
REMARK 927      BINDING AFFINITY PREDICTED BY RF-SCORE:    0.00 PKD
ROOT
HETATM    1  C   UNL     1      -9.144   3.018  72.432  1.00  0.00    -0.095 C  
HETATM    2  O   UNL     1     -10.086   4.044  72.125  1.00  0.00    -0.170 OA 
ENDROOT
BRANCH   2   3
HETATM    3  C   UNL     1      -9.733   4.885  71.102  1.00  0.00    -0.179 A  
HETATM    4  C   UNL     1      -9.480   6.236  71.378  1.00  0.00    -0.167 A  
HETATM    5  N   UNL     1      -9.478   4.751  67.512  1.00  0.00    -0.138 NA 
HETATM    6  C   UNL     1      -9.182   7.116  70.314  1.00  0.00    -0.156 A  
HETATM    7  C   UNL     1      -9.430   5.299  68.727  1.00  0.00    -0.128 A  
HETATM    8  C   UNL     1      -9.156   6.665  68.967  1.00  0.00    -0.133 A  
HETATM    9  C   UNL     1      -9.350   5.563  66.458  1.00  0.00    -0.147 A  
HETATM   10  C   UNL     1      -9.709   4.448  69.777  1.00  0.00    -0.291 A  
HETATM   11  C   UNL     1      -8.920   7.481  67.821  1.00  0.00    -0.131 A  
HETATM   12  C   UNL     1      -9.127   6.917  66.567  1.00  0.00    -0.179 A  
BRANCH   4  13
HETATM   13  C   UNL     1      -9.466   6.726  72.788  1.00  0.00    -0.141 C  
HETATM   14  H2  UNL     1      -8.336   8.414  72.297  1.00  0.00     0.000 HD 
HETATM   15  H1  UNL     1      -8.793   8.231  74.005  1.00  0.00     0.000 HD 
HETATM   16  O   UNL     1     -10.004   6.125  73.709  1.00  0.00    -0.176 OA 
HETATM   17  N   UNL     1      -8.802   7.897  73.042  1.00  0.00    -0.192 N  
ENDBRANCH   4  13
BRANCH  11  18
HETATM   18  O   UNL     1      -8.631   8.817  68.042  1.00  0.00    -0.132 OA 
BRANCH  18  19
HETATM   19  C   UNL     1      -9.335   9.865  67.474  1.00  0.00    -0.140 A  
HETATM   20  C   UNL     1     -10.358  10.401  68.267  1.00  0.00    -0.198 A  
HETATM   21  C   UNL     1     -11.197  11.750  66.416  1.00  0.00    -0.323 A  
HETATM   22  C   UNL     1     -11.272  11.341  67.750  1.00  0.00    -0.354 A  
HETATM   23  C   UNL     1     -10.166  11.229  65.634  1.00  0.00    -0.253 A  
HETATM   24 CL   UNL     1      -9.999  11.668  63.962  1.00  0.00    -0.307 Cl 
HETATM   25  C   UNL     1      -9.250  10.311  66.158  1.00  0.00    -0.192 A  
BRANCH  21  26
HETATM   26  N   UNL     1     -12.124  12.618  65.796  1.00  0.00    -0.443 N  
HETATM   27  H   UNL     1     -12.963  12.184  65.409  1.00  0.00     0.000 HD 
BRANCH  26  28
HETATM   28  C   UNL     1     -12.021  13.975  65.659  1.00  0.00    -0.397 C  
HETATM   29  O   UNL     1     -11.819  14.565  64.603  1.00  0.00    -0.413 OA 
BRANCH  28  30
HETATM   30  N   UNL     1     -12.168  14.646  66.854  1.00  0.00    -0.447 N  
HETATM   31  H   UNL     1     -13.091  14.725  67.281  1.00  0.00     0.000 HD 
BRANCH  30  32
HETATM   32  C   UNL     1     -11.037  15.231  67.498  1.00  0.00    -0.324 C  
HETATM   33  C   UNL     1     -10.441  16.541  67.073  1.00  0.00    -0.289 C  
HETATM   34  C   UNL     1     -11.234  16.462  68.343  1.00  0.00    -0.324 C  
ENDBRANCH  30  32
ENDBRANCH  28  30
ENDBRANCH  26  28
ENDBRANCH  21  26
ENDBRANCH  18  19
ENDBRANCH  11  18
ENDBRANCH   2   3
TORSDOF 8
ENDMDL
MODEL      177
REMARK 921   NORMALIZED FREE ENERGY PREDICTED BY IDOCK:   -4.02 KCAL/MOL
REMARK 922        TOTAL FREE ENERGY PREDICTED BY IDOCK:   -7.43 KCAL/MOL
REMARK 923 INTER-LIGAND FREE ENERGY PREDICTED BY IDOCK:   -6.88 KCAL/MOL
REMARK 924 INTRA-LIGAND FREE ENERGY PREDICTED BY IDOCK:   -0.55 KCAL/MOL
REMARK 927      BINDING AFFINITY PREDICTED BY RF-SCORE:    0.00 PKD
ROOT
HETATM    1  C   UNL     1     -12.034  12.651  62.893  1.00  0.00     0.290 C  
HETATM    2  O   UNL     1     -10.940  12.998  63.740  1.00  0.00    -0.392 OA 
ENDROOT
BRANCH   2   3
HETATM    3  C   UNL     1     -10.693  12.131  64.772  1.00  0.00    -0.301 A  
HETATM    4  C   UNL     1     -11.383  12.288  65.982  1.00  0.00    -0.398 A  
HETATM    5  N   UNL     1      -8.398   9.455  65.514  1.00  0.00    -0.128 NA 
HETATM    6  C   UNL     1     -11.081  11.436  67.068  1.00  0.00    -0.364 A  
HETATM    7  C   UNL     1      -9.390  10.319  65.735  1.00  0.00    -0.186 A  
HETATM    8  C   UNL     1     -10.073  10.439  66.966  1.00  0.00    -0.264 A  
HETATM    9  C   UNL     1      -7.968   8.725  66.547  1.00  0.00    -0.103 A  
HETATM   10  C   UNL     1      -9.704  11.151  64.679  1.00  0.00    -0.308 A  
HETATM   11  C   UNL     1      -9.657   9.567  68.016  1.00  0.00    -0.137 A  
HETATM   12  C   UNL     1      -8.525   8.789  67.804  1.00  0.00    -0.125 A  
BRANCH   4  13
HETATM   13  C   UNL     1     -12.470  13.305  66.102  1.00  0.00    -0.268 C  
HETATM   14  H2  UNL     1     -11.431  14.392  67.554  1.00  0.00     0.000 HD 
HETATM   15  H1  UNL     1     -13.023  15.022  67.075  1.00  0.00     0.000 HD 
HETATM   16  O   UNL     1     -13.507  13.252  65.456  1.00  0.00    -0.336 OA 
HETATM   17  N   UNL     1     -12.281  14.327  66.994  1.00  0.00    -0.390 N  
ENDBRANCH   4  13
BRANCH  11  18
HETATM   18  O   UNL     1     -10.330   9.659  69.222  1.00  0.00    -0.190 OA 
BRANCH  18  19
HETATM   19  C   UNL     1     -10.412   8.628  70.143  1.00  0.00    -0.217 A  
HETATM   20  C   UNL     1     -11.314   7.605  69.822  1.00  0.00     0.048 A  
HETATM   21  C   UNL     1     -11.077   6.594  72.030  1.00  0.00    -0.255 A  
HETATM   22  C   UNL     1     -11.636   6.593  70.749  1.00  0.00    -0.432 A  
HETATM   23  C   UNL     1     -10.165   7.603  72.339  1.00  0.00    -0.228 A  
HETATM   24 CL   UNL     1      -9.429   7.695  73.910  1.00  0.00    -0.303 Cl 
HETATM   25  C   UNL     1      -9.835   8.594  71.409  1.00  0.00    -0.327 A  
BRANCH  21  26
HETATM   26  N   UNL     1     -11.413   5.670  73.045  1.00  0.00    -0.497 N  
HETATM   27  H   UNL     1     -12.301   5.824  73.523  1.00  0.00     0.000 HD 
BRANCH  26  28
HETATM   28  C   UNL     1     -10.678   4.593  73.457  1.00  0.00    -0.265 C  
HETATM   29  O   UNL     1     -10.099   4.503  74.534  1.00  0.00    -0.176 OA 
BRANCH  28  30
HETATM   30  N   UNL     1     -10.641   3.581  72.522  1.00  0.00    -0.068 N  
HETATM   31  H   UNL     1     -11.467   3.002  72.368  1.00  0.00     0.000 HD 
BRANCH  30  32
HETATM   32  C   UNL     1      -9.456   3.338  71.766  1.00  0.00    -0.145 C  
HETATM   33  C   UNL     1      -9.223   2.071  70.996  1.00  0.00    -0.181 C  
HETATM   34  C   UNL     1      -9.536   3.340  70.263  1.00  0.00    -0.234 C  
ENDBRANCH  30  32
ENDBRANCH  28  30
ENDBRANCH  26  28
ENDBRANCH  21  26
ENDBRANCH  18  19
ENDBRANCH  11  18
ENDBRANCH   2   3
TORSDOF 8
ENDMDL
MODEL      178
REMARK 921   NORMALIZED FREE ENERGY PREDICTED BY IDOCK:   -4.01 KCAL/MOL
REMARK 922        TOTAL FREE ENERGY PREDICTED BY IDOCK:   -7.42 KCAL/MOL
REMARK 923 INTER-LIGAND FREE ENERGY PREDICTED BY IDOCK:   -6.21 KCAL/MOL
REMARK 924 INTRA-LIGAND FREE ENERGY PREDICTED BY IDOCK:   -1.22 KCAL/MOL
REMARK 927      BINDING AFFINITY PREDICTED BY RF-SCORE:    0.00 PKD
ROOT
HETATM    1  C   UNL     1      -9.111   2.601  65.042  1.00  0.00    -0.137 C  
HETATM    2  O   UNL     1      -9.209   3.373  66.238  1.00  0.00    -0.152 OA 
ENDROOT
BRANCH   2   3
HETATM    3  C   UNL     1      -8.777   4.670  66.141  1.00  0.00    -0.114 A  
HETATM    4  C   UNL     1      -8.716   5.462  67.296  1.00  0.00    -0.107 A  
HETATM    5  N   UNL     1      -7.907   7.002  63.538  1.00  0.00    -0.125 NA 
HETATM    6  C   UNL     1      -8.335   6.819  67.187  1.00  0.00    -0.121 A  
HETATM    7  C   UNL     1      -8.122   6.576  64.783  1.00  0.00    -0.112 A  
HETATM    8  C   UNL     1      -8.036   7.403  65.927  1.00  0.00    -0.128 A  
HETATM    9  C   UNL     1      -7.688   8.308  63.357  1.00  0.00    -0.142 A  
HETATM   10  C   UNL     1      -8.484   5.250  64.907  1.00  0.00    -0.150 A  
HETATM   11  C   UNL     1      -7.695   8.770  65.704  1.00  0.00    -0.091 A  
HETATM   12  C   UNL     1      -7.628   9.217  64.389  1.00  0.00    -0.115 A  
BRANCH   4  13
HETATM   13  C   UNL     1      -8.992   4.862  68.636  1.00  0.00    -0.105 C  
HETATM   14  H2  UNL     1     -10.979   5.508  68.629  1.00  0.00     0.000 HD 
HETATM   15  H1  UNL     1     -10.443   4.599  70.059  1.00  0.00     0.000 HD 
HETATM   16  O   UNL     1      -8.143   4.268  69.287  1.00  0.00    -0.064 OA 
HETATM   17  N   UNL     1     -10.255   5.009  69.144  1.00  0.00    -0.192 N  
ENDBRANCH   4  13
BRANCH  11  18
HETATM   18  O   UNL     1      -7.588   9.587  66.816  1.00  0.00    -0.096 OA 
BRANCH  18  19
HETATM   19  C   UNL     1      -8.665  10.207  67.427  1.00  0.00    -0.125 A  
HETATM   20  C   UNL     1      -8.928   9.797  68.741  1.00  0.00    -0.133 A  
HETATM   21  C   UNL     1     -11.042  11.014  68.783  1.00  0.00    -0.239 A  
HETATM   22  C   UNL     1     -10.096  10.203  69.417  1.00  0.00    -0.250 A  
HETATM   23  C   UNL     1     -10.768  11.435  67.482  1.00  0.00    -0.222 A  
HETATM   24 CL   UNL     1     -11.889  12.433  66.608  1.00  0.00    -0.436 Cl 
HETATM   25  C   UNL     1      -9.598  11.044  66.823  1.00  0.00    -0.216 A  
BRANCH  21  26
HETATM   26  N   UNL     1     -12.277  11.392  69.356  1.00  0.00    -0.270 N  
HETATM   27  H   UNL     1     -13.116  11.144  68.831  1.00  0.00     0.000 HD 
BRANCH  26  28
HETATM   28  C   UNL     1     -12.471  12.054  70.537  1.00  0.00    -0.207 C  
HETATM   29  O   UNL     1     -12.207  13.235  70.737  1.00  0.00    -0.358 OA 
BRANCH  28  30
HETATM   30  N   UNL     1     -13.008  11.250  71.519  1.00  0.00    -0.445 N  
HETATM   31  H   UNL     1     -13.239  11.646  72.430  1.00  0.00     0.000 HD 
BRANCH  30  32
HETATM   32  C   UNL     1     -13.243   9.864  71.270  1.00  0.00    -0.383 C  
HETATM   33  C   UNL     1     -12.492   8.769  71.969  1.00  0.00    -0.452 C  
HETATM   34  C   UNL     1     -13.922   9.037  72.330  1.00  0.00    -0.522 C  
ENDBRANCH  30  32
ENDBRANCH  28  30
ENDBRANCH  26  28
ENDBRANCH  21  26
ENDBRANCH  18  19
ENDBRANCH  11  18
ENDBRANCH   2   3
TORSDOF 8
ENDMDL
MODEL      179
REMARK 921   NORMALIZED FREE ENERGY PREDICTED BY IDOCK:   -4.01 KCAL/MOL
REMARK 922        TOTAL FREE ENERGY PREDICTED BY IDOCK:   -7.42 KCAL/MOL
REMARK 923 INTER-LIGAND FREE ENERGY PREDICTED BY IDOCK:   -7.10 KCAL/MOL
REMARK 924 INTRA-LIGAND FREE ENERGY PREDICTED BY IDOCK:   -0.32 KCAL/MOL
REMARK 927      BINDING AFFINITY PREDICTED BY RF-SCORE:    0.00 PKD
ROOT
HETATM    1  C   UNL     1      -5.605  13.657  71.280  1.00  0.00    -0.214 C  
HETATM    2  O   UNL     1      -5.169  13.396  69.947  1.00  0.00    -0.082 OA 
ENDROOT
BRANCH   2   3
HETATM    3  C   UNL     1      -6.165  13.170  69.033  1.00  0.00    -0.094 A  
HETATM    4  C   UNL     1      -6.811  14.261  68.434  1.00  0.00    -0.104 A  
HETATM    5  N   UNL     1      -8.010  10.357  67.744  1.00  0.00    -0.102 NA 
HETATM    6  C   UNL     1      -7.881  14.028  67.542  1.00  0.00    -0.197 A  
HETATM    7  C   UNL     1      -7.666  11.637  67.890  1.00  0.00    -0.126 A  
HETATM    8  C   UNL     1      -8.333  12.711  67.257  1.00  0.00    -0.189 A  
HETATM    9  C   UNL     1      -9.106  10.085  67.030  1.00  0.00    -0.142 A  
HETATM   10  C   UNL     1      -6.614  11.879  68.750  1.00  0.00    -0.080 A  
HETATM   11  C   UNL     1      -9.435  12.374  66.417  1.00  0.00    -0.240 A  
HETATM   12  C   UNL     1      -9.863  11.051  66.406  1.00  0.00    -0.252 A  
BRANCH   4  13
HETATM   13  C   UNL     1      -6.331  15.651  68.690  1.00  0.00    -0.103 C  
HETATM   14  H2  UNL     1      -4.749  15.463  67.339  1.00  0.00     0.000 HD 
HETATM   15  H1  UNL     1      -4.899  17.024  68.176  1.00  0.00     0.000 HD 
HETATM   16  O   UNL     1      -6.871  16.407  69.487  1.00  0.00    -0.223 OA 
HETATM   17  N   UNL     1      -5.226  16.074  68.001  1.00  0.00    -0.112 N  
ENDBRANCH   4  13
BRANCH  11  18
HETATM   18  O   UNL     1     -10.085  13.413  65.775  1.00  0.00    -0.289 OA 
BRANCH  18  19
HETATM   19  C   UNL     1     -10.392  14.622  66.376  1.00  0.00    -0.289 A  
HETATM   20  C   UNL     1      -9.886  15.759  65.732  1.00  0.00    -0.383 A  
HETATM   21  C   UNL     1     -10.526  17.199  67.595  1.00  0.00    -0.355 A  
HETATM   22  C   UNL     1      -9.961  17.035  66.327  1.00  0.00    -0.324 A  
HETATM   23  C   UNL     1     -11.047  16.068  68.225  1.00  0.00    -0.351 A  
HETATM   24 CL   UNL     1     -11.757  16.170  69.806  1.00  0.00    -0.260 Cl 
HETATM   25  C   UNL     1     -10.986  14.808  67.621  1.00  0.00    -0.292 A  
BRANCH  21  26
HETATM   26  N   UNL     1     -10.561  18.423  68.298  1.00  0.00    -0.325 N  
HETATM   27  H   UNL     1     -11.260  18.503  69.037  1.00  0.00     0.000 HD 
BRANCH  26  28
HETATM   28  C   UNL     1      -9.759  19.514  68.097  1.00  0.00    -0.388 C  
HETATM   29  O   UNL     1     -10.095  20.539  67.515  1.00  0.00    -0.401 OA 
BRANCH  28  30
HETATM   30  N   UNL     1      -8.496  19.354  68.625  1.00  0.00    -0.364 N  
HETATM   31  H   UNL     1      -8.374  19.274  69.635  1.00  0.00     0.000 HD 
BRANCH  30  32
HETATM   32  C   UNL     1      -7.356  19.297  67.767  1.00  0.00    -0.254 C  
HETATM   33  C   UNL     1      -6.585  20.515  67.352  1.00  0.00    -0.314 C  
HETATM   34  C   UNL     1      -5.993  19.564  68.347  1.00  0.00    -0.252 C  
ENDBRANCH  30  32
ENDBRANCH  28  30
ENDBRANCH  26  28
ENDBRANCH  21  26
ENDBRANCH  18  19
ENDBRANCH  11  18
ENDBRANCH   2   3
TORSDOF 8
ENDMDL
MODEL      180
REMARK 921   NORMALIZED FREE ENERGY PREDICTED BY IDOCK:   -3.99 KCAL/MOL
REMARK 922        TOTAL FREE ENERGY PREDICTED BY IDOCK:   -7.39 KCAL/MOL
REMARK 923 INTER-LIGAND FREE ENERGY PREDICTED BY IDOCK:   -6.91 KCAL/MOL
REMARK 924 INTRA-LIGAND FREE ENERGY PREDICTED BY IDOCK:   -0.48 KCAL/MOL
REMARK 927      BINDING AFFINITY PREDICTED BY RF-SCORE:    0.00 PKD
ROOT
HETATM    1  C   UNL     1     -13.904  15.230  71.626  1.00  0.00    -0.519 C  
HETATM    2  O   UNL     1     -12.841  14.998  70.703  1.00  0.00    -0.355 OA 
ENDROOT
BRANCH   2   3
HETATM    3  C   UNL     1     -12.417  13.699  70.603  1.00  0.00    -0.347 A  
HETATM    4  C   UNL     1     -11.555  13.336  69.558  1.00  0.00    -0.349 A  
HETATM    5  N   UNL     1     -13.100  10.542  72.197  1.00  0.00    -0.414 NA 
HETATM    6  C   UNL     1     -11.170  11.984  69.416  1.00  0.00    -0.263 A  
HETATM    7  C   UNL     1     -12.537  11.383  71.328  1.00  0.00    -0.374 A  
HETATM    8  C   UNL     1     -11.659  10.980  70.296  1.00  0.00    -0.414 A  
HETATM    9  C   UNL     1     -12.892   9.234  72.022  1.00  0.00    -0.415 A  
HETATM   10  C   UNL     1     -12.895  12.709  71.462  1.00  0.00    -0.368 A  
HETATM   11  C   UNL     1     -11.376   9.585  70.205  1.00  0.00    -0.199 A  
HETATM   12  C   UNL     1     -12.093   8.721  71.024  1.00  0.00    -0.262 A  
BRANCH   4  13
HETATM   13  C   UNL     1     -11.000  14.377  68.644  1.00  0.00    -0.250 C  
HETATM   14  H2  UNL     1      -9.408  14.803  69.929  1.00  0.00     0.000 HD 
HETATM   15  H1  UNL     1      -9.482  15.735  68.418  1.00  0.00     0.000 HD 
HETATM   16  O   UNL     1     -11.523  14.677  67.579  1.00  0.00    -0.332 OA 
HETATM   17  N   UNL     1      -9.861  15.024  69.042  1.00  0.00    -0.230 N  
ENDBRANCH   4  13
BRANCH  11  18
HETATM   18  O   UNL     1     -10.502   9.178  69.212  1.00  0.00    -0.214 OA 
BRANCH  18  19
HETATM   19  C   UNL     1     -10.210   7.854  68.932  1.00  0.00    -0.205 A  
HETATM   20  C   UNL     1      -9.213   7.277  69.730  1.00  0.00    -0.140 A  
HETATM   21  C   UNL     1      -9.129   5.284  68.326  1.00  0.00    -0.110 A  
HETATM   22  C   UNL     1      -8.685   6.003  69.438  1.00  0.00    -0.121 A  
HETATM   23  C   UNL     1     -10.136   5.853  67.545  1.00  0.00    -0.165 A  
HETATM   24 CL   UNL     1     -10.743   5.041  66.134  1.00  0.00    -0.340 Cl 
HETATM   25  C   UNL     1     -10.669   7.109  67.850  1.00  0.00    -0.258 A  
BRANCH  21  26
HETATM   26  N   UNL     1      -8.592   4.044  67.913  1.00  0.00    -0.095 N  
HETATM   27  H   UNL     1      -9.007   3.624  67.081  1.00  0.00     0.000 HD 
BRANCH  26  28
HETATM   28  C   UNL     1      -7.577   3.345  68.507  1.00  0.00    -0.052 C  
HETATM   29  O   UNL     1      -7.713   2.546  69.426  1.00  0.00    -0.043 OA 
BRANCH  28  30
HETATM   30  N   UNL     1      -6.342   3.630  67.963  1.00  0.00    -0.036 N  
HETATM   31  H   UNL     1      -6.140   3.366  66.998  1.00  0.00     0.000 HD 
BRANCH  30  32
HETATM   32  C   UNL     1      -5.345   4.291  68.740  1.00  0.00    -0.012 C  
HETATM   33  C   UNL     1      -5.669   5.334  69.769  1.00  0.00    -0.016 C  
HETATM   34  C   UNL     1      -5.230   3.969  70.206  1.00  0.00    -0.004 C  
ENDBRANCH  30  32
ENDBRANCH  28  30
ENDBRANCH  26  28
ENDBRANCH  21  26
ENDBRANCH  18  19
ENDBRANCH  11  18
ENDBRANCH   2   3
TORSDOF 8
ENDMDL
MODEL      181
REMARK 921   NORMALIZED FREE ENERGY PREDICTED BY IDOCK:   -3.98 KCAL/MOL
REMARK 922        TOTAL FREE ENERGY PREDICTED BY IDOCK:   -7.37 KCAL/MOL
REMARK 923 INTER-LIGAND FREE ENERGY PREDICTED BY IDOCK:   -6.48 KCAL/MOL
REMARK 924 INTRA-LIGAND FREE ENERGY PREDICTED BY IDOCK:   -0.89 KCAL/MOL
REMARK 927      BINDING AFFINITY PREDICTED BY RF-SCORE:    0.00 PKD
ROOT
HETATM    1  C   UNL     1      -7.675  20.428  68.274  1.00  0.00     0.009 C  
HETATM    2  O   UNL     1      -6.985  19.183  68.185  1.00  0.00    -0.240 OA 
ENDROOT
BRANCH   2   3
HETATM    3  C   UNL     1      -7.772  18.086  67.953  1.00  0.00    -0.230 A  
HETATM    4  C   UNL     1      -7.403  17.175  66.952  1.00  0.00    -0.242 A  
HETATM    5  N   UNL     1     -10.959  16.811  69.045  1.00  0.00    -0.281 NA 
HETATM    6  C   UNL     1      -8.249  16.080  66.666  1.00  0.00    -0.324 A  
HETATM    7  C   UNL     1      -9.821  16.841  68.350  1.00  0.00    -0.253 A  
HETATM    8  C   UNL     1      -9.477  15.895  67.357  1.00  0.00    -0.220 A  
HETATM    9  C   UNL     1     -11.864  15.885  68.717  1.00  0.00    -0.268 A  
HETATM   10  C   UNL     1      -8.980  17.900  68.625  1.00  0.00    -0.262 A  
HETATM   11  C   UNL     1     -10.423  14.857  67.108  1.00  0.00    -0.271 A  
HETATM   12  C   UNL     1     -11.660  14.940  67.736  1.00  0.00    -0.358 A  
BRANCH   4  13
HETATM   13  C   UNL     1      -6.101  17.328  66.238  1.00  0.00    -0.153 C  
HETATM   14  H2  UNL     1      -6.815  18.902  65.062  1.00  0.00     0.000 HD 
HETATM   15  H1  UNL     1      -5.129  18.408  64.792  1.00  0.00     0.000 HD 
HETATM   16  O   UNL     1      -5.129  16.620  66.464  1.00  0.00    -0.353 OA 
HETATM   17  N   UNL     1      -6.019  18.304  65.280  1.00  0.00    -0.207 N  
ENDBRANCH   4  13
BRANCH  11  18
HETATM   18  O   UNL     1     -10.091  13.912  66.152  1.00  0.00    -0.291 OA 
BRANCH  18  19
HETATM   19  C   UNL     1      -9.666  12.628  66.449  1.00  0.00    -0.258 A  
HETATM   20  C   UNL     1     -10.005  11.649  65.505  1.00  0.00    -0.277 A  
HETATM   21  C   UNL     1      -9.274   9.853  66.985  1.00  0.00    -0.142 A  
HETATM   22  C   UNL     1      -9.802  10.279  65.763  1.00  0.00    -0.320 A  
HETATM   23  C   UNL     1      -8.920  10.831  67.915  1.00  0.00    -0.139 A  
HETATM   24 CL   UNL     1      -8.267  10.399  69.465  1.00  0.00    -0.163 Cl 
HETATM   25  C   UNL     1      -9.106  12.191  67.645  1.00  0.00    -0.181 A  
BRANCH  21  26
HETATM   26  N   UNL     1      -9.121   8.499  67.357  1.00  0.00    -0.133 N  
HETATM   27  H   UNL     1      -8.511   8.313  68.154  1.00  0.00     0.000 HD 
BRANCH  26  28
HETATM   28  C   UNL     1      -9.702   7.410  66.768  1.00  0.00    -0.207 C  
HETATM   29  O   UNL     1     -10.903   7.159  66.774  1.00  0.00    -0.320 OA 
BRANCH  28  30
HETATM   30  N   UNL     1      -8.788   6.587  66.144  1.00  0.00    -0.150 N  
HETATM   31  H   UNL     1      -8.580   6.719  65.154  1.00  0.00     0.000 HD 
BRANCH  30  32
HETATM   32  C   UNL     1      -8.131   5.553  66.875  1.00  0.00    -0.101 C  
HETATM   33  C   UNL     1      -6.658   5.563  67.160  1.00  0.00    -0.057 C  
HETATM   34  C   UNL     1      -7.631   5.846  68.265  1.00  0.00    -0.090 C  
ENDBRANCH  30  32
ENDBRANCH  28  30
ENDBRANCH  26  28
ENDBRANCH  21  26
ENDBRANCH  18  19
ENDBRANCH  11  18
ENDBRANCH   2   3
TORSDOF 8
ENDMDL
MODEL      182
REMARK 921   NORMALIZED FREE ENERGY PREDICTED BY IDOCK:   -3.97 KCAL/MOL
REMARK 922        TOTAL FREE ENERGY PREDICTED BY IDOCK:   -7.37 KCAL/MOL
REMARK 923 INTER-LIGAND FREE ENERGY PREDICTED BY IDOCK:   -6.56 KCAL/MOL
REMARK 924 INTRA-LIGAND FREE ENERGY PREDICTED BY IDOCK:   -0.81 KCAL/MOL
REMARK 927      BINDING AFFINITY PREDICTED BY RF-SCORE:    0.00 PKD
ROOT
HETATM    1  C   UNL     1      -8.191   4.353  62.982  1.00  0.00    -0.088 C  
HETATM    2  O   UNL     1      -7.553   4.912  64.129  1.00  0.00    -0.065 OA 
ENDROOT
BRANCH   2   3
HETATM    3  C   UNL     1      -7.764   6.251  64.330  1.00  0.00    -0.107 A  
HETATM    4  C   UNL     1      -7.741   6.763  65.635  1.00  0.00    -0.102 A  
HETATM    5  N   UNL     1      -8.717   9.121  62.372  1.00  0.00    -0.225 NA 
HETATM    6  C   UNL     1      -8.024   8.131  65.848  1.00  0.00    -0.102 A  
HETATM    7  C   UNL     1      -8.383   8.437  63.468  1.00  0.00    -0.051 A  
HETATM    8  C   UNL     1      -8.357   8.993  64.768  1.00  0.00    -0.181 A  
HETATM    9  C   UNL     1      -9.137  10.380  62.529  1.00  0.00    -0.292 A  
HETATM   10  C   UNL     1      -8.093   7.102  63.274  1.00  0.00    -0.003 A  
HETATM   11  C   UNL     1      -8.710  10.370  64.882  1.00  0.00    -0.184 A  
HETATM   12  C   UNL     1      -9.198  11.012  63.750  1.00  0.00    -0.191 A  
BRANCH   4  13
HETATM   13  C   UNL     1      -7.359   5.885  66.780  1.00  0.00    -0.079 C  
HETATM   14  H2  UNL     1      -9.350   5.429  67.225  1.00  0.00     0.000 HD 
HETATM   15  H1  UNL     1      -8.112   4.684  68.260  1.00  0.00     0.000 HD 
HETATM   16  O   UNL     1      -6.198   5.698  67.120  1.00  0.00    -0.032 OA 
HETATM   17  N   UNL     1      -8.373   5.283  67.478  1.00  0.00    -0.107 N  
ENDBRANCH   4  13
BRANCH  11  18
HETATM   18  O   UNL     1      -8.669  10.933  66.146  1.00  0.00    -0.172 OA 
BRANCH  18  19
HETATM   19  C   UNL     1      -9.643  10.741  67.111  1.00  0.00    -0.161 A  
HETATM   20  C   UNL     1     -10.873  11.361  66.855  1.00  0.00    -0.335 A  
HETATM   21  C   UNL     1     -11.689  10.849  69.097  1.00  0.00    -0.326 A  
HETATM   22  C   UNL     1     -11.889  11.406  67.831  1.00  0.00    -0.239 A  
HETATM   23  C   UNL     1     -10.470  10.215  69.342  1.00  0.00    -0.233 A  
HETATM   24 CL   UNL     1     -10.124   9.505  70.888  1.00  0.00    -0.356 Cl 
HETATM   25  C   UNL     1      -9.473  10.157  68.363  1.00  0.00    -0.147 A  
BRANCH  21  26
HETATM   26  N   UNL     1     -12.619  10.929  70.158  1.00  0.00    -0.301 N  
HETATM   27  H   UNL     1     -13.223  10.118  70.293  1.00  0.00     0.000 HD 
BRANCH  26  28
HETATM   28  C   UNL     1     -12.797  11.973  71.023  1.00  0.00    -0.187 C  
HETATM   29  O   UNL     1     -13.408  11.915  72.085  1.00  0.00    -0.503 OA 
BRANCH  28  30
HETATM   30  N   UNL     1     -12.209  13.139  70.582  1.00  0.00    -0.441 N  
HETATM   31  H   UNL     1     -11.771  13.170  69.661  1.00  0.00     0.000 HD 
BRANCH  30  32
HETATM   32  C   UNL     1     -12.209  14.305  71.405  1.00  0.00    -0.331 C  
HETATM   33  C   UNL     1     -11.900  15.676  70.881  1.00  0.00    -0.428 C  
HETATM   34  C   UNL     1     -13.311  15.317  71.237  1.00  0.00    -0.586 C  
ENDBRANCH  30  32
ENDBRANCH  28  30
ENDBRANCH  26  28
ENDBRANCH  21  26
ENDBRANCH  18  19
ENDBRANCH  11  18
ENDBRANCH   2   3
TORSDOF 8
ENDMDL
MODEL      183
REMARK 921   NORMALIZED FREE ENERGY PREDICTED BY IDOCK:   -3.94 KCAL/MOL
REMARK 922        TOTAL FREE ENERGY PREDICTED BY IDOCK:   -7.32 KCAL/MOL
REMARK 923 INTER-LIGAND FREE ENERGY PREDICTED BY IDOCK:   -6.27 KCAL/MOL
REMARK 924 INTRA-LIGAND FREE ENERGY PREDICTED BY IDOCK:   -1.05 KCAL/MOL
REMARK 927      BINDING AFFINITY PREDICTED BY RF-SCORE:    0.00 PKD
ROOT
HETATM    1  C   UNL     1      -6.022   3.170  69.936  1.00  0.00    -0.023 C  
HETATM    2  O   UNL     1      -5.740   4.565  69.850  1.00  0.00    -0.015 OA 
ENDROOT
BRANCH   2   3
HETATM    3  C   UNL     1      -6.800   5.363  69.508  1.00  0.00    -0.057 A  
HETATM    4  C   UNL     1      -7.221   6.364  70.394  1.00  0.00    -0.083 A  
HETATM    5  N   UNL     1      -9.260   5.544  66.883  1.00  0.00    -0.117 NA 
HETATM    6  C   UNL     1      -8.355   7.143  70.070  1.00  0.00    -0.138 A  
HETATM    7  C   UNL     1      -8.643   5.889  68.014  1.00  0.00    -0.113 A  
HETATM    8  C   UNL     1      -9.091   6.916  68.876  1.00  0.00    -0.134 A  
HETATM    9  C   UNL     1     -10.420   6.145  66.599  1.00  0.00    -0.202 A  
HETATM   10  C   UNL     1      -7.528   5.144  68.337  1.00  0.00    -0.075 A  
HETATM   11  C   UNL     1     -10.276   7.608  68.485  1.00  0.00    -0.199 A  
HETATM   12  C   UNL     1     -10.978   7.126  67.387  1.00  0.00    -0.296 A  
BRANCH   4  13
HETATM   13  C   UNL     1      -6.444   6.645  71.637  1.00  0.00    -0.046 C  
HETATM   14  H2  UNL     1      -7.654   5.398  72.797  1.00  0.00     0.000 HD 
HETATM   15  H1  UNL     1      -6.320   6.218  73.637  1.00  0.00     0.000 HD 
HETATM   16  O   UNL     1      -5.483   7.403  71.666  1.00  0.00    -0.035 OA 
HETATM   17  N   UNL     1      -6.851   6.026  72.789  1.00  0.00    -0.073 N  
ENDBRANCH   4  13
BRANCH  11  18
HETATM   18  O   UNL     1     -10.715   8.630  69.309  1.00  0.00    -0.213 OA 
BRANCH  18  19
HETATM   19  C   UNL     1     -10.894   9.938  68.892  1.00  0.00    -0.210 A  
HETATM   20  C   UNL     1     -11.385  10.818  69.865  1.00  0.00    -0.385 A  
HETATM   21  C   UNL     1     -11.732  12.580  68.214  1.00  0.00    -0.340 A  
HETATM   22  C   UNL     1     -11.789  12.127  69.535  1.00  0.00    -0.386 A  
HETATM   23  C   UNL     1     -11.224  11.708  67.250  1.00  0.00    -0.304 A  
HETATM   24 CL   UNL     1     -11.125  12.177  65.581  1.00  0.00    -0.346 Cl 
HETATM   25  C   UNL     1     -10.807  10.417  67.588  1.00  0.00    -0.361 A  
BRANCH  21  26
HETATM   26  N   UNL     1     -12.198  13.843  67.785  1.00  0.00    -0.489 N  
HETATM   27  H   UNL     1     -13.055  13.846  67.231  1.00  0.00     0.000 HD 
BRANCH  26  28
HETATM   28  C   UNL     1     -11.627  15.061  68.030  1.00  0.00    -0.338 C  
HETATM   29  O   UNL     1     -11.677  15.663  69.097  1.00  0.00    -0.353 OA 
BRANCH  28  30
HETATM   30  N   UNL     1     -10.967  15.573  66.933  1.00  0.00    -0.302 N  
HETATM   31  H   UNL     1     -11.498  15.868  66.113  1.00  0.00     0.000 HD 
BRANCH  30  32
HETATM   32  C   UNL     1      -9.545  15.694  66.936  1.00  0.00    -0.230 C  
HETATM   33  C   UNL     1      -8.715  15.551  68.177  1.00  0.00    -0.164 C  
HETATM   34  C   UNL     1      -8.709  14.460  67.149  1.00  0.00    -0.243 C  
ENDBRANCH  30  32
ENDBRANCH  28  30
ENDBRANCH  26  28
ENDBRANCH  21  26
ENDBRANCH  18  19
ENDBRANCH  11  18
ENDBRANCH   2   3
TORSDOF 8
ENDMDL
MODEL      184
REMARK 921   NORMALIZED FREE ENERGY PREDICTED BY IDOCK:   -3.93 KCAL/MOL
REMARK 922        TOTAL FREE ENERGY PREDICTED BY IDOCK:   -7.30 KCAL/MOL
REMARK 923 INTER-LIGAND FREE ENERGY PREDICTED BY IDOCK:   -5.93 KCAL/MOL
REMARK 924 INTRA-LIGAND FREE ENERGY PREDICTED BY IDOCK:   -1.37 KCAL/MOL
REMARK 927      BINDING AFFINITY PREDICTED BY RF-SCORE:    0.00 PKD
ROOT
HETATM    1  C   UNL     1      -5.281  15.080  70.433  1.00  0.00    -0.119 C  
HETATM    2  O   UNL     1      -5.808  15.450  69.160  1.00  0.00    -0.101 OA 
ENDROOT
BRANCH   2   3
HETATM    3  C   UNL     1      -7.086  15.026  68.904  1.00  0.00    -0.119 A  
HETATM    4  C   UNL     1      -7.285  13.860  68.152  1.00  0.00    -0.120 A  
HETATM    5  N   UNL     1     -10.443  16.239  69.386  1.00  0.00    -0.272 NA 
HETATM    6  C   UNL     1      -8.602  13.459  67.831  1.00  0.00    -0.184 A  
HETATM    7  C   UNL     1      -9.485  15.405  68.978  1.00  0.00    -0.236 A  
HETATM    8  C   UNL     1      -9.727  14.228  68.233  1.00  0.00    -0.221 A  
HETATM    9  C   UNL     1     -11.694  15.991  68.986  1.00  0.00    -0.318 A  
HETATM   10  C   UNL     1      -8.195  15.778  69.295  1.00  0.00    -0.247 A  
HETATM   11  C   UNL     1     -11.088  13.940  67.916  1.00  0.00    -0.258 A  
HETATM   12  C   UNL     1     -12.044  14.902  68.220  1.00  0.00    -0.146 A  
BRANCH   4  13
HETATM   13  C   UNL     1      -6.121  13.017  67.748  1.00  0.00    -0.151 C  
HETATM   14  H2  UNL     1      -6.951  11.292  68.585  1.00  0.00     0.000 HD 
HETATM   15  H1  UNL     1      -5.364  11.114  67.804  1.00  0.00     0.000 HD 
HETATM   16  O   UNL     1      -5.149  13.463  67.153  1.00  0.00    -0.312 OA 
HETATM   17  N   UNL     1      -6.159  11.689  68.080  1.00  0.00    -0.045 N  
ENDBRANCH   4  13
BRANCH  11  18
HETATM   18  O   UNL     1     -11.341  12.781  67.204  1.00  0.00    -0.281 OA 
BRANCH  18  19
HETATM   19  C   UNL     1     -11.431  11.524  67.778  1.00  0.00    -0.286 A  
HETATM   20  C   UNL     1     -11.978  11.490  69.068  1.00  0.00    -0.377 A  
HETATM   21  C   UNL     1     -11.370   9.144  69.352  1.00  0.00     0.202 A  
HETATM   22  C   UNL     1     -11.959  10.313  69.843  1.00  0.00    -0.222 A  
HETATM   23  C   UNL     1     -10.843   9.176  68.060  1.00  0.00    -0.075 A  
HETATM   24 CL   UNL     1     -10.080   7.778  67.369  1.00  0.00    -0.261 Cl 
HETATM   25  C   UNL     1     -10.882  10.343  67.289  1.00  0.00    -0.324 A  
BRANCH  21  26
HETATM   26  N   UNL     1     -11.230   7.951  70.095  1.00  0.00    -0.408 N  
HETATM   27  H   UNL     1     -11.509   7.089  69.626  1.00  0.00     0.000 HD 
BRANCH  26  28
HETATM   28  C   UNL     1     -10.761   7.825  71.374  1.00  0.00    -0.222 C  
HETATM   29  O   UNL     1     -11.452   7.863  72.386  1.00  0.00    -0.324 OA 
BRANCH  28  30
HETATM   30  N   UNL     1      -9.395   7.646  71.427  1.00  0.00    -0.140 N  
HETATM   31  H   UNL     1      -8.996   6.726  71.236  1.00  0.00     0.000 HD 
BRANCH  30  32
HETATM   32  C   UNL     1      -8.535   8.738  71.749  1.00  0.00    -0.109 C  
HETATM   33  C   UNL     1      -7.044   8.678  71.591  1.00  0.00    -0.105 C  
HETATM   34  C   UNL     1      -7.862   9.489  70.631  1.00  0.00    -0.149 C  
ENDBRANCH  30  32
ENDBRANCH  28  30
ENDBRANCH  26  28
ENDBRANCH  21  26
ENDBRANCH  18  19
ENDBRANCH  11  18
ENDBRANCH   2   3
TORSDOF 8
ENDMDL
MODEL      185
REMARK 921   NORMALIZED FREE ENERGY PREDICTED BY IDOCK:   -3.92 KCAL/MOL
REMARK 922        TOTAL FREE ENERGY PREDICTED BY IDOCK:   -7.29 KCAL/MOL
REMARK 923 INTER-LIGAND FREE ENERGY PREDICTED BY IDOCK:   -5.85 KCAL/MOL
REMARK 924 INTRA-LIGAND FREE ENERGY PREDICTED BY IDOCK:   -1.43 KCAL/MOL
REMARK 927      BINDING AFFINITY PREDICTED BY RF-SCORE:    0.00 PKD
ROOT
HETATM    1  C   UNL     1      -8.736   2.926  64.013  1.00  0.00    -0.090 C  
HETATM    2  O   UNL     1      -8.794   3.446  65.341  1.00  0.00    -0.121 OA 
ENDROOT
BRANCH   2   3
HETATM    3  C   UNL     1      -8.422   4.757  65.479  1.00  0.00    -0.127 A  
HETATM    4  C   UNL     1      -8.489   5.361  66.742  1.00  0.00    -0.107 A  
HETATM    5  N   UNL     1      -7.473   7.498  63.342  1.00  0.00    -0.094 NA 
HETATM    6  C   UNL     1      -8.169   6.731  66.873  1.00  0.00    -0.113 A  
HETATM    7  C   UNL     1      -7.761   6.875  64.486  1.00  0.00    -0.116 A  
HETATM    8  C   UNL     1      -7.804   7.516  65.745  1.00  0.00    -0.107 A  
HETATM    9  C   UNL     1      -7.306   8.823  63.381  1.00  0.00    -0.100 A  
HETATM   10  C   UNL     1      -8.064   5.533  64.376  1.00  0.00    -0.124 A  
HETATM   11  C   UNL     1      -7.516   8.913  65.762  1.00  0.00    -0.089 A  
HETATM   12  C   UNL     1      -7.371   9.561  64.541  1.00  0.00    -0.114 A  
BRANCH   4  13
HETATM   13  C   UNL     1      -8.835   4.550  67.947  1.00  0.00    -0.107 C  
HETATM   14  H2  UNL     1      -6.829   4.166  68.389  1.00  0.00     0.000 HD 
HETATM   15  H1  UNL     1      -8.035   3.462  69.488  1.00  0.00     0.000 HD 
HETATM   16  O   UNL     1      -9.987   4.339  68.300  1.00  0.00    -0.085 OA 
HETATM   17  N   UNL     1      -7.799   4.016  68.666  1.00  0.00    -0.068 N  
ENDBRANCH   4  13
BRANCH  11  18
HETATM   18  O   UNL     1      -7.534   9.550  66.991  1.00  0.00    -0.090 OA 
BRANCH  18  19
HETATM   19  C   UNL     1      -8.413  10.567  67.321  1.00  0.00    -0.122 A  
HETATM   20  C   UNL     1      -7.881  11.863  67.268  1.00  0.00    -0.168 A  
HETATM   21  C   UNL     1      -9.865  12.809  68.328  1.00  0.00    -0.224 A  
HETATM   22  C   UNL     1      -8.601  12.973  67.754  1.00  0.00    -0.189 A  
HETATM   23  C   UNL     1     -10.399  11.520  68.362  1.00  0.00    -0.202 A  
HETATM   24 CL   UNL     1     -11.957  11.215  69.067  1.00  0.00    -0.408 Cl 
HETATM   25  C   UNL     1      -9.688  10.425  67.861  1.00  0.00    -0.168 A  
BRANCH  21  26
HETATM   26  N   UNL     1     -10.612  13.852  68.918  1.00  0.00    -0.309 N  
HETATM   27  H   UNL     1     -10.549  13.939  69.932  1.00  0.00     0.000 HD 
BRANCH  26  28
HETATM   28  C   UNL     1     -11.412  14.759  68.277  1.00  0.00    -0.317 C  
HETATM   29  O   UNL     1     -11.322  15.977  68.380  1.00  0.00    -0.355 OA 
BRANCH  28  30
HETATM   30  N   UNL     1     -12.364  14.162  67.478  1.00  0.00    -0.560 N  
HETATM   31  H   UNL     1     -13.046  13.526  67.891  1.00  0.00     0.000 HD 
BRANCH  30  32
HETATM   32  C   UNL     1     -12.401  14.429  66.077  1.00  0.00    -0.318 C  
HETATM   33  C   UNL     1     -11.260  14.115  65.155  1.00  0.00    -0.337 C  
HETATM   34  C   UNL     1     -12.500  13.273  65.117  1.00  0.00    -0.525 C  
ENDBRANCH  30  32
ENDBRANCH  28  30
ENDBRANCH  26  28
ENDBRANCH  21  26
ENDBRANCH  18  19
ENDBRANCH  11  18
ENDBRANCH   2   3
TORSDOF 8
ENDMDL
MODEL      186
REMARK 921   NORMALIZED FREE ENERGY PREDICTED BY IDOCK:   -3.91 KCAL/MOL
REMARK 922        TOTAL FREE ENERGY PREDICTED BY IDOCK:   -7.28 KCAL/MOL
REMARK 923 INTER-LIGAND FREE ENERGY PREDICTED BY IDOCK:   -6.10 KCAL/MOL
REMARK 924 INTRA-LIGAND FREE ENERGY PREDICTED BY IDOCK:   -1.18 KCAL/MOL
REMARK 927      BINDING AFFINITY PREDICTED BY RF-SCORE:    0.00 PKD
ROOT
HETATM    1  C   UNL     1     -14.410   8.782  72.420  1.00  0.00    -0.332 C  
HETATM    2  O   UNL     1     -13.448   8.842  71.369  1.00  0.00    -0.320 OA 
ENDROOT
BRANCH   2   3
HETATM    3  C   UNL     1     -12.139   8.729  71.758  1.00  0.00    -0.350 A  
HETATM    4  C   UNL     1     -11.181   9.594  71.210  1.00  0.00    -0.446 A  
HETATM    5  N   UNL     1     -10.138   6.506  73.765  1.00  0.00    -0.245 NA 
HETATM    6  C   UNL     1      -9.822   9.435  71.561  1.00  0.00    -0.088 A  
HETATM    7  C   UNL     1     -10.395   7.540  72.963  1.00  0.00    -0.322 A  
HETATM    8  C   UNL     1      -9.402   8.400  72.440  1.00  0.00    -0.356 A  
HETATM    9  C   UNL     1      -8.857   6.216  74.014  1.00  0.00    -0.127 A  
HETATM   10  C   UNL     1     -11.720   7.715  72.620  1.00  0.00    -0.323 A  
HETATM   11  C   UNL     1      -8.054   8.122  72.814  1.00  0.00    -0.165 A  
HETATM   12  C   UNL     1      -7.803   6.954  73.523  1.00  0.00    -0.103 A  
BRANCH   4  13
HETATM   13  C   UNL     1     -11.602  10.710  70.312  1.00  0.00    -0.336 C  
HETATM   14  H2  UNL     1     -12.660  11.672  71.836  1.00  0.00     0.000 HD 
HETATM   15  H1  UNL     1     -12.667  12.460  70.242  1.00  0.00     0.000 HD 
HETATM   16  O   UNL     1     -11.294  10.767  69.128  1.00  0.00    -0.240 OA 
HETATM   17  N   UNL     1     -12.380  11.698  70.856  1.00  0.00    -0.371 N  
ENDBRANCH   4  13
BRANCH  11  18
HETATM   18  O   UNL     1      -7.073   8.968  72.326  1.00  0.00    -0.323 OA 
BRANCH  18  19
HETATM   19  C   UNL     1      -6.609   8.944  71.022  1.00  0.00    -0.069 A  
HETATM   20  C   UNL     1      -5.974  10.116  70.588  1.00  0.00    -0.104 A  
HETATM   21  C   UNL     1      -5.913   9.324  68.281  1.00  0.00    -0.045 A  
HETATM   22  C   UNL     1      -5.620  10.301  69.236  1.00  0.00    -0.037 A  
HETATM   23  C   UNL     1      -6.528   8.151  68.719  1.00  0.00    -0.053 A  
HETATM   24 CL   UNL     1      -6.943   6.886  67.605  1.00  0.00    -0.080 Cl 
HETATM   25  C   UNL     1      -6.860   7.965  70.065  1.00  0.00    -0.045 A  
BRANCH  21  26
HETATM   26  N   UNL     1      -5.673   9.468  66.896  1.00  0.00    -0.050 N  
HETATM   27  H   UNL     1      -5.055   8.778  66.468  1.00  0.00     0.000 HD 
BRANCH  26  28
HETATM   28  C   UNL     1      -6.178  10.431  66.066  1.00  0.00    -0.110 C  
HETATM   29  O   UNL     1      -5.529  11.061  65.237  1.00  0.00    -0.148 OA 
BRANCH  28  30
HETATM   30  N   UNL     1      -7.528  10.641  66.249  1.00  0.00    -0.133 N  
HETATM   31  H   UNL     1      -7.846  11.403  66.848  1.00  0.00     0.000 HD 
BRANCH  30  32
HETATM   32  C   UNL     1      -8.484   9.799  65.607  1.00  0.00    -0.139 C  
HETATM   33  C   UNL     1      -9.966  10.005  65.727  1.00  0.00    -0.346 C  
HETATM   34  C   UNL     1      -9.270  10.343  64.443  1.00  0.00    -0.291 C  
ENDBRANCH  30  32
ENDBRANCH  28  30
ENDBRANCH  26  28
ENDBRANCH  21  26
ENDBRANCH  18  19
ENDBRANCH  11  18
ENDBRANCH   2   3
TORSDOF 8
ENDMDL
MODEL      187
REMARK 921   NORMALIZED FREE ENERGY PREDICTED BY IDOCK:   -3.84 KCAL/MOL
REMARK 922        TOTAL FREE ENERGY PREDICTED BY IDOCK:   -7.17 KCAL/MOL
REMARK 923 INTER-LIGAND FREE ENERGY PREDICTED BY IDOCK:   -5.79 KCAL/MOL
REMARK 924 INTRA-LIGAND FREE ENERGY PREDICTED BY IDOCK:   -1.38 KCAL/MOL
REMARK 927      BINDING AFFINITY PREDICTED BY RF-SCORE:    0.00 PKD
ROOT
HETATM    1  C   UNL     1     -13.111  11.870  63.145  1.00  0.00     0.310 C  
HETATM    2  O   UNL     1     -11.900  12.601  63.331  1.00  0.00    -0.502 OA 
ENDROOT
BRANCH   2   3
HETATM    3  C   UNL     1     -11.414  12.625  64.612  1.00  0.00    -0.330 A  
HETATM    4  C   UNL     1     -10.329  11.804  64.951  1.00  0.00    -0.334 A  
HETATM    5  N   UNL     1     -12.310  14.096  67.776  1.00  0.00    -0.154 NA 
HETATM    6  C   UNL     1      -9.871  11.779  66.288  1.00  0.00    -0.245 A  
HETATM    7  C   UNL     1     -11.602  13.355  66.923  1.00  0.00    -0.365 A  
HETATM    8  C   UNL     1     -10.503  12.550  67.301  1.00  0.00    -0.232 A  
HETATM    9  C   UNL     1     -12.018  13.999  69.076  1.00  0.00    -0.357 A  
HETATM   10  C   UNL     1     -12.031  13.378  65.612  1.00  0.00    -0.439 A  
HETATM   11  C   UNL     1     -10.152  12.553  68.683  1.00  0.00    -0.130 A  
HETATM   12  C   UNL     1     -10.999  13.213  69.567  1.00  0.00     0.024 A  
BRANCH   4  13
HETATM   13  C   UNL     1      -9.627  11.012  63.899  1.00  0.00    -0.272 C  
HETATM   14  H2  UNL     1     -10.031   9.197  64.852  1.00  0.00     0.000 HD 
HETATM   15  H1  UNL     1      -9.114   9.111  63.331  1.00  0.00     0.000 HD 
HETATM   16  O   UNL     1      -9.081  11.526  62.931  1.00  0.00    -0.283 OA 
HETATM   17  N   UNL     1      -9.593   9.652  64.050  1.00  0.00     0.031 N  
ENDBRANCH   4  13
BRANCH  11  18
HETATM   18  O   UNL     1      -9.066  11.786  69.065  1.00  0.00     0.053 OA 
BRANCH  18  19
HETATM   19  C   UNL     1      -9.161  10.483  69.522  1.00  0.00    -0.048 A  
HETATM   20  C   UNL     1      -8.193   9.599  69.026  1.00  0.00    -0.113 A  
HETATM   21  C   UNL     1      -9.350   7.671  69.974  1.00  0.00    -0.154 A  
HETATM   22  C   UNL     1      -8.279   8.211  69.257  1.00  0.00    -0.119 A  
HETATM   23  C   UNL     1     -10.302   8.556  70.483  1.00  0.00    -0.200 A  
HETATM   24 CL   UNL     1     -11.676   7.979  71.375  1.00  0.00    -0.303 Cl 
HETATM   25  C   UNL     1     -10.202   9.934  70.266  1.00  0.00    -0.322 A  
BRANCH  21  26
HETATM   26  N   UNL     1      -9.558   6.288  70.174  1.00  0.00    -0.162 N  
HETATM   27  H   UNL     1      -9.246   5.907  71.068  1.00  0.00     0.000 HD 
BRANCH  26  28
HETATM   28  C   UNL     1     -10.132   5.405  69.302  1.00  0.00    -0.231 C  
HETATM   29  O   UNL     1      -9.777   4.243  69.137  1.00  0.00    -0.183 OA 
BRANCH  28  30
HETATM   30  N   UNL     1     -11.182   5.954  68.597  1.00  0.00    -0.126 N  
HETATM   31  H   UNL     1     -12.055   6.173  69.076  1.00  0.00     0.000 HD 
BRANCH  30  32
HETATM   32  C   UNL     1     -11.055   6.220  67.200  1.00  0.00    -0.303 C  
HETATM   33  C   UNL     1     -10.563   7.530  66.659  1.00  0.00    -0.109 C  
HETATM   34  C   UNL     1      -9.678   6.321  66.600  1.00  0.00    -0.195 C  
ENDBRANCH  30  32
ENDBRANCH  28  30
ENDBRANCH  26  28
ENDBRANCH  21  26
ENDBRANCH  18  19
ENDBRANCH  11  18
ENDBRANCH   2   3
TORSDOF 8
ENDMDL
MODEL      188
REMARK 921   NORMALIZED FREE ENERGY PREDICTED BY IDOCK:   -3.83 KCAL/MOL
REMARK 922        TOTAL FREE ENERGY PREDICTED BY IDOCK:   -7.16 KCAL/MOL
REMARK 923 INTER-LIGAND FREE ENERGY PREDICTED BY IDOCK:   -6.72 KCAL/MOL
REMARK 924 INTRA-LIGAND FREE ENERGY PREDICTED BY IDOCK:   -0.44 KCAL/MOL
REMARK 927      BINDING AFFINITY PREDICTED BY RF-SCORE:    0.00 PKD
ROOT
HETATM    1  C   UNL     1     -13.352   8.879  72.322  1.00  0.00    -0.449 C  
HETATM    2  O   UNL     1     -12.364   9.878  72.077  1.00  0.00    -0.348 OA 
ENDROOT
BRANCH   2   3
HETATM    3  C   UNL     1     -11.311   9.489  71.291  1.00  0.00    -0.376 A  
HETATM    4  C   UNL     1     -11.114  10.107  70.049  1.00  0.00    -0.368 A  
HETATM    5  N   UNL     1      -8.777   6.929  71.308  1.00  0.00    -0.134 NA 
HETATM    6  C   UNL     1     -10.069   9.661  69.210  1.00  0.00    -0.201 A  
HETATM    7  C   UNL     1      -9.464   7.974  70.845  1.00  0.00    -0.161 A  
HETATM    8  C   UNL     1      -9.227   8.581  69.590  1.00  0.00    -0.157 A  
HETATM    9  C   UNL     1      -7.874   6.369  70.498  1.00  0.00    -0.107 A  
HETATM   10  C   UNL     1     -10.482   8.428  71.658  1.00  0.00    -0.321 A  
HETATM   11  C   UNL     1      -8.182   8.021  68.796  1.00  0.00    -0.126 A  
HETATM   12  C   UNL     1      -7.590   6.844  69.237  1.00  0.00    -0.096 A  
BRANCH   4  13
HETATM   13  C   UNL     1     -11.963  11.267  69.643  1.00  0.00    -0.353 C  
HETATM   14  H2  UNL     1     -11.910  12.106  71.556  1.00  0.00     0.000 HD 
HETATM   15  H1  UNL     1     -12.836  12.991  70.325  1.00  0.00     0.000 HD 
HETATM   16  O   UNL     1     -12.407  11.405  68.511  1.00  0.00    -0.504 OA 
HETATM   17  N   UNL     1     -12.257  12.199  70.602  1.00  0.00    -0.364 N  
ENDBRANCH   4  13
BRANCH  11  18
HETATM   18  O   UNL     1      -7.925   8.618  67.574  1.00  0.00    -0.104 OA 
BRANCH  18  19
HETATM   19  C   UNL     1      -7.804   9.985  67.390  1.00  0.00    -0.099 A  
HETATM   20  C   UNL     1      -6.862  10.621  68.210  1.00  0.00    -0.068 A  
HETATM   21  C   UNL     1      -7.626  12.831  67.513  1.00  0.00    -0.162 A  
HETATM   22  C   UNL     1      -6.765  12.026  68.264  1.00  0.00    -0.061 A  
HETATM   23  C   UNL     1      -8.551  12.194  66.683  1.00  0.00    -0.122 A  
HETATM   24 CL   UNL     1      -9.671  13.109  65.723  1.00  0.00    -0.205 Cl 
HETATM   25  C   UNL     1      -8.630  10.799  66.620  1.00  0.00    -0.143 A  
BRANCH  21  26
HETATM   26  N   UNL     1      -7.655  14.242  67.576  1.00  0.00    -0.177 N  
HETATM   27  H   UNL     1      -7.201  14.740  66.810  1.00  0.00     0.000 HD 
BRANCH  26  28
HETATM   28  C   UNL     1      -8.224  15.013  68.552  1.00  0.00    -0.151 C  
HETATM   29  O   UNL     1      -7.698  15.303  69.620  1.00  0.00    -0.219 OA 
BRANCH  28  30
HETATM   30  N   UNL     1      -9.488  15.451  68.218  1.00  0.00    -0.198 N  
HETATM   31  H   UNL     1      -9.600  16.242  67.583  1.00  0.00     0.000 HD 
BRANCH  30  32
HETATM   32  C   UNL     1     -10.642  14.805  68.754  1.00  0.00    -0.251 C  
HETATM   33  C   UNL     1     -11.860  15.553  69.210  1.00  0.00    -0.372 C  
HETATM   34  C   UNL     1     -11.904  14.767  67.934  1.00  0.00    -0.327 C  
ENDBRANCH  30  32
ENDBRANCH  28  30
ENDBRANCH  26  28
ENDBRANCH  21  26
ENDBRANCH  18  19
ENDBRANCH  11  18
ENDBRANCH   2   3
TORSDOF 8
ENDMDL
MODEL      189
REMARK 921   NORMALIZED FREE ENERGY PREDICTED BY IDOCK:   -3.82 KCAL/MOL
REMARK 922        TOTAL FREE ENERGY PREDICTED BY IDOCK:   -7.14 KCAL/MOL
REMARK 923 INTER-LIGAND FREE ENERGY PREDICTED BY IDOCK:   -6.21 KCAL/MOL
REMARK 924 INTRA-LIGAND FREE ENERGY PREDICTED BY IDOCK:   -0.93 KCAL/MOL
REMARK 927      BINDING AFFINITY PREDICTED BY RF-SCORE:    0.00 PKD
ROOT
HETATM    1  C   UNL     1      -6.944   3.196  63.231  1.00  0.00    -0.043 C  
HETATM    2  O   UNL     1      -8.138   3.968  63.341  1.00  0.00    -0.085 OA 
ENDROOT
BRANCH   2   3
HETATM    3  C   UNL     1      -7.986   5.219  63.880  1.00  0.00    -0.105 A  
HETATM    4  C   UNL     1      -8.611   5.524  65.097  1.00  0.00    -0.141 A  
HETATM    5  N   UNL     1      -6.545   8.378  62.920  1.00  0.00    -0.087 NA 
HETATM    6  C   UNL     1      -8.510   6.833  65.620  1.00  0.00    -0.142 A  
HETATM    7  C   UNL     1      -7.201   7.512  63.694  1.00  0.00    -0.079 A  
HETATM    8  C   UNL     1      -7.807   7.853  64.925  1.00  0.00    -0.126 A  
HETATM    9  C   UNL     1      -6.542   9.662  63.289  1.00  0.00    -0.111 A  
HETATM   10  C   UNL     1      -7.299   6.226  63.202  1.00  0.00    -0.063 A  
HETATM   11  C   UNL     1      -7.691   9.214  65.338  1.00  0.00    -0.098 A  
HETATM   12  C   UNL     1      -7.138  10.121  64.443  1.00  0.00    -0.111 A  
BRANCH   4  13
HETATM   13  C   UNL     1      -9.325   4.460  65.864  1.00  0.00    -0.161 C  
HETATM   14  H2  UNL     1     -11.198   5.077  65.172  1.00  0.00     0.000 HD 
HETATM   15  H1  UNL     1     -11.177   3.685  66.277  1.00  0.00     0.000 HD 
HETATM   16  O   UNL     1      -8.749   3.653  66.581  1.00  0.00    -0.110 OA 
HETATM   17  N   UNL     1     -10.690   4.412  65.754  1.00  0.00    -0.135 N  
ENDBRANCH   4  13
BRANCH  11  18
HETATM   18  O   UNL     1      -8.262   9.559  66.551  1.00  0.00    -0.117 OA 
BRANCH  18  19
HETATM   19  C   UNL     1      -8.903  10.762  66.790  1.00  0.00    -0.142 A  
HETATM   20  C   UNL     1     -10.295  10.745  66.629  1.00  0.00    -0.294 A  
HETATM   21  C   UNL     1     -10.430  13.173  66.825  1.00  0.00    -0.261 A  
HETATM   22  C   UNL     1     -11.053  11.933  66.657  1.00  0.00    -0.360 A  
HETATM   23  C   UNL     1      -9.046  13.185  67.004  1.00  0.00    -0.231 A  
HETATM   24 CL   UNL     1      -8.182  14.678  67.208  1.00  0.00    -0.222 Cl 
HETATM   25  C   UNL     1      -8.302  12.001  66.994  1.00  0.00    -0.178 A  
BRANCH  21  26
HETATM   26  N   UNL     1     -11.103  14.414  66.776  1.00  0.00    -0.315 N  
HETATM   27  H   UNL     1     -11.345  14.764  65.849  1.00  0.00     0.000 HD 
BRANCH  26  28
HETATM   28  C   UNL     1     -11.465  15.199  67.836  1.00  0.00    -0.332 C  
HETATM   29  O   UNL     1     -11.203  16.391  67.955  1.00  0.00    -0.325 OA 
BRANCH  28  30
HETATM   30  N   UNL     1     -12.175  14.509  68.795  1.00  0.00    -0.571 N  
HETATM   31  H   UNL     1     -12.889  13.837  68.512  1.00  0.00     0.000 HD 
BRANCH  30  32
HETATM   32  C   UNL     1     -11.918  14.726  70.182  1.00  0.00    -0.312 C  
HETATM   33  C   UNL     1     -12.750  15.638  71.034  1.00  0.00    -0.517 C  
HETATM   34  C   UNL     1     -12.869  14.153  71.199  1.00  0.00    -0.431 C  
ENDBRANCH  30  32
ENDBRANCH  28  30
ENDBRANCH  26  28
ENDBRANCH  21  26
ENDBRANCH  18  19
ENDBRANCH  11  18
ENDBRANCH   2   3
TORSDOF 8
ENDMDL
MODEL      190
REMARK 921   NORMALIZED FREE ENERGY PREDICTED BY IDOCK:   -3.82 KCAL/MOL
REMARK 922        TOTAL FREE ENERGY PREDICTED BY IDOCK:   -7.14 KCAL/MOL
REMARK 923 INTER-LIGAND FREE ENERGY PREDICTED BY IDOCK:   -5.99 KCAL/MOL
REMARK 924 INTRA-LIGAND FREE ENERGY PREDICTED BY IDOCK:   -1.15 KCAL/MOL
REMARK 927      BINDING AFFINITY PREDICTED BY RF-SCORE:    0.00 PKD
ROOT
HETATM    1  C   UNL     1     -14.342   8.458  72.144  1.00  0.00    -0.427 C  
HETATM    2  O   UNL     1     -13.187   9.170  72.585  1.00  0.00    -0.436 OA 
ENDROOT
BRANCH   2   3
HETATM    3  C   UNL     1     -12.296   9.517  71.603  1.00  0.00    -0.398 A  
HETATM    4  C   UNL     1     -11.101   8.795  71.474  1.00  0.00    -0.377 A  
HETATM    5  N   UNL     1     -11.902  12.138  69.164  1.00  0.00    -0.312 NA 
HETATM    6  C   UNL     1     -10.152   9.193  70.506  1.00  0.00    -0.288 A  
HETATM    7  C   UNL     1     -11.584  11.037  69.846  1.00  0.00    -0.337 A  
HETATM    8  C   UNL     1     -10.373  10.326  69.677  1.00  0.00    -0.281 A  
HETATM    9  C   UNL     1     -10.982  12.647  68.340  1.00  0.00    -0.257 A  
HETATM   10  C   UNL     1     -12.506  10.629  70.787  1.00  0.00    -0.480 A  
HETATM   11  C   UNL     1      -9.459  10.840  68.710  1.00  0.00    -0.182 A  
HETATM   12  C   UNL     1      -9.750  12.069  68.129  1.00  0.00    -0.199 A  
BRANCH   4  13
HETATM   13  C   UNL     1     -10.861   7.580  72.309  1.00  0.00    -0.258 C  
HETATM   14  H2  UNL     1      -9.935   8.681  73.824  1.00  0.00     0.000 HD 
HETATM   15  H1  UNL     1     -10.067   6.927  74.082  1.00  0.00     0.000 HD 
HETATM   16  O   UNL     1     -11.191   6.455  71.959  1.00  0.00    -0.253 OA 
HETATM   17  N   UNL     1     -10.230   7.757  73.511  1.00  0.00    -0.276 N  
ENDBRANCH   4  13
BRANCH  11  18
HETATM   18  O   UNL     1      -8.278  10.144  68.520  1.00  0.00    -0.104 OA 
BRANCH  18  19
HETATM   19  C   UNL     1      -8.085   9.207  67.518  1.00  0.00    -0.104 A  
HETATM   20  C   UNL     1      -8.622   7.938  67.770  1.00  0.00    -0.128 A  
HETATM   21  C   UNL     1      -7.500   6.987  65.823  1.00  0.00    -0.081 A  
HETATM   22  C   UNL     1      -8.344   6.842  66.928  1.00  0.00    -0.114 A  
HETATM   23  C   UNL     1      -6.983   8.257  65.564  1.00  0.00    -0.066 A  
HETATM   24 CL   UNL     1      -5.916   8.533  64.222  1.00  0.00    -0.065 Cl 
HETATM   25  C   UNL     1      -7.278   9.345  66.393  1.00  0.00    -0.089 A  
BRANCH  21  26
HETATM   26  N   UNL     1      -7.100   5.925  64.983  1.00  0.00    -0.062 N  
HETATM   27  H   UNL     1      -7.075   6.122  63.982  1.00  0.00     0.000 HD 
BRANCH  26  28
HETATM   28  C   UNL     1      -6.741   4.661  65.364  1.00  0.00    -0.052 C  
HETATM   29  O   UNL     1      -5.599   4.301  65.629  1.00  0.00    -0.016 OA 
BRANCH  28  30
HETATM   30  N   UNL     1      -7.812   3.796  65.425  1.00  0.00    -0.088 N  
HETATM   31  H   UNL     1      -8.510   3.799  64.680  1.00  0.00     0.000 HD 
BRANCH  30  32
HETATM   32  C   UNL     1      -7.952   2.895  66.523  1.00  0.00    -0.081 C  
HETATM   33  C   UNL     1      -8.307   3.345  67.909  1.00  0.00    -0.095 C  
HETATM   34  C   UNL     1      -9.326   2.628  67.076  1.00  0.00    -0.083 C  
ENDBRANCH  30  32
ENDBRANCH  28  30
ENDBRANCH  26  28
ENDBRANCH  21  26
ENDBRANCH  18  19
ENDBRANCH  11  18
ENDBRANCH   2   3
TORSDOF 8
ENDMDL
MODEL      191
REMARK 921   NORMALIZED FREE ENERGY PREDICTED BY IDOCK:   -3.81 KCAL/MOL
REMARK 922        TOTAL FREE ENERGY PREDICTED BY IDOCK:   -7.13 KCAL/MOL
REMARK 923 INTER-LIGAND FREE ENERGY PREDICTED BY IDOCK:   -6.82 KCAL/MOL
REMARK 924 INTRA-LIGAND FREE ENERGY PREDICTED BY IDOCK:   -0.31 KCAL/MOL
REMARK 927      BINDING AFFINITY PREDICTED BY RF-SCORE:    0.00 PKD
ROOT
HETATM    1  C   UNL     1      -5.766  14.122  71.152  1.00  0.00    -0.222 C  
HETATM    2  O   UNL     1      -5.131  13.106  70.377  1.00  0.00    -0.087 OA 
ENDROOT
BRANCH   2   3
HETATM    3  C   UNL     1      -5.948  12.095  69.944  1.00  0.00    -0.149 A  
HETATM    4  C   UNL     1      -6.507  12.164  68.660  1.00  0.00    -0.072 A  
HETATM    5  N   UNL     1      -7.475   9.133  71.310  1.00  0.00    -0.285 NA 
HETATM    6  C   UNL     1      -7.402  11.156  68.238  1.00  0.00    -0.090 A  
HETATM    7  C   UNL     1      -7.192  10.055  70.390  1.00  0.00    -0.108 A  
HETATM    8  C   UNL     1      -7.766  10.084  69.098  1.00  0.00    -0.104 A  
HETATM    9  C   UNL     1      -8.425   8.238  71.022  1.00  0.00    -0.133 A  
HETATM   10  C   UNL     1      -6.311  11.041  70.784  1.00  0.00     0.275 A  
HETATM   11  C   UNL     1      -8.698   9.050  68.789  1.00  0.00    -0.136 A  
HETATM   12  C   UNL     1      -9.086   8.196  69.815  1.00  0.00    -0.148 A  
BRANCH   4  13
HETATM   13  C   UNL     1      -6.112  13.260  67.726  1.00  0.00    -0.153 C  
HETATM   14  H2  UNL     1      -7.735  14.454  68.280  1.00  0.00     0.000 HD 
HETATM   15  H1  UNL     1      -6.637  15.124  67.054  1.00  0.00     0.000 HD 
HETATM   16  O   UNL     1      -5.131  13.195  66.996  1.00  0.00    -0.299 OA 
HETATM   17  N   UNL     1      -6.906  14.375  67.691  1.00  0.00    -0.180 N  
ENDBRANCH   4  13
BRANCH  11  18
HETATM   18  O   UNL     1      -9.253   9.054  67.521  1.00  0.00    -0.134 OA 
BRANCH  18  19
HETATM   19  C   UNL     1      -9.903  10.142  66.964  1.00  0.00    -0.191 A  
HETATM   20  C   UNL     1     -10.880  10.737  67.772  1.00  0.00    -0.320 A  
HETATM   21  C   UNL     1     -11.666  12.135  65.934  1.00  0.00    -0.328 A  
HETATM   22  C   UNL     1     -11.745  11.729  67.269  1.00  0.00    -0.293 A  
HETATM   23  C   UNL     1     -10.679  11.554  65.136  1.00  0.00    -0.289 A  
HETATM   24 CL   UNL     1     -10.512  11.984  63.462  1.00  0.00    -0.471 Cl 
HETATM   25  C   UNL     1      -9.812  10.583  65.647  1.00  0.00    -0.311 A  
BRANCH  21  26
HETATM   26  N   UNL     1     -12.550  13.055  65.328  1.00  0.00    -0.530 N  
HETATM   27  H   UNL     1     -13.523  12.760  65.238  1.00  0.00     0.000 HD 
BRANCH  26  28
HETATM   28  C   UNL     1     -12.245  14.300  64.849  1.00  0.00    -0.440 C  
HETATM   29  O   UNL     1     -12.604  14.748  63.765  1.00  0.00    -0.806 OA 
BRANCH  28  30
HETATM   30  N   UNL     1     -11.471  15.034  65.722  1.00  0.00    -0.289 N  
HETATM   31  H   UNL     1     -10.684  15.578  65.368  1.00  0.00     0.000 HD 
BRANCH  30  32
HETATM   32  C   UNL     1     -11.763  15.038  67.119  1.00  0.00    -0.215 C  
HETATM   33  C   UNL     1     -10.699  14.995  68.177  1.00  0.00    -0.256 C  
HETATM   34  C   UNL     1     -11.448  16.269  67.927  1.00  0.00    -0.056 C  
ENDBRANCH  30  32
ENDBRANCH  28  30
ENDBRANCH  26  28
ENDBRANCH  21  26
ENDBRANCH  18  19
ENDBRANCH  11  18
ENDBRANCH   2   3
TORSDOF 8
ENDMDL
MODEL      192
REMARK 921   NORMALIZED FREE ENERGY PREDICTED BY IDOCK:   -3.79 KCAL/MOL
REMARK 922        TOTAL FREE ENERGY PREDICTED BY IDOCK:   -7.10 KCAL/MOL
REMARK 923 INTER-LIGAND FREE ENERGY PREDICTED BY IDOCK:   -5.76 KCAL/MOL
REMARK 924 INTRA-LIGAND FREE ENERGY PREDICTED BY IDOCK:   -1.35 KCAL/MOL
REMARK 927      BINDING AFFINITY PREDICTED BY RF-SCORE:    0.00 PKD
ROOT
HETATM    1  C   UNL     1     -10.953  15.304  66.988  1.00  0.00    -0.324 C  
HETATM    2  O   UNL     1     -10.617  14.410  65.928  1.00  0.00    -0.289 OA 
ENDROOT
BRANCH   2   3
HETATM    3  C   UNL     1     -10.389  13.111  66.301  1.00  0.00    -0.287 A  
HETATM    4  C   UNL     1     -10.921  12.070  65.527  1.00  0.00    -0.345 A  
HETATM    5  N   UNL     1      -8.915  11.355  69.079  1.00  0.00     0.005 NA 
HETATM    6  C   UNL     1     -10.743  10.733  65.947  1.00  0.00    -0.143 A  
HETATM    7  C   UNL     1      -9.544  11.499  67.912  1.00  0.00    -0.177 A  
HETATM    8  C   UNL     1     -10.055  10.422  67.151  1.00  0.00    -0.254 A  
HETATM    9  C   UNL     1      -8.845  10.126  69.600  1.00  0.00    -0.164 A  
HETATM   10  C   UNL     1      -9.716  12.799  67.483  1.00  0.00    -0.201 A  
HETATM   11  C   UNL     1      -9.869   9.114  67.689  1.00  0.00    -0.172 A  
HETATM   12  C   UNL     1      -9.347   9.007  68.973  1.00  0.00    -0.140 A  
BRANCH   4  13
HETATM   13  C   UNL     1     -11.616  12.369  64.240  1.00  0.00    -0.368 C  
HETATM   14  H2  UNL     1      -9.957  11.812  63.098  1.00  0.00     0.000 HD 
HETATM   15  H1  UNL     1     -11.391  12.364  62.203  1.00  0.00     0.000 HD 
HETATM   16  O   UNL     1     -12.761  12.798  64.184  1.00  0.00    -0.658 OA 
HETATM   17  N   UNL     1     -10.916  12.160  63.082  1.00  0.00    -0.297 N  
ENDBRANCH   4  13
BRANCH  11  18
HETATM   18  O   UNL     1     -10.346   8.049  66.946  1.00  0.00    -0.306 OA 
BRANCH  18  19
HETATM   19  C   UNL     1      -9.572   6.968  66.557  1.00  0.00    -0.144 A  
HETATM   20  C   UNL     1      -8.598   7.244  65.588  1.00  0.00    -0.123 A  
HETATM   21  C   UNL     1      -8.112   4.872  65.286  1.00  0.00    -0.115 A  
HETATM   22  C   UNL     1      -7.867   6.210  64.967  1.00  0.00    -0.110 A  
HETATM   23  C   UNL     1      -9.069   4.602  66.265  1.00  0.00    -0.122 A  
HETATM   24 CL   UNL     1      -9.450   2.970  66.720  1.00  0.00    -0.118 Cl 
HETATM   25  C   UNL     1      -9.777   5.633  66.891  1.00  0.00    -0.162 A  
BRANCH  21  26
HETATM   26  N   UNL     1      -7.489   3.776  64.649  1.00  0.00    -0.071 N  
HETATM   27  H   UNL     1      -6.932   3.161  65.243  1.00  0.00     0.000 HD 
BRANCH  26  28
HETATM   28  C   UNL     1      -7.552   3.447  63.322  1.00  0.00    -0.063 C  
HETATM   29  O   UNL     1      -6.834   3.914  62.444  1.00  0.00    -0.029 OA 
BRANCH  28  30
HETATM   30  N   UNL     1      -8.528   2.514  63.048  1.00  0.00    -0.081 N  
HETATM   31  H   UNL     1      -8.337   1.522  63.193  1.00  0.00     0.000 HD 
BRANCH  30  32
HETATM   32  C   UNL     1      -9.805   2.925  62.560  1.00  0.00    -0.092 C  
HETATM   33  C   UNL     1     -11.020   2.047  62.610  1.00  0.00    -0.201 C  
HETATM   34  C   UNL     1     -10.905   3.211  63.547  1.00  0.00    -0.206 C  
ENDBRANCH  30  32
ENDBRANCH  28  30
ENDBRANCH  26  28
ENDBRANCH  21  26
ENDBRANCH  18  19
ENDBRANCH  11  18
ENDBRANCH   2   3
TORSDOF 8
ENDMDL
MODEL      193
REMARK 921   NORMALIZED FREE ENERGY PREDICTED BY IDOCK:   -3.79 KCAL/MOL
REMARK 922        TOTAL FREE ENERGY PREDICTED BY IDOCK:   -7.10 KCAL/MOL
REMARK 923 INTER-LIGAND FREE ENERGY PREDICTED BY IDOCK:   -7.87 KCAL/MOL
REMARK 924 INTRA-LIGAND FREE ENERGY PREDICTED BY IDOCK:    0.77 KCAL/MOL
REMARK 927      BINDING AFFINITY PREDICTED BY RF-SCORE:    0.00 PKD
ROOT
HETATM    1  C   UNL     1     -13.760   9.464  72.374  1.00  0.00    -0.400 C  
HETATM    2  O   UNL     1     -12.832  10.273  71.653  1.00  0.00    -0.391 OA 
ENDROOT
BRANCH   2   3
HETATM    3  C   UNL     1     -11.687   9.639  71.247  1.00  0.00    -0.382 A  
HETATM    4  C   UNL     1     -11.152   9.929  69.984  1.00  0.00    -0.335 A  
HETATM    5  N   UNL     1      -9.542   6.995  72.425  1.00  0.00    -0.146 NA 
HETATM    6  C   UNL     1     -10.010   9.227  69.537  1.00  0.00    -0.194 A  
HETATM    7  C   UNL     1      -9.982   7.942  71.595  1.00  0.00    -0.181 A  
HETATM    8  C   UNL     1      -9.406   8.216  70.333  1.00  0.00    -0.158 A  
HETATM    9  C   UNL     1      -8.558   6.200  71.995  1.00  0.00    -0.132 A  
HETATM   10  C   UNL     1     -11.090   8.644  72.022  1.00  0.00    -0.437 A  
HETATM   11  C   UNL     1      -8.288   7.415  69.953  1.00  0.00    -0.134 A  
HETATM   12  C   UNL     1      -7.951   6.341  70.768  1.00  0.00    -0.112 A  
BRANCH   4  13
HETATM   13  C   UNL     1     -11.747  11.011  69.145  1.00  0.00    -0.333 C  
HETATM   14  H2  UNL     1     -11.746  12.376  70.727  1.00  0.00     0.000 HD 
HETATM   15  H1  UNL     1     -12.380  12.960  69.173  1.00  0.00     0.000 HD 
HETATM   16  O   UNL     1     -12.044  10.856  67.968  1.00  0.00    -0.563 OA 
HETATM   17  N   UNL     1     -11.974  12.221  69.745  1.00  0.00    -0.313 N  
ENDBRANCH   4  13
BRANCH  11  18
HETATM   18  O   UNL     1      -7.701   7.685  68.729  1.00  0.00    -0.112 OA 
BRANCH  18  19
HETATM   19  C   UNL     1      -7.864   8.874  68.038  1.00  0.00    -0.102 A  
HETATM   20  C   UNL     1      -7.339  10.011  68.666  1.00  0.00    -0.081 A  
HETATM   21  C   UNL     1      -8.400  11.495  67.046  1.00  0.00    -0.165 A  
HETATM   22  C   UNL     1      -7.594  11.306  68.171  1.00  0.00    -0.105 A  
HETATM   23  C   UNL     1      -8.905  10.359  66.411  1.00  0.00    -0.147 A  
HETATM   24 CL   UNL     1      -9.927  10.493  65.014  1.00  0.00    -0.364 Cl 
HETATM   25  C   UNL     1      -8.634   9.076  66.896  1.00  0.00    -0.128 A  
BRANCH  21  26
HETATM   26  N   UNL     1      -8.776  12.759  66.539  1.00  0.00    -0.425 N  
HETATM   27  H   UNL     1      -8.311  13.062  65.683  1.00  0.00     0.000 HD 
BRANCH  26  28
HETATM   28  C   UNL     1      -9.697  13.621  67.069  1.00  0.00    -0.251 C  
HETATM   29  O   UNL     1      -9.503  14.357  68.031  1.00  0.00    -0.197 OA 
BRANCH  28  30
HETATM   30  N   UNL     1     -10.905  13.588  66.406  1.00  0.00    -0.289 N  
HETATM   31  H   UNL     1     -11.732  13.219  66.876  1.00  0.00     0.000 HD 
BRANCH  30  32
HETATM   32  C   UNL     1     -11.007  14.067  65.066  1.00  0.00    -0.375 C  
HETATM   33  C   UNL     1     -11.721  13.315  63.981  1.00  0.00    -0.483 C  
HETATM   34  C   UNL     1     -12.341  14.549  64.563  1.00  0.00    -0.434 C  
ENDBRANCH  30  32
ENDBRANCH  28  30
ENDBRANCH  26  28
ENDBRANCH  21  26
ENDBRANCH  18  19
ENDBRANCH  11  18
ENDBRANCH   2   3
TORSDOF 8
ENDMDL
MODEL      194
REMARK 921   NORMALIZED FREE ENERGY PREDICTED BY IDOCK:   -3.78 KCAL/MOL
REMARK 922        TOTAL FREE ENERGY PREDICTED BY IDOCK:   -7.08 KCAL/MOL
REMARK 923 INTER-LIGAND FREE ENERGY PREDICTED BY IDOCK:   -6.13 KCAL/MOL
REMARK 924 INTRA-LIGAND FREE ENERGY PREDICTED BY IDOCK:   -0.94 KCAL/MOL
REMARK 927      BINDING AFFINITY PREDICTED BY RF-SCORE:    0.00 PKD
ROOT
HETATM    1  C   UNL     1     -10.494  17.918  67.620  1.00  0.00    -0.397 C  
HETATM    2  O   UNL     1     -10.747  16.997  66.561  1.00  0.00    -0.212 OA 
ENDROOT
BRANCH   2   3
HETATM    3  C   UNL     1     -10.103  15.791  66.660  1.00  0.00    -0.279 A  
HETATM    4  C   UNL     1     -10.657  14.663  66.038  1.00  0.00    -0.314 A  
HETATM    5  N   UNL     1      -7.274  14.418  68.415  1.00  0.00    -0.105 NA 
HETATM    6  C   UNL     1     -10.028  13.407  66.195  1.00  0.00    -0.299 A  
HETATM    7  C   UNL     1      -8.339  14.418  67.612  1.00  0.00    -0.179 A  
HETATM    8  C   UNL     1      -8.859  13.260  66.991  1.00  0.00    -0.216 A  
HETATM    9  C   UNL     1      -6.725  13.238  68.720  1.00  0.00    -0.099 A  
HETATM   10  C   UNL     1      -8.957  15.640  67.440  1.00  0.00    -0.205 A  
HETATM   11  C   UNL     1      -8.183  12.033  67.255  1.00  0.00    -0.173 A  
HETATM   12  C   UNL     1      -7.174  12.039  68.212  1.00  0.00    -0.090 A  
BRANCH   4  13
HETATM   13  C   UNL     1     -11.863  14.798  65.169  1.00  0.00    -0.313 C  
HETATM   14  H2  UNL     1     -13.039  13.637  66.448  1.00  0.00     0.000 HD 
HETATM   15  H1  UNL     1     -13.834  14.267  64.988  1.00  0.00     0.000 HD 
HETATM   16  O   UNL     1     -11.861  15.424  64.117  1.00  0.00    -0.437 OA 
HETATM   17  N   UNL     1     -13.010  14.174  65.581  1.00  0.00    -0.410 N  
ENDBRANCH   4  13
BRANCH  11  18
HETATM   18  O   UNL     1      -8.669  10.894  66.638  1.00  0.00    -0.146 OA 
BRANCH  18  19
HETATM   19  C   UNL     1      -8.856   9.683  67.283  1.00  0.00    -0.132 A  
HETATM   20  C   UNL     1      -9.567   9.748  68.489  1.00  0.00    -0.155 A  
HETATM   21  C   UNL     1      -9.044   7.423  69.016  1.00  0.00    -0.133 A  
HETATM   22  C   UNL     1      -9.670   8.630  69.341  1.00  0.00    -0.176 A  
HETATM   23  C   UNL     1      -8.353   7.357  67.805  1.00  0.00    -0.118 A  
HETATM   24 CL   UNL     1      -7.532   5.905  67.320  1.00  0.00    -0.080 Cl 
HETATM   25  C   UNL     1      -8.270   8.464  66.955  1.00  0.00    -0.103 A  
BRANCH  21  26
HETATM   26  N   UNL     1      -9.023   6.286  69.853  1.00  0.00    -0.140 N  
HETATM   27  H   UNL     1      -9.695   5.549  69.635  1.00  0.00     0.000 HD 
BRANCH  26  28
HETATM   28  C   UNL     1      -8.201   6.064  70.924  1.00  0.00    -0.125 C  
HETATM   29  O   UNL     1      -6.979   6.156  70.907  1.00  0.00    -0.064 OA 
BRANCH  28  30
HETATM   30  N   UNL     1      -8.892   5.712  72.064  1.00  0.00    -0.138 N  
HETATM   31  H   UNL     1      -8.498   5.925  72.981  1.00  0.00     0.000 HD 
BRANCH  30  32
HETATM   32  C   UNL     1     -10.154   5.053  71.971  1.00  0.00    -0.196 C  
HETATM   33  C   UNL     1     -10.981   4.697  73.171  1.00  0.00    -0.364 C  
HETATM   34  C   UNL     1     -11.406   5.827  72.283  1.00  0.00    -0.334 C  
ENDBRANCH  30  32
ENDBRANCH  28  30
ENDBRANCH  26  28
ENDBRANCH  21  26
ENDBRANCH  18  19
ENDBRANCH  11  18
ENDBRANCH   2   3
TORSDOF 8
ENDMDL
MODEL      195
REMARK 921   NORMALIZED FREE ENERGY PREDICTED BY IDOCK:   -3.76 KCAL/MOL
REMARK 922        TOTAL FREE ENERGY PREDICTED BY IDOCK:   -7.06 KCAL/MOL
REMARK 923 INTER-LIGAND FREE ENERGY PREDICTED BY IDOCK:   -6.28 KCAL/MOL
REMARK 924 INTRA-LIGAND FREE ENERGY PREDICTED BY IDOCK:   -0.78 KCAL/MOL
REMARK 927      BINDING AFFINITY PREDICTED BY RF-SCORE:    0.00 PKD
ROOT
HETATM    1  C   UNL     1     -12.472  14.235  64.045  1.00  0.00    -0.129 C  
HETATM    2  O   UNL     1     -12.329  14.377  65.457  1.00  0.00    -0.392 OA 
ENDROOT
BRANCH   2   3
HETATM    3  C   UNL     1     -11.041  14.474  65.914  1.00  0.00    -0.327 A  
HETATM    4  C   UNL     1     -10.528  13.469  66.746  1.00  0.00    -0.273 A  
HETATM    5  N   UNL     1      -8.366  16.886  65.851  1.00  0.00    -0.485 NA 
HETATM    6  C   UNL     1      -9.223  13.602  67.271  1.00  0.00    -0.232 A  
HETATM    7  C   UNL     1      -8.984  15.746  66.161  1.00  0.00    -0.337 A  
HETATM    8  C   UNL     1      -8.428  14.747  66.993  1.00  0.00    -0.250 A  
HETATM    9  C   UNL     1      -7.191  17.136  66.437  1.00  0.00    -0.290 A  
HETATM   10  C   UNL     1     -10.256  15.596  65.646  1.00  0.00    -0.402 A  
HETATM   11  C   UNL     1      -7.126  15.002  67.515  1.00  0.00    -0.197 A  
HETATM   12  C   UNL     1      -6.573  16.259  67.300  1.00  0.00    -0.228 A  
BRANCH   4  13
HETATM   13  C   UNL     1     -11.330  12.241  67.024  1.00  0.00    -0.334 C  
HETATM   14  H2  UNL     1     -10.480  11.201  65.423  1.00  0.00     0.000 HD 
HETATM   15  H1  UNL     1     -11.690  10.326  66.388  1.00  0.00     0.000 HD 
HETATM   16  O   UNL     1     -12.143  12.167  67.936  1.00  0.00    -0.502 OA 
HETATM   17  N   UNL     1     -11.142  11.165  66.198  1.00  0.00    -0.156 N  
ENDBRANCH   4  13
BRANCH  11  18
HETATM   18  O   UNL     1      -6.560  14.024  68.315  1.00  0.00    -0.088 OA 
BRANCH  18  19
HETATM   19  C   UNL     1      -6.601  12.670  68.027  1.00  0.00    -0.095 A  
HETATM   20  C   UNL     1      -7.066  11.849  69.063  1.00  0.00    -0.092 A  
HETATM   21  C   UNL     1      -6.418   9.827  67.862  1.00  0.00    -0.060 A  
HETATM   22  C   UNL     1      -6.987  10.444  68.979  1.00  0.00    -0.071 A  
HETATM   23  C   UNL     1      -5.973  10.647  66.824  1.00  0.00    -0.069 A  
HETATM   24 CL   UNL     1      -5.240   9.973  65.401  1.00  0.00    -0.051 Cl 
HETATM   25  C   UNL     1      -6.071  12.040  66.905  1.00  0.00    -0.076 A  
BRANCH  21  26
HETATM   26  N   UNL     1      -6.220   8.434  67.737  1.00  0.00    -0.051 N  
HETATM   27  H   UNL     1      -5.278   8.130  67.487  1.00  0.00     0.000 HD 
BRANCH  26  28
HETATM   28  C   UNL     1      -7.152   7.448  67.914  1.00  0.00    -0.085 C  
HETATM   29  O   UNL     1      -7.259   6.750  68.916  1.00  0.00    -0.086 OA 
BRANCH  28  30
HETATM   30  N   UNL     1      -7.989   7.302  66.829  1.00  0.00    -0.116 N  
HETATM   31  H   UNL     1      -7.695   6.733  66.034  1.00  0.00     0.000 HD 
BRANCH  30  32
HETATM   32  C   UNL     1      -9.265   7.942  66.809  1.00  0.00    -0.166 C  
HETATM   33  C   UNL     1     -10.539   7.233  67.161  1.00  0.00    -0.416 C  
HETATM   34  C   UNL     1      -9.955   8.233  68.114  1.00  0.00    -0.224 C  
ENDBRANCH  30  32
ENDBRANCH  28  30
ENDBRANCH  26  28
ENDBRANCH  21  26
ENDBRANCH  18  19
ENDBRANCH  11  18
ENDBRANCH   2   3
TORSDOF 8
ENDMDL
MODEL      196
REMARK 921   NORMALIZED FREE ENERGY PREDICTED BY IDOCK:   -3.75 KCAL/MOL
REMARK 922        TOTAL FREE ENERGY PREDICTED BY IDOCK:   -7.03 KCAL/MOL
REMARK 923 INTER-LIGAND FREE ENERGY PREDICTED BY IDOCK:   -6.01 KCAL/MOL
REMARK 924 INTRA-LIGAND FREE ENERGY PREDICTED BY IDOCK:   -1.03 KCAL/MOL
REMARK 927      BINDING AFFINITY PREDICTED BY RF-SCORE:    0.00 PKD
ROOT
HETATM    1  C   UNL     1     -10.374  15.840  67.952  1.00  0.00    -0.261 C  
HETATM    2  O   UNL     1     -11.000  14.980  67.001  1.00  0.00    -0.307 OA 
ENDROOT
BRANCH   2   3
HETATM    3  C   UNL     1     -10.459  13.726  66.892  1.00  0.00    -0.272 A  
HETATM    4  C   UNL     1     -10.943  12.851  65.910  1.00  0.00    -0.300 A  
HETATM    5  N   UNL     1      -8.117  11.668  68.697  1.00  0.00    -0.144 NA 
HETATM    6  C   UNL     1     -10.432  11.535  65.840  1.00  0.00    -0.303 A  
HETATM    7  C   UNL     1      -9.000  11.980  67.748  1.00  0.00    -0.176 A  
HETATM    8  C   UNL     1      -9.454  11.073  66.762  1.00  0.00    -0.203 A  
HETATM    9  C   UNL     1      -7.709  10.398  68.773  1.00  0.00    -0.104 A  
HETATM   10  C   UNL     1      -9.500  13.265  67.796  1.00  0.00    -0.208 A  
HETATM   11  C   UNL     1      -8.915   9.753  66.811  1.00  0.00    -0.138 A  
HETATM   12  C   UNL     1      -8.117   9.416  67.898  1.00  0.00    -0.103 A  
BRANCH   4  13
HETATM   13  C   UNL     1     -11.944  13.324  64.908  1.00  0.00    -0.378 C  
HETATM   14  H2  UNL     1     -13.361  13.761  66.380  1.00  0.00     0.000 HD 
HETATM   15  H1  UNL     1     -13.836  14.083  64.698  1.00  0.00     0.000 HD 
HETATM   16  O   UNL     1     -11.732  13.325  63.703  1.00  0.00    -0.440 OA 
HETATM   17  N   UNL     1     -13.153  13.760  65.382  1.00  0.00    -0.319 N  
ENDBRANCH   4  13
BRANCH  11  18
HETATM   18  O   UNL     1      -9.335   8.860  65.840  1.00  0.00    -0.219 OA 
BRANCH  18  19
HETATM   19  C   UNL     1      -9.447   7.495  66.042  1.00  0.00     0.056 A  
HETATM   20  C   UNL     1     -10.581   7.083  66.755  1.00  0.00    -0.297 A  
HETATM   21  C   UNL     1      -9.733   4.803  66.945  1.00  0.00    -0.188 A  
HETATM   22  C   UNL     1     -10.729   5.751  67.192  1.00  0.00    -0.358 A  
HETATM   23  C   UNL     1      -8.615   5.212  66.218  1.00  0.00    -0.114 A  
HETATM   24 CL   UNL     1      -7.319   4.108  65.871  1.00  0.00    -0.075 Cl 
HETATM   25  C   UNL     1      -8.481   6.530  65.770  1.00  0.00    -0.149 A  
BRANCH  21  26
HETATM   26  N   UNL     1      -9.763   3.474  67.423  1.00  0.00    -0.285 N  
HETATM   27  H   UNL     1     -10.116   2.767  66.778  1.00  0.00     0.000 HD 
BRANCH  26  28
HETATM   28  C   UNL     1      -9.370   3.032  68.657  1.00  0.00    -0.173 C  
HETATM   29  O   UNL     1      -9.038   1.882  68.922  1.00  0.00    -0.099 OA 
BRANCH  28  30
HETATM   30  N   UNL     1      -9.381   4.027  69.610  1.00  0.00    -0.155 N  
HETATM   31  H   UNL     1     -10.270   4.364  69.982  1.00  0.00     0.000 HD 
BRANCH  30  32
HETATM   32  C   UNL     1      -8.157   4.590  70.082  1.00  0.00    -0.063 C  
HETATM   33  C   UNL     1      -7.786   6.029  69.877  1.00  0.00    -0.104 C  
HETATM   34  C   UNL     1      -8.195   5.553  71.238  1.00  0.00    -0.125 C  
ENDBRANCH  30  32
ENDBRANCH  28  30
ENDBRANCH  26  28
ENDBRANCH  21  26
ENDBRANCH  18  19
ENDBRANCH  11  18
ENDBRANCH   2   3
TORSDOF 8
ENDMDL
MODEL      197
REMARK 921   NORMALIZED FREE ENERGY PREDICTED BY IDOCK:   -3.71 KCAL/MOL
REMARK 922        TOTAL FREE ENERGY PREDICTED BY IDOCK:   -6.98 KCAL/MOL
REMARK 923 INTER-LIGAND FREE ENERGY PREDICTED BY IDOCK:   -6.64 KCAL/MOL
REMARK 924 INTRA-LIGAND FREE ENERGY PREDICTED BY IDOCK:   -0.33 KCAL/MOL
REMARK 927      BINDING AFFINITY PREDICTED BY RF-SCORE:    0.00 PKD
ROOT
HETATM    1  C   UNL     1     -11.975  15.089  73.776  1.00  0.00    -0.332 C  
HETATM    2  O   UNL     1     -12.974  15.255  72.772  1.00  0.00    -0.362 OA 
ENDROOT
BRANCH   2   3
HETATM    3  C   UNL     1     -12.568  15.009  71.487  1.00  0.00    -0.340 A  
HETATM    4  C   UNL     1     -12.634  13.702  70.983  1.00  0.00    -0.441 A  
HETATM    5  N   UNL     1     -10.978  16.810  68.803  1.00  0.00    -0.309 NA 
HETATM    6  C   UNL     1     -12.153  13.436  69.681  1.00  0.00    -0.349 A  
HETATM    7  C   UNL     1     -11.521  15.764  69.427  1.00  0.00    -0.355 A  
HETATM    8  C   UNL     1     -11.582  14.462  68.880  1.00  0.00    -0.340 A  
HETATM    9  C   UNL     1     -10.375  16.590  67.631  1.00  0.00    -0.291 A  
HETATM   10  C   UNL     1     -12.005  16.012  70.696  1.00  0.00    -0.300 A  
HETATM   11  C   UNL     1     -11.022  14.287  67.580  1.00  0.00    -0.277 A  
HETATM   12  C   UNL     1     -10.330  15.355  67.022  1.00  0.00    -0.280 A  
BRANCH   4  13
HETATM   13  C   UNL     1     -13.261  12.615  71.792  1.00  0.00    -0.359 C  
HETATM   14  H2  UNL     1     -14.816  13.853  72.436  1.00  0.00     0.000 HD 
HETATM   15  H1  UNL     1     -14.836  12.178  73.029  1.00  0.00     0.000 HD 
HETATM   16  O   UNL     1     -12.791  11.488  71.873  1.00  0.00    -0.384 OA 
HETATM   17  N   UNL     1     -14.407  12.920  72.477  1.00  0.00    -0.026 N  
ENDBRANCH   4  13
BRANCH  11  18
HETATM   18  O   UNL     1     -11.093  13.022  67.024  1.00  0.00    -0.267 OA 
BRANCH  18  19
HETATM   19  C   UNL     1     -10.048  12.114  67.032  1.00  0.00    -0.204 A  
HETATM   20  C   UNL     1     -10.424  10.764  67.006  1.00  0.00    -0.297 A  
HETATM   21  C   UNL     1      -8.137  10.034  67.443  1.00  0.00    -0.114 A  
HETATM   22  C   UNL     1      -9.480   9.735  67.198  1.00  0.00    -0.189 A  
HETATM   23  C   UNL     1      -7.763  11.378  67.449  1.00  0.00    -0.135 A  
HETATM   24 CL   UNL     1      -6.120  11.849  67.758  1.00  0.00    -0.058 Cl 
HETATM   25  C   UNL     1      -8.700  12.395  67.240  1.00  0.00    -0.191 A  
BRANCH  21  26
HETATM   26  N   UNL     1      -7.147   9.069  67.732  1.00  0.00    -0.078 N  
HETATM   27  H   UNL     1      -6.315   9.081  67.141  1.00  0.00     0.000 HD 
BRANCH  26  28
HETATM   28  C   UNL     1      -7.180   8.122  68.719  1.00  0.00    -0.083 C  
HETATM   29  O   UNL     1      -6.973   6.925  68.555  1.00  0.00    -0.071 OA 
BRANCH  28  30
HETATM   30  N   UNL     1      -7.479   8.649  69.957  1.00  0.00    -0.054 N  
HETATM   31  H   UNL     1      -8.429   8.961  70.160  1.00  0.00     0.000 HD 
BRANCH  30  32
HETATM   32  C   UNL     1      -6.468   8.762  70.958  1.00  0.00    -0.056 C  
HETATM   33  C   UNL     1      -6.560   8.085  72.293  1.00  0.00    -0.069 C  
HETATM   34  C   UNL     1      -5.604   7.567  71.260  1.00  0.00    -0.035 C  
ENDBRANCH  30  32
ENDBRANCH  28  30
ENDBRANCH  26  28
ENDBRANCH  21  26
ENDBRANCH  18  19
ENDBRANCH  11  18
ENDBRANCH   2   3
TORSDOF 8
ENDMDL
MODEL      198
REMARK 921   NORMALIZED FREE ENERGY PREDICTED BY IDOCK:   -3.70 KCAL/MOL
REMARK 922        TOTAL FREE ENERGY PREDICTED BY IDOCK:   -6.96 KCAL/MOL
REMARK 923 INTER-LIGAND FREE ENERGY PREDICTED BY IDOCK:   -6.77 KCAL/MOL
REMARK 924 INTRA-LIGAND FREE ENERGY PREDICTED BY IDOCK:   -0.19 KCAL/MOL
REMARK 927      BINDING AFFINITY PREDICTED BY RF-SCORE:    0.00 PKD
ROOT
HETATM    1  C   UNL     1     -12.560  10.457  70.231  1.00  0.00    -0.192 C  
HETATM    2  O   UNL     1     -12.116  10.619  68.885  1.00  0.00    -0.361 OA 
ENDROOT
BRANCH   2   3
HETATM    3  C   UNL     1     -10.852  11.128  68.736  1.00  0.00    -0.213 A  
HETATM    4  C   UNL     1     -10.652  12.241  67.907  1.00  0.00    -0.232 A  
HETATM    5  N   UNL     1      -7.496  10.253  69.706  1.00  0.00    -0.157 NA 
HETATM    6  C   UNL     1      -9.341  12.725  67.701  1.00  0.00    -0.191 A  
HETATM    7  C   UNL     1      -8.458  10.964  69.117  1.00  0.00    -0.055 A  
HETATM    8  C   UNL     1      -8.217  12.091  68.298  1.00  0.00    -0.161 A  
HETATM    9  C   UNL     1      -6.228  10.572  69.430  1.00  0.00    -0.048 A  
HETATM   10  C   UNL     1      -9.745  10.510  69.319  1.00  0.00    -0.215 A  
HETATM   11  C   UNL     1      -6.854  12.467  68.111  1.00  0.00    -0.084 A  
HETATM   12  C   UNL     1      -5.872  11.620  68.610  1.00  0.00    -0.046 A  
BRANCH   4  13
HETATM   13  C   UNL     1     -11.820  12.944  67.297  1.00  0.00    -0.356 C  
HETATM   14  H2  UNL     1     -11.834  11.687  65.628  1.00  0.00     0.000 HD 
HETATM   15  H1  UNL     1     -13.072  12.961  65.675  1.00  0.00     0.000 HD 
HETATM   16  O   UNL     1     -12.365  13.907  67.819  1.00  0.00    -0.252 OA 
HETATM   17  N   UNL     1     -12.275  12.481  66.091  1.00  0.00    -0.282 N  
ENDBRANCH   4  13
BRANCH  11  18
HETATM   18  O   UNL     1      -6.605  13.581  67.328  1.00  0.00    -0.247 OA 
BRANCH  18  19
HETATM   19  C   UNL     1      -7.353  14.745  67.378  1.00  0.00    -0.185 A  
HETATM   20  C   UNL     1      -7.252  15.474  68.571  1.00  0.00    -0.119 A  
HETATM   21  C   UNL     1      -9.075  16.956  67.915  1.00  0.00    -0.233 A  
HETATM   22  C   UNL     1      -8.094  16.573  68.833  1.00  0.00    -0.240 A  
HETATM   23  C   UNL     1      -9.160  16.240  66.720  1.00  0.00    -0.232 A  
HETATM   24 CL   UNL     1     -10.356  16.633  65.523  1.00  0.00    -0.313 Cl 
HETATM   25  C   UNL     1      -8.309  15.162  66.457  1.00  0.00    -0.060 A  
BRANCH  21  26
HETATM   26  N   UNL     1     -10.016  17.986  68.138  1.00  0.00    -0.332 N  
HETATM   27  H   UNL     1     -10.940  17.696  68.458  1.00  0.00     0.000 HD 
BRANCH  26  28
HETATM   28  C   UNL     1      -9.823  19.331  67.972  1.00  0.00    -0.365 C  
HETATM   29  O   UNL     1     -10.444  20.211  68.558  1.00  0.00    -0.385 OA 
BRANCH  28  30
HETATM   30  N   UNL     1      -8.835  19.620  67.056  1.00  0.00    -0.303 N  
HETATM   31  H   UNL     1      -8.837  19.161  66.144  1.00  0.00     0.000 HD 
BRANCH  30  32
HETATM   32  C   UNL     1      -7.807  20.559  67.372  1.00  0.00    -0.314 C  
HETATM   33  C   UNL     1      -6.578  20.194  68.152  1.00  0.00    -0.327 C  
HETATM   34  C   UNL     1      -6.477  20.446  66.678  1.00  0.00    -0.266 C  
ENDBRANCH  30  32
ENDBRANCH  28  30
ENDBRANCH  26  28
ENDBRANCH  21  26
ENDBRANCH  18  19
ENDBRANCH  11  18
ENDBRANCH   2   3
TORSDOF 8
ENDMDL
MODEL      199
REMARK 921   NORMALIZED FREE ENERGY PREDICTED BY IDOCK:   -3.68 KCAL/MOL
REMARK 922        TOTAL FREE ENERGY PREDICTED BY IDOCK:   -6.93 KCAL/MOL
REMARK 923 INTER-LIGAND FREE ENERGY PREDICTED BY IDOCK:   -6.04 KCAL/MOL
REMARK 924 INTRA-LIGAND FREE ENERGY PREDICTED BY IDOCK:   -0.90 KCAL/MOL
REMARK 927      BINDING AFFINITY PREDICTED BY RF-SCORE:    0.00 PKD
ROOT
HETATM    1  C   UNL     1     -10.057   4.934  71.003  1.00  0.00    -0.218 C  
HETATM    2  O   UNL     1      -9.126   5.023  69.927  1.00  0.00    -0.112 OA 
ENDROOT
BRANCH   2   3
HETATM    3  C   UNL     1      -8.769   6.294  69.557  1.00  0.00    -0.132 A  
HETATM    4  C   UNL     1      -9.145   6.773  68.294  1.00  0.00    -0.124 A  
HETATM    5  N   UNL     1      -6.735   8.972  70.846  1.00  0.00    -0.071 NA 
HETATM    6  C   UNL     1      -8.721   8.058  67.887  1.00  0.00    -0.128 A  
HETATM    7  C   UNL     1      -7.531   8.341  69.982  1.00  0.00    -0.064 A  
HETATM    8  C   UNL     1      -7.900   8.865  68.721  1.00  0.00    -0.101 A  
HETATM    9  C   UNL     1      -6.183  10.125  70.456  1.00  0.00    -0.115 A  
HETATM   10  C   UNL     1      -7.962   7.090  70.371  1.00  0.00    -0.113 A  
HETATM   11  C   UNL     1      -7.377  10.147  68.383  1.00  0.00    -0.081 A  
HETATM   12  C   UNL     1      -6.432  10.709  69.234  1.00  0.00    -0.062 A  
BRANCH   4  13
HETATM   13  C   UNL     1     -10.035   5.959  67.415  1.00  0.00    -0.149 C  
HETATM   14  H2  UNL     1     -11.640   7.278  67.649  1.00  0.00     0.000 HD 
HETATM   15  H1  UNL     1     -11.919   5.860  66.613  1.00  0.00     0.000 HD 
HETATM   16  O   UNL     1      -9.678   4.914  66.888  1.00  0.00    -0.150 OA 
HETATM   17  N   UNL     1     -11.311   6.416  67.214  1.00  0.00    -0.185 N  
ENDBRANCH   4  13
BRANCH  11  18
HETATM   18  O   UNL     1      -7.746  10.681  67.161  1.00  0.00    -0.105 OA 
BRANCH  18  19
HETATM   19  C   UNL     1      -8.735  11.636  67.001  1.00  0.00    -0.173 A  
HETATM   20  C   UNL     1      -9.369  11.642  65.751  1.00  0.00    -0.220 A  
HETATM   21  C   UNL     1     -10.519  13.734  66.253  1.00  0.00    -0.291 A  
HETATM   22  C   UNL     1     -10.259  12.672  65.384  1.00  0.00    -0.301 A  
HETATM   23  C   UNL     1      -9.902  13.716  67.504  1.00  0.00    -0.227 A  
HETATM   24 CL   UNL     1     -10.154  14.998  68.647  1.00  0.00    -0.226 Cl 
HETATM   25  C   UNL     1      -9.034  12.681  67.870  1.00  0.00    -0.189 A  
BRANCH  21  26
HETATM   26  N   UNL     1     -11.326  14.848  65.930  1.00  0.00    -0.332 N  
HETATM   27  H   UNL     1     -12.251  14.879  66.359  1.00  0.00     0.000 HD 
BRANCH  26  28
HETATM   28  C   UNL     1     -11.003  15.890  65.105  1.00  0.00    -0.377 C  
HETATM   29  O   UNL     1     -11.656  16.249  64.131  1.00  0.00    -0.838 OA 
BRANCH  28  30
HETATM   30  N   UNL     1      -9.837  16.524  65.475  1.00  0.00    -0.132 N  
HETATM   31  H   UNL     1      -8.996  16.413  64.908  1.00  0.00     0.000 HD 
BRANCH  30  32
HETATM   32  C   UNL     1      -9.797  17.336  66.649  1.00  0.00    -0.295 C  
HETATM   33  C   UNL     1      -9.452  18.796  66.621  1.00  0.00    -0.346 C  
HETATM   34  C   UNL     1     -10.870  18.370  66.857  1.00  0.00    -0.181 C  
ENDBRANCH  30  32
ENDBRANCH  28  30
ENDBRANCH  26  28
ENDBRANCH  21  26
ENDBRANCH  18  19
ENDBRANCH  11  18
ENDBRANCH   2   3
TORSDOF 8
ENDMDL
MODEL      200
REMARK 921   NORMALIZED FREE ENERGY PREDICTED BY IDOCK:   -3.66 KCAL/MOL
REMARK 922        TOTAL FREE ENERGY PREDICTED BY IDOCK:   -6.91 KCAL/MOL
REMARK 923 INTER-LIGAND FREE ENERGY PREDICTED BY IDOCK:   -6.12 KCAL/MOL
REMARK 924 INTRA-LIGAND FREE ENERGY PREDICTED BY IDOCK:   -0.79 KCAL/MOL
REMARK 927      BINDING AFFINITY PREDICTED BY RF-SCORE:    0.00 PKD
ROOT
HETATM    1  C   UNL     1     -12.401  12.135  63.529  1.00  0.00    -0.574 C  
HETATM    2  O   UNL     1     -12.437  11.958  64.944  1.00  0.00    -0.312 OA 
ENDROOT
BRANCH   2   3
HETATM    3  C   UNL     1     -11.216  11.900  65.564  1.00  0.00    -0.299 A  
HETATM    4  C   UNL     1     -10.922  12.808  66.590  1.00  0.00    -0.300 A  
HETATM    5  N   UNL     1      -8.105  10.128  65.162  1.00  0.00    -0.144 NA 
HETATM    6  C   UNL     1      -9.640  12.791  67.184  1.00  0.00    -0.219 A  
HETATM    7  C   UNL     1      -8.963  10.998  65.697  1.00  0.00    -0.199 A  
HETATM    8  C   UNL     1      -8.633  11.889  66.744  1.00  0.00    -0.181 A  
HETATM    9  C   UNL     1      -6.837  10.167  65.581  1.00  0.00    -0.124 A  
HETATM   10  C   UNL     1     -10.223  11.017  65.135  1.00  0.00    -0.352 A  
HETATM   11  C   UNL     1      -7.297  11.829  67.239  1.00  0.00    -0.141 A  
HETATM   12  C   UNL     1      -6.389  11.024  66.561  1.00  0.00    -0.132 A  
BRANCH   4  13
HETATM   13  C   UNL     1     -11.973  13.741  67.093  1.00  0.00    -0.405 C  
HETATM   14  H2  UNL     1     -11.919  14.900  65.356  1.00  0.00     0.000 HD 
HETATM   15  H1  UNL     1     -13.062  15.410  66.617  1.00  0.00     0.000 HD 
HETATM   16  O   UNL     1     -12.496  13.626  68.194  1.00  0.00    -0.078 OA 
HETATM   17  N   UNL     1     -12.344  14.773  66.274  1.00  0.00    -0.059 N  
ENDBRANCH   4  13
BRANCH  11  18
HETATM   18  O   UNL     1      -6.965  12.682  68.277  1.00  0.00    -0.079 OA 
BRANCH  18  19
HETATM   19  C   UNL     1      -6.577  13.999  68.102  1.00  0.00    -0.124 A  
HETATM   20  C   UNL     1      -5.804  14.541  69.139  1.00  0.00    -0.092 A  
HETATM   21  C   UNL     1      -5.975  16.787  68.202  1.00  0.00    -0.125 A  
HETATM   22  C   UNL     1      -5.497  15.916  69.184  1.00  0.00    -0.110 A  
HETATM   23  C   UNL     1      -6.728  16.242  67.161  1.00  0.00    -0.201 A  
HETATM   24 CL   UNL     1      -7.377  17.247  65.902  1.00  0.00    -0.218 Cl 
HETATM   25  C   UNL     1      -7.014  14.873  67.112  1.00  0.00     0.129 A  
BRANCH  21  26
HETATM   26  N   UNL     1      -5.788  18.187  68.221  1.00  0.00    -0.169 N  
HETATM   27  H   UNL     1      -4.960  18.542  67.742  1.00  0.00     0.000 HD 
BRANCH  26  28
HETATM   28  C   UNL     1      -6.596  19.120  68.811  1.00  0.00    -0.275 C  
HETATM   29  O   UNL     1      -7.806  19.003  68.978  1.00  0.00    -0.314 OA 
BRANCH  28  30
HETATM   30  N   UNL     1      -5.909  20.245  69.215  1.00  0.00    -0.297 N  
HETATM   31  H   UNL     1      -5.784  21.023  68.567  1.00  0.00     0.000 HD 
BRANCH  30  32
HETATM   32  C   UNL     1      -5.370  20.328  70.534  1.00  0.00    -0.280 C  
HETATM   33  C   UNL     1      -6.202  20.147  71.769  1.00  0.00    -0.123 C  
HETATM   34  C   UNL     1      -5.246  19.071  71.352  1.00  0.00    -0.321 C  
ENDBRANCH  30  32
ENDBRANCH  28  30
ENDBRANCH  26  28
ENDBRANCH  21  26
ENDBRANCH  18  19
ENDBRANCH  11  18
ENDBRANCH   2   3
TORSDOF 8
ENDMDL
MODEL      201
REMARK 921   NORMALIZED FREE ENERGY PREDICTED BY IDOCK:   -3.65 KCAL/MOL
REMARK 922        TOTAL FREE ENERGY PREDICTED BY IDOCK:   -6.89 KCAL/MOL
REMARK 923 INTER-LIGAND FREE ENERGY PREDICTED BY IDOCK:   -6.09 KCAL/MOL
REMARK 924 INTRA-LIGAND FREE ENERGY PREDICTED BY IDOCK:   -0.79 KCAL/MOL
REMARK 927      BINDING AFFINITY PREDICTED BY RF-SCORE:    0.00 PKD
ROOT
HETATM    1  C   UNL     1     -12.109  15.614  63.959  1.00  0.00     0.125 C  
HETATM    2  O   UNL     1     -10.833  15.665  64.596  1.00  0.00    -0.411 OA 
ENDROOT
BRANCH   2   3
HETATM    3  C   UNL     1     -10.449  14.519  65.242  1.00  0.00    -0.390 A  
HETATM    4  C   UNL     1      -9.886  14.609  66.523  1.00  0.00    -0.288 A  
HETATM    5  N   UNL     1     -10.166  11.006  64.498  1.00  0.00    -0.319 NA 
HETATM    6  C   UNL     1      -9.430  13.434  67.163  1.00  0.00    -0.244 A  
HETATM    7  C   UNL     1     -10.068  12.119  65.227  1.00  0.00    -0.265 A  
HETATM    8  C   UNL     1      -9.507  12.167  66.524  1.00  0.00    -0.235 A  
HETATM    9  C   UNL     1      -9.617   9.891  64.990  1.00  0.00    -0.297 A  
HETATM   10  C   UNL     1     -10.521  13.273  64.620  1.00  0.00    -0.420 A  
HETATM   11  C   UNL     1      -9.027  10.935  67.059  1.00  0.00    -0.143 A  
HETATM   12  C   UNL     1      -9.003   9.827  66.220  1.00  0.00    -0.180 A  
BRANCH   4  13
HETATM   13  C   UNL     1      -9.827  15.923  67.229  1.00  0.00    -0.234 C  
HETATM   14  H2  UNL     1      -8.113  16.517  66.191  1.00  0.00     0.000 HD 
HETATM   15  H1  UNL     1      -8.766  17.670  67.376  1.00  0.00     0.000 HD 
HETATM   16  O   UNL     1     -10.633  16.257  68.087  1.00  0.00    -0.281 OA 
HETATM   17  N   UNL     1      -8.806  16.772  66.894  1.00  0.00    -0.207 N  
ENDBRANCH   4  13
BRANCH  11  18
HETATM   18  O   UNL     1      -8.493  10.963  68.336  1.00  0.00    -0.127 OA 
BRANCH  18  19
HETATM   19  C   UNL     1      -8.594   9.920  69.240  1.00  0.00    -0.167 A  
HETATM   20  C   UNL     1      -7.653   8.893  69.081  1.00  0.00    -0.080 A  
HETATM   21  C   UNL     1      -8.811   7.473  70.693  1.00  0.00    -0.146 A  
HETATM   22  C   UNL     1      -7.752   7.688  69.806  1.00  0.00    -0.098 A  
HETATM   23  C   UNL     1      -9.735   8.505  70.863  1.00  0.00    -0.187 A  
HETATM   24 CL   UNL     1     -11.090   8.326  71.933  1.00  0.00    -0.333 Cl 
HETATM   25  C   UNL     1      -9.621   9.706  70.155  1.00  0.00    -0.300 A  
BRANCH  21  26
HETATM   26  N   UNL     1      -9.032   6.265  71.389  1.00  0.00    -0.139 N  
HETATM   27  H   UNL     1      -9.813   5.692  71.068  1.00  0.00     0.000 HD 
BRANCH  26  28
HETATM   28  C   UNL     1      -8.315   5.778  72.447  1.00  0.00    -0.118 C  
HETATM   29  O   UNL     1      -7.092   5.796  72.540  1.00  0.00    -0.081 OA 
BRANCH  28  30
HETATM   30  N   UNL     1      -9.114   5.243  73.435  1.00  0.00    -0.129 N  
HETATM   31  H   UNL     1      -9.837   5.817  73.868  1.00  0.00     0.000 HD 
BRANCH  30  32
HETATM   32  C   UNL     1      -8.936   3.891  73.857  1.00  0.00    -0.091 C  
HETATM   33  C   UNL     1     -10.075   3.009  74.276  1.00  0.00    -0.187 C  
HETATM   34  C   UNL     1      -9.402   2.779  72.956  1.00  0.00    -0.122 C  
ENDBRANCH  30  32
ENDBRANCH  28  30
ENDBRANCH  26  28
ENDBRANCH  21  26
ENDBRANCH  18  19
ENDBRANCH  11  18
ENDBRANCH   2   3
TORSDOF 8
ENDMDL
MODEL      202
REMARK 921   NORMALIZED FREE ENERGY PREDICTED BY IDOCK:   -3.65 KCAL/MOL
REMARK 922        TOTAL FREE ENERGY PREDICTED BY IDOCK:   -6.89 KCAL/MOL
REMARK 923 INTER-LIGAND FREE ENERGY PREDICTED BY IDOCK:   -5.85 KCAL/MOL
REMARK 924 INTRA-LIGAND FREE ENERGY PREDICTED BY IDOCK:   -1.04 KCAL/MOL
REMARK 927      BINDING AFFINITY PREDICTED BY RF-SCORE:    0.00 PKD
ROOT
HETATM    1  C   UNL     1     -12.142  12.991  63.558  1.00  0.00    -0.542 C  
HETATM    2  O   UNL     1     -11.928  12.215  64.736  1.00  0.00    -0.360 OA 
ENDROOT
BRANCH   2   3
HETATM    3  C   UNL     1     -10.855  12.586  65.503  1.00  0.00    -0.278 A  
HETATM    4  C   UNL     1      -9.778  11.702  65.654  1.00  0.00    -0.262 A  
HETATM    5  N   UNL     1      -9.957  15.304  67.690  1.00  0.00    -0.221 NA 
HETATM    6  C   UNL     1      -8.702  12.057  66.498  1.00  0.00    -0.138 A  
HETATM    7  C   UNL     1      -9.810  14.144  67.049  1.00  0.00    -0.258 A  
HETATM    8  C   UNL     1      -8.701  13.284  67.216  1.00  0.00    -0.214 A  
HETATM    9  C   UNL     1      -9.044  15.625  68.612  1.00  0.00    -0.205 A  
HETATM   10  C   UNL     1     -10.848  13.788  66.212  1.00  0.00    -0.283 A  
HETATM   11  C   UNL     1      -7.693  13.710  68.131  1.00  0.00    -0.138 A  
HETATM   12  C   UNL     1      -7.946  14.844  68.895  1.00  0.00    -0.163 A  
BRANCH   4  13
HETATM   13  C   UNL     1      -9.740  10.424  64.883  1.00  0.00    -0.309 C  
HETATM   14  H2  UNL     1      -9.664  11.417  63.046  1.00  0.00     0.000 HD 
HETATM   15  H1  UNL     1      -9.655   9.640  62.991  1.00  0.00     0.000 HD 
HETATM   16  O   UNL     1      -9.773   9.322  65.415  1.00  0.00    -0.251 OA 
HETATM   17  N   UNL     1      -9.681  10.513  63.517  1.00  0.00    -0.320 N  
ENDBRANCH   4  13
BRANCH  11  18
HETATM   18  O   UNL     1      -6.591  12.888  68.291  1.00  0.00    -0.075 OA 
BRANCH  18  19
HETATM   19  C   UNL     1      -6.660  11.582  68.746  1.00  0.00    -0.070 A  
HETATM   20  C   UNL     1      -5.886  10.655  68.034  1.00  0.00    -0.042 A  
HETATM   21  C   UNL     1      -6.913   8.777  69.204  1.00  0.00    -0.059 A  
HETATM   22  C   UNL     1      -6.002   9.270  68.266  1.00  0.00    -0.045 A  
HETATM   23  C   UNL     1      -7.668   9.703  69.925  1.00  0.00    -0.144 A  
HETATM   24 CL   UNL     1      -8.835   9.186  71.103  1.00  0.00    -0.275 Cl 
HETATM   25  C   UNL     1      -7.535  11.078  69.703  1.00  0.00     0.029 A  
BRANCH  21  26
HETATM   26  N   UNL     1      -7.154   7.404  69.434  1.00  0.00    -0.068 N  
HETATM   27  H   UNL     1      -6.728   7.002  70.270  1.00  0.00     0.000 HD 
BRANCH  26  28
HETATM   28  C   UNL     1      -7.896   6.555  68.660  1.00  0.00    -0.110 C  
HETATM   29  O   UNL     1      -7.748   6.388  67.454  1.00  0.00    -0.101 OA 
BRANCH  28  30
HETATM   30  N   UNL     1      -8.859   5.880  69.378  1.00  0.00    -0.121 N  
HETATM   31  H   UNL     1      -8.592   5.332  70.196  1.00  0.00     0.000 HD 
BRANCH  30  32
HETATM   32  C   UNL     1     -10.230   5.943  68.985  1.00  0.00    -0.203 C  
HETATM   33  C   UNL     1     -11.334   6.322  69.928  1.00  0.00    -0.504 C  
HETATM   34  C   UNL     1     -10.895   7.288  68.869  1.00  0.00    -0.119 C  
ENDBRANCH  30  32
ENDBRANCH  28  30
ENDBRANCH  26  28
ENDBRANCH  21  26
ENDBRANCH  18  19
ENDBRANCH  11  18
ENDBRANCH   2   3
TORSDOF 8
ENDMDL
MODEL      203
REMARK 921   NORMALIZED FREE ENERGY PREDICTED BY IDOCK:   -3.65 KCAL/MOL
REMARK 922        TOTAL FREE ENERGY PREDICTED BY IDOCK:   -6.89 KCAL/MOL
REMARK 923 INTER-LIGAND FREE ENERGY PREDICTED BY IDOCK:   -5.30 KCAL/MOL
REMARK 924 INTRA-LIGAND FREE ENERGY PREDICTED BY IDOCK:   -1.59 KCAL/MOL
REMARK 927      BINDING AFFINITY PREDICTED BY RF-SCORE:    0.00 PKD
ROOT
HETATM    1  C   UNL     1     -12.586  12.146  63.307  1.00  0.00    -0.368 C  
HETATM    2  O   UNL     1     -11.327  12.774  63.540  1.00  0.00    -0.462 OA 
ENDROOT
BRANCH   2   3
HETATM    3  C   UNL     1     -10.486  12.114  64.397  1.00  0.00    -0.317 A  
HETATM    4  C   UNL     1     -10.484  12.454  65.757  1.00  0.00    -0.288 A  
HETATM    5  N   UNL     1      -7.815   9.706  64.182  1.00  0.00    -0.123 NA 
HETATM    6  C   UNL     1      -9.570  11.820  66.628  1.00  0.00    -0.219 A  
HETATM    7  C   UNL     1      -8.659  10.555  64.770  1.00  0.00    -0.166 A  
HETATM    8  C   UNL     1      -8.636  10.862  66.150  1.00  0.00    -0.170 A  
HETATM    9  C   UNL     1      -6.834   9.187  64.926  1.00  0.00    -0.081 A  
HETATM   10  C   UNL     1      -9.565  11.173  63.933  1.00  0.00    -0.286 A  
HETATM   11  C   UNL     1      -7.641  10.207  66.934  1.00  0.00    -0.100 A  
HETATM   12  C   UNL     1      -6.683   9.449  66.270  1.00  0.00    -0.075 A  
BRANCH   4  13
HETATM   13  C   UNL     1     -11.479  13.431  66.289  1.00  0.00    -0.325 C  
HETATM   14  H2  UNL     1     -10.182  15.049  66.026  1.00  0.00     0.000 HD 
HETATM   15  H1  UNL     1     -11.784  15.415  66.703  1.00  0.00     0.000 HD 
HETATM   16  O   UNL     1     -12.589  13.104  66.686  1.00  0.00    -0.263 OA 
HETATM   17  N   UNL     1     -11.105  14.748  66.339  1.00  0.00    -0.336 N  
ENDBRANCH   4  13
BRANCH  11  18
HETATM   18  O   UNL     1      -7.619  10.483  68.291  1.00  0.00    -0.091 OA 
BRANCH  18  19
HETATM   19  C   UNL     1      -7.936   9.560  69.273  1.00  0.00    -0.094 A  
HETATM   20  C   UNL     1      -9.255   9.086  69.249  1.00  0.00    -0.145 A  
HETATM   21  C   UNL     1      -8.978   7.969  71.400  1.00  0.00    -0.141 A  
HETATM   22  C   UNL     1      -9.768   8.291  70.293  1.00  0.00    -0.177 A  
HETATM   23  C   UNL     1      -7.660   8.426  71.412  1.00  0.00    -0.097 A  
HETATM   24 CL   UNL     1      -6.605   8.087  72.749  1.00  0.00    -0.075 Cl 
HETATM   25  C   UNL     1      -7.150   9.199  70.363  1.00  0.00    -0.079 A  
BRANCH  21  26
HETATM   26  N   UNL     1      -9.441   7.254  72.527  1.00  0.00    -0.145 N  
HETATM   27  H   UNL     1      -9.577   7.793  73.383  1.00  0.00     0.000 HD 
BRANCH  26  28
HETATM   28  C   UNL     1      -9.727   5.918  72.597  1.00  0.00    -0.153 C  
HETATM   29  O   UNL     1     -10.828   5.419  72.392  1.00  0.00    -0.225 OA 
BRANCH  28  30
HETATM   30  N   UNL     1      -8.630   5.153  72.932  1.00  0.00    -0.115 N  
HETATM   31  H   UNL     1      -8.262   5.182  73.883  1.00  0.00     0.000 HD 
BRANCH  30  32
HETATM   32  C   UNL     1      -8.005   4.319  71.957  1.00  0.00    -0.090 C  
HETATM   33  C   UNL     1      -7.882   4.703  70.511  1.00  0.00    -0.054 C  
HETATM   34  C   UNL     1      -6.670   4.729  71.394  1.00  0.00    -0.038 C  
ENDBRANCH  30  32
ENDBRANCH  28  30
ENDBRANCH  26  28
ENDBRANCH  21  26
ENDBRANCH  18  19
ENDBRANCH  11  18
ENDBRANCH   2   3
TORSDOF 8
ENDMDL
MODEL      204
REMARK 921   NORMALIZED FREE ENERGY PREDICTED BY IDOCK:   -3.64 KCAL/MOL
REMARK 922        TOTAL FREE ENERGY PREDICTED BY IDOCK:   -6.88 KCAL/MOL
REMARK 923 INTER-LIGAND FREE ENERGY PREDICTED BY IDOCK:   -5.82 KCAL/MOL
REMARK 924 INTRA-LIGAND FREE ENERGY PREDICTED BY IDOCK:   -1.05 KCAL/MOL
REMARK 927      BINDING AFFINITY PREDICTED BY RF-SCORE:    0.00 PKD
ROOT
HETATM    1  C   UNL     1     -10.593   6.759  73.845  1.00  0.00    -0.240 C  
HETATM    2  O   UNL     1     -11.383   7.778  73.236  1.00  0.00    -0.321 OA 
ENDROOT
BRANCH   2   3
HETATM    3  C   UNL     1     -10.951   8.207  72.008  1.00  0.00    -0.286 A  
HETATM    4  C   UNL     1     -11.817   8.953  71.196  1.00  0.00    -0.353 A  
HETATM    5  N   UNL     1      -8.077   7.749  69.885  1.00  0.00    -0.118 NA 
HETATM    6  C   UNL     1     -11.396   9.338  69.903  1.00  0.00    -0.083 A  
HETATM    7  C   UNL     1      -9.280   8.200  70.243  1.00  0.00    -0.151 A  
HETATM    8  C   UNL     1     -10.120   8.963  69.400  1.00  0.00    -0.202 A  
HETATM    9  C   UNL     1      -7.685   7.955  68.624  1.00  0.00    -0.113 A  
HETATM   10  C   UNL     1      -9.701   7.841  71.508  1.00  0.00    -0.195 A  
HETATM   11  C   UNL     1      -9.623   9.255  68.095  1.00  0.00    -0.143 A  
HETATM   12  C   UNL     1      -8.438   8.645  67.700  1.00  0.00    -0.125 A  
BRANCH   4  13
HETATM   13  C   UNL     1     -13.148   9.388  71.715  1.00  0.00    -0.409 C  
HETATM   14  H2  UNL     1     -12.914  11.329  70.977  1.00  0.00     0.000 HD 
HETATM   15  H1  UNL     1     -14.429  10.982  71.839  1.00  0.00     0.000 HD 
HETATM   16  O   UNL     1     -13.896   8.646  72.338  1.00  0.00    -0.394 OA 
HETATM   17  N   UNL     1     -13.521  10.685  71.484  1.00  0.00    -0.218 N  
ENDBRANCH   4  13
BRANCH  11  18
HETATM   18  O   UNL     1     -10.426  10.018  67.266  1.00  0.00    -0.225 OA 
BRANCH  18  19
HETATM   19  C   UNL     1     -10.409  11.402  67.233  1.00  0.00    -0.198 A  
HETATM   20  C   UNL     1      -9.378  11.973  66.475  1.00  0.00    -0.226 A  
HETATM   21  C   UNL     1      -9.892  14.208  67.309  1.00  0.00    -0.238 A  
HETATM   22  C   UNL     1      -9.128  13.360  66.503  1.00  0.00    -0.128 A  
HETATM   23  C   UNL     1     -10.930  13.638  68.048  1.00  0.00    -0.250 A  
HETATM   24 CL   UNL     1     -11.926  14.609  69.088  1.00  0.00    -0.343 Cl 
HETATM   25  C   UNL     1     -11.186  12.264  68.002  1.00  0.00    -0.321 A  
BRANCH  21  26
HETATM   26  N   UNL     1      -9.651  15.591  67.463  1.00  0.00    -0.212 N  
HETATM   27  H   UNL     1      -8.934  15.855  68.138  1.00  0.00     0.000 HD 
BRANCH  26  28
HETATM   28  C   UNL     1     -10.275  16.616  66.804  1.00  0.00    -0.301 C  
HETATM   29  O   UNL     1     -10.786  17.593  67.341  1.00  0.00    -0.301 OA 
BRANCH  28  30
HETATM   30  N   UNL     1     -10.280  16.448  65.436  1.00  0.00    -0.262 N  
HETATM   31  H   UNL     1      -9.398  16.441  64.922  1.00  0.00     0.000 HD 
BRANCH  30  32
HETATM   32  C   UNL     1     -11.511  16.283  64.733  1.00  0.00    -0.121 C  
HETATM   33  C   UNL     1     -11.819  15.076  63.897  1.00  0.00     0.176 C  
HETATM   34  C   UNL     1     -12.499  15.258  65.221  1.00  0.00     0.477 C  
ENDBRANCH  30  32
ENDBRANCH  28  30
ENDBRANCH  26  28
ENDBRANCH  21  26
ENDBRANCH  18  19
ENDBRANCH  11  18
ENDBRANCH   2   3
TORSDOF 8
ENDMDL
MODEL      205
REMARK 921   NORMALIZED FREE ENERGY PREDICTED BY IDOCK:   -3.64 KCAL/MOL
REMARK 922        TOTAL FREE ENERGY PREDICTED BY IDOCK:   -6.87 KCAL/MOL
REMARK 923 INTER-LIGAND FREE ENERGY PREDICTED BY IDOCK:   -5.84 KCAL/MOL
REMARK 924 INTRA-LIGAND FREE ENERGY PREDICTED BY IDOCK:   -1.03 KCAL/MOL
REMARK 927      BINDING AFFINITY PREDICTED BY RF-SCORE:    0.00 PKD
ROOT
HETATM    1  C   UNL     1     -10.542  17.780  67.946  1.00  0.00    -0.382 C  
HETATM    2  O   UNL     1     -10.230  16.797  66.960  1.00  0.00    -0.281 OA 
ENDROOT
BRANCH   2   3
HETATM    3  C   UNL     1      -9.485  15.734  67.400  1.00  0.00    -0.212 A  
HETATM    4  C   UNL     1      -9.823  14.439  66.983  1.00  0.00    -0.252 A  
HETATM    5  N   UNL     1      -6.812  15.140  69.740  1.00  0.00    -0.181 NA 
HETATM    6  C   UNL     1      -9.096  13.337  67.488  1.00  0.00    -0.208 A  
HETATM    7  C   UNL     1      -7.744  14.833  68.836  1.00  0.00    -0.146 A  
HETATM    8  C   UNL     1      -8.046  13.514  68.430  1.00  0.00    -0.145 A  
HETATM    9  C   UNL     1      -6.194  14.131  70.362  1.00  0.00    -0.149 A  
HETATM   10  C   UNL     1      -8.454  15.901  68.325  1.00  0.00    -0.170 A  
HETATM   11  C   UNL     1      -7.291  12.468  69.038  1.00  0.00     0.043 A  
HETATM   12  C   UNL     1      -6.438  12.805  70.083  1.00  0.00     0.176 A  
BRANCH   4  13
HETATM   13  C   UNL     1     -10.898  14.231  65.969  1.00  0.00    -0.303 C  
HETATM   14  H2  UNL     1      -9.531  14.137  64.391  1.00  0.00     0.000 HD 
HETATM   15  H1  UNL     1     -11.248  13.955  63.968  1.00  0.00     0.000 HD 
HETATM   16  O   UNL     1     -12.087  14.190  66.256  1.00  0.00    -0.412 OA 
HETATM   17  N   UNL     1     -10.514  14.097  64.661  1.00  0.00    -0.414 N  
ENDBRANCH   4  13
BRANCH  11  18
HETATM   18  O   UNL     1      -7.562  11.172  68.635  1.00  0.00    -0.110 OA 
BRANCH  18  19
HETATM   19  C   UNL     1      -8.119  10.207  69.457  1.00  0.00    -0.170 A  
HETATM   20  C   UNL     1      -9.478   9.944  69.241  1.00  0.00    -0.218 A  
HETATM   21  C   UNL     1      -9.616   8.569  71.251  1.00  0.00    -0.203 A  
HETATM   22  C   UNL     1     -10.217   9.127  70.120  1.00  0.00    -0.237 A  
HETATM   23  C   UNL     1      -8.258   8.816  71.453  1.00  0.00    -0.153 A  
HETATM   24 CL   UNL     1      -7.426   8.176  72.837  1.00  0.00    -0.155 Cl 
HETATM   25  C   UNL     1      -7.525   9.613  70.567  1.00  0.00    -0.147 A  
BRANCH  21  26
HETATM   26  N   UNL     1     -10.304   7.814  72.227  1.00  0.00    -0.220 N  
HETATM   27  H   UNL     1     -10.563   8.306  73.082  1.00  0.00     0.000 HD 
BRANCH  26  28
HETATM   28  C   UNL     1     -10.661   6.495  72.150  1.00  0.00    -0.214 C  
HETATM   29  O   UNL     1     -11.771   6.047  72.414  1.00  0.00    -0.309 OA 
BRANCH  28  30
HETATM   30  N   UNL     1      -9.625   5.684  71.738  1.00  0.00    -0.155 N  
HETATM   31  H   UNL     1      -8.669   5.899  72.019  1.00  0.00     0.000 HD 
BRANCH  30  32
HETATM   32  C   UNL     1      -9.883   4.544  70.918  1.00  0.00    -0.199 C  
HETATM   33  C   UNL     1      -9.006   4.151  69.766  1.00  0.00    -0.156 C  
HETATM   34  C   UNL     1      -8.979   3.346  71.031  1.00  0.00    -0.161 C  
ENDBRANCH  30  32
ENDBRANCH  28  30
ENDBRANCH  26  28
ENDBRANCH  21  26
ENDBRANCH  18  19
ENDBRANCH  11  18
ENDBRANCH   2   3
TORSDOF 8
ENDMDL
MODEL      206
REMARK 921   NORMALIZED FREE ENERGY PREDICTED BY IDOCK:   -3.62 KCAL/MOL
REMARK 922        TOTAL FREE ENERGY PREDICTED BY IDOCK:   -6.85 KCAL/MOL
REMARK 923 INTER-LIGAND FREE ENERGY PREDICTED BY IDOCK:   -7.15 KCAL/MOL
REMARK 924 INTRA-LIGAND FREE ENERGY PREDICTED BY IDOCK:    0.31 KCAL/MOL
REMARK 927      BINDING AFFINITY PREDICTED BY RF-SCORE:    0.00 PKD
ROOT
HETATM    1  C   UNL     1     -11.920  14.441  66.287  1.00  0.00    -0.376 C  
HETATM    2  O   UNL     1     -11.086  13.326  65.978  1.00  0.00    -0.282 OA 
ENDROOT
BRANCH   2   3
HETATM    3  C   UNL     1     -10.930  12.408  66.984  1.00  0.00    -0.260 A  
HETATM    4  C   UNL     1     -10.198  11.237  66.739  1.00  0.00    -0.263 A  
HETATM    5  N   UNL     1     -12.159  11.885  70.329  1.00  0.00    -0.344 NA 
HETATM    6  C   UNL     1     -10.094  10.260  67.754  1.00  0.00    -0.213 A  
HETATM    7  C   UNL     1     -11.476  11.616  69.216  1.00  0.00    -0.300 A  
HETATM    8  C   UNL     1     -10.736  10.429  69.011  1.00  0.00    -0.260 A  
HETATM    9  C   UNL     1     -12.219  10.935  71.267  1.00  0.00    -0.290 A  
HETATM   10  C   UNL     1     -11.560  12.567  68.219  1.00  0.00    -0.376 A  
HETATM   11  C   UNL     1     -10.737   9.482  70.078  1.00  0.00    -0.243 A  
HETATM   12  C   UNL     1     -11.578   9.722  71.158  1.00  0.00    -0.469 A  
BRANCH   4  13
HETATM   13  C   UNL     1      -9.486  11.054  65.440  1.00  0.00    -0.222 C  
HETATM   14  H2  UNL     1      -7.626  10.857  66.372  1.00  0.00     0.000 HD 
HETATM   15  H1  UNL     1      -7.643  10.743  64.599  1.00  0.00     0.000 HD 
HETATM   16  O   UNL     1     -10.056  11.075  64.357  1.00  0.00    -0.280 OA 
HETATM   17  N   UNL     1      -8.129  10.869  65.486  1.00  0.00    -0.085 N  
ENDBRANCH   4  13
BRANCH  11  18
HETATM   18  O   UNL     1     -10.000   8.324  69.899  1.00  0.00    -0.185 OA 
BRANCH  18  19
HETATM   19  C   UNL     1      -9.833   7.694  68.678  1.00  0.00    -0.171 A  
HETATM   20  C   UNL     1     -10.938   6.965  68.221  1.00  0.00    -0.208 A  
HETATM   21  C   UNL     1      -9.641   5.980  66.405  1.00  0.00    -0.137 A  
HETATM   22  C   UNL     1     -10.849   6.125  67.092  1.00  0.00    -0.442 A  
HETATM   23  C   UNL     1      -8.547   6.723  66.851  1.00  0.00    -0.116 A  
HETATM   24 CL   UNL     1      -7.001   6.598  66.069  1.00  0.00    -0.060 Cl 
HETATM   25  C   UNL     1      -8.647   7.568  67.961  1.00  0.00    -0.122 A  
BRANCH  21  26
HETATM   26  N   UNL     1      -9.443   5.095  65.322  1.00  0.00    -0.339 N  
HETATM   27  H   UNL     1      -8.648   5.292  64.713  1.00  0.00     0.000 HD 
BRANCH  26  28
HETATM   28  C   UNL     1     -10.200   4.002  64.999  1.00  0.00    -0.181 C  
HETATM   29  O   UNL     1     -11.262   4.034  64.388  1.00  0.00    -0.338 OA 
BRANCH  28  30
HETATM   30  N   UNL     1      -9.646   2.819  65.439  1.00  0.00    -0.359 N  
HETATM   31  H   UNL     1     -10.115   1.935  65.243  1.00  0.00     0.000 HD 
BRANCH  30  32
HETATM   32  C   UNL     1      -8.418   2.822  66.167  1.00  0.00    -0.106 C  
HETATM   33  C   UNL     1      -7.870   1.604  66.851  1.00  0.00    -0.066 C  
HETATM   34  C   UNL     1      -7.227   2.103  65.592  1.00  0.00    -0.060 C  
ENDBRANCH  30  32
ENDBRANCH  28  30
ENDBRANCH  26  28
ENDBRANCH  21  26
ENDBRANCH  18  19
ENDBRANCH  11  18
ENDBRANCH   2   3
TORSDOF 8
ENDMDL
MODEL      207
REMARK 921   NORMALIZED FREE ENERGY PREDICTED BY IDOCK:   -3.61 KCAL/MOL
REMARK 922        TOTAL FREE ENERGY PREDICTED BY IDOCK:   -6.83 KCAL/MOL
REMARK 923 INTER-LIGAND FREE ENERGY PREDICTED BY IDOCK:   -6.29 KCAL/MOL
REMARK 924 INTRA-LIGAND FREE ENERGY PREDICTED BY IDOCK:   -0.54 KCAL/MOL
REMARK 927      BINDING AFFINITY PREDICTED BY RF-SCORE:    0.00 PKD
ROOT
HETATM    1  C   UNL     1      -6.608   5.184  64.576  1.00  0.00    -0.043 C  
HETATM    2  O   UNL     1      -6.288   6.434  65.183  1.00  0.00    -0.033 OA 
ENDROOT
BRANCH   2   3
HETATM    3  C   UNL     1      -7.278   6.990  65.951  1.00  0.00    -0.074 A  
HETATM    4  C   UNL     1      -7.168   8.329  66.351  1.00  0.00    -0.075 A  
HETATM    5  N   UNL     1     -10.259   5.899  67.654  1.00  0.00    -0.167 NA 
HETATM    6  C   UNL     1      -8.155   8.883  67.197  1.00  0.00    -0.103 A  
HETATM    7  C   UNL     1      -9.315   6.753  67.256  1.00  0.00    -0.134 A  
HETATM    8  C   UNL     1      -9.245   8.103  67.670  1.00  0.00    -0.150 A  
HETATM    9  C   UNL     1     -11.135   6.323  68.570  1.00  0.00    -0.308 A  
HETATM   10  C   UNL     1      -8.349   6.229  66.420  1.00  0.00    -0.118 A  
HETATM   11  C   UNL     1     -10.260   8.550  68.566  1.00  0.00    -0.198 A  
HETATM   12  C   UNL     1     -11.137   7.602  69.081  1.00  0.00     0.108 A  
BRANCH   4  13
HETATM   13  C   UNL     1      -6.052   9.178  65.839  1.00  0.00    -0.052 C  
HETATM   14  H2  UNL     1      -5.514   9.806  67.758  1.00  0.00     0.000 HD 
HETATM   15  H1  UNL     1      -4.549  10.449  66.410  1.00  0.00     0.000 HD 
HETATM   16  O   UNL     1      -5.789   9.287  64.648  1.00  0.00    -0.063 OA 
HETATM   17  N   UNL     1      -5.311   9.869  66.760  1.00  0.00    -0.044 N  
ENDBRANCH   4  13
BRANCH  11  18
HETATM   18  O   UNL     1     -10.217   9.875  68.965  1.00  0.00    -0.181 OA 
BRANCH  18  19
HETATM   19  C   UNL     1     -10.788  10.916  68.253  1.00  0.00    -0.225 A  
HETATM   20  C   UNL     1     -10.800  10.757  66.861  1.00  0.00    -0.288 A  
HETATM   21  C   UNL     1     -11.532  13.060  66.523  1.00  0.00    -0.340 A  
HETATM   22  C   UNL     1     -11.178  11.811  66.005  1.00  0.00    -0.352 A  
HETATM   23  C   UNL     1     -11.537  13.209  67.911  1.00  0.00    -0.336 A  
HETATM   24 CL   UNL     1     -11.949  14.727  68.647  1.00  0.00    -0.325 Cl 
HETATM   25  C   UNL     1     -11.179  12.154  68.756  1.00  0.00    -0.314 A  
BRANCH  21  26
HETATM   26  N   UNL     1     -11.837  14.192  65.735  1.00  0.00    -0.367 N  
HETATM   27  H   UNL     1     -12.825  14.366  65.553  1.00  0.00     0.000 HD 
BRANCH  26  28
HETATM   28  C   UNL     1     -10.951  15.080  65.188  1.00  0.00    -0.406 C  
HETATM   29  O   UNL     1     -11.258  16.081  64.550  1.00  0.00    -0.521 OA 
BRANCH  28  30
HETATM   30  N   UNL     1      -9.637  14.738  65.424  1.00  0.00    -0.477 N  
HETATM   31  H   UNL     1      -9.251  13.889  65.010  1.00  0.00     0.000 HD 
BRANCH  30  32
HETATM   32  C   UNL     1      -8.811  15.565  66.243  1.00  0.00    -0.303 C  
HETATM   33  C   UNL     1      -9.361  16.620  67.157  1.00  0.00    -0.236 C  
HETATM   34  C   UNL     1      -8.812  15.350  67.733  1.00  0.00    -0.170 C  
ENDBRANCH  30  32
ENDBRANCH  28  30
ENDBRANCH  26  28
ENDBRANCH  21  26
ENDBRANCH  18  19
ENDBRANCH  11  18
ENDBRANCH   2   3
TORSDOF 8
ENDMDL
MODEL      208
REMARK 921   NORMALIZED FREE ENERGY PREDICTED BY IDOCK:   -3.61 KCAL/MOL
REMARK 922        TOTAL FREE ENERGY PREDICTED BY IDOCK:   -6.83 KCAL/MOL
REMARK 923 INTER-LIGAND FREE ENERGY PREDICTED BY IDOCK:   -5.71 KCAL/MOL
REMARK 924 INTRA-LIGAND FREE ENERGY PREDICTED BY IDOCK:   -1.12 KCAL/MOL
REMARK 927      BINDING AFFINITY PREDICTED BY RF-SCORE:    0.00 PKD
ROOT
HETATM    1  C   UNL     1      -8.950  11.133  62.343  1.00  0.00    -0.265 C  
HETATM    2  O   UNL     1      -9.125  10.030  63.231  1.00  0.00    -0.240 OA 
ENDROOT
BRANCH   2   3
HETATM    3  C   UNL     1      -9.287  10.355  64.553  1.00  0.00    -0.264 A  
HETATM    4  C   UNL     1      -8.426   9.798  65.508  1.00  0.00    -0.150 A  
HETATM    5  N   UNL     1     -11.641  12.181  66.579  1.00  0.00    -0.484 NA 
HETATM    6  C   UNL     1      -8.635  10.080  66.877  1.00  0.00    -0.128 A  
HETATM    7  C   UNL     1     -10.569  11.431  66.315  1.00  0.00    -0.263 A  
HETATM    8  C   UNL     1      -9.715  10.898  67.307  1.00  0.00    -0.189 A  
HETATM    9  C   UNL     1     -11.974  12.359  67.860  1.00  0.00    -0.196 A  
HETATM   10  C   UNL     1     -10.346  11.156  64.981  1.00  0.00    -0.362 A  
HETATM   11  C   UNL     1     -10.042  11.199  68.662  1.00  0.00    -0.200 A  
HETATM   12  C   UNL     1     -11.244  11.850  68.911  1.00  0.00    -0.310 A  
BRANCH   4  13
HETATM   13  C   UNL     1      -7.265   8.964  65.079  1.00  0.00    -0.091 C  
HETATM   14  H2  UNL     1      -5.892  10.487  65.487  1.00  0.00     0.000 HD 
HETATM   15  H1  UNL     1      -5.227   8.962  64.860  1.00  0.00     0.000 HD 
HETATM   16  O   UNL     1      -7.382   7.820  64.661  1.00  0.00    -0.071 OA 
HETATM   17  N   UNL     1      -6.020   9.532  65.153  1.00  0.00    -0.067 N  
ENDBRANCH   4  13
BRANCH  11  18
HETATM   18  O   UNL     1      -9.203  10.700  69.643  1.00  0.00    -0.061 OA 
BRANCH  18  19
HETATM   19  C   UNL     1      -9.450   9.539  70.356  1.00  0.00    -0.262 A  
HETATM   20  C   UNL     1      -8.380   9.070  71.130  1.00  0.00    -0.212 A  
HETATM   21  C   UNL     1      -9.537   6.975  71.605  1.00  0.00    -0.156 A  
HETATM   22  C   UNL     1      -8.426   7.808  71.757  1.00  0.00    -0.134 A  
HETATM   23  C   UNL     1     -10.609   7.454  70.850  1.00  0.00    -0.223 A  
HETATM   24 CL   UNL     1     -12.028   6.487  70.595  1.00  0.00    -0.415 Cl 
HETATM   25  C   UNL     1     -10.565   8.715  70.246  1.00  0.00    -0.240 A  
BRANCH  21  26
HETATM   26  N   UNL     1      -9.627   5.664  72.125  1.00  0.00    -0.149 N  
HETATM   27  H   UNL     1     -10.566   5.313  72.313  1.00  0.00     0.000 HD 
BRANCH  26  28
HETATM   28  C   UNL     1      -8.592   4.814  72.402  1.00  0.00    -0.119 C  
HETATM   29  O   UNL     1      -7.835   4.911  73.362  1.00  0.00    -0.094 OA 
BRANCH  28  30
HETATM   30  N   UNL     1      -8.467   3.802  71.473  1.00  0.00    -0.079 N  
HETATM   31  H   UNL     1      -8.030   2.920  71.740  1.00  0.00     0.000 HD 
BRANCH  30  32
HETATM   32  C   UNL     1      -8.947   3.981  70.141  1.00  0.00    -0.096 C  
HETATM   33  C   UNL     1      -8.050   4.330  68.990  1.00  0.00    -0.073 C  
HETATM   34  C   UNL     1      -8.614   2.945  69.101  1.00  0.00    -0.117 C  
ENDBRANCH  30  32
ENDBRANCH  28  30
ENDBRANCH  26  28
ENDBRANCH  21  26
ENDBRANCH  18  19
ENDBRANCH  11  18
ENDBRANCH   2   3
TORSDOF 8
ENDMDL
MODEL      209
REMARK 921   NORMALIZED FREE ENERGY PREDICTED BY IDOCK:   -3.60 KCAL/MOL
REMARK 922        TOTAL FREE ENERGY PREDICTED BY IDOCK:   -6.82 KCAL/MOL
REMARK 923 INTER-LIGAND FREE ENERGY PREDICTED BY IDOCK:   -5.95 KCAL/MOL
REMARK 924 INTRA-LIGAND FREE ENERGY PREDICTED BY IDOCK:   -0.87 KCAL/MOL
REMARK 927      BINDING AFFINITY PREDICTED BY RF-SCORE:    0.00 PKD
ROOT
HETATM    1  C   UNL     1      -6.468   2.684  62.506  1.00  0.00    -0.018 C  
HETATM    2  O   UNL     1      -7.673   3.446  62.529  1.00  0.00    -0.056 OA 
ENDROOT
BRANCH   2   3
HETATM    3  C   UNL     1      -7.631   4.599  63.269  1.00  0.00    -0.059 A  
HETATM    4  C   UNL     1      -8.586   4.806  64.274  1.00  0.00    -0.141 A  
HETATM    5  N   UNL     1      -5.801   7.701  63.266  1.00  0.00    -0.050 NA 
HETATM    6  C   UNL     1      -8.583   6.023  64.992  1.00  0.00    -0.043 A  
HETATM    7  C   UNL     1      -6.708   6.811  63.670  1.00  0.00    -0.045 A  
HETATM    8  C   UNL     1      -7.647   7.052  64.699  1.00  0.00    -0.106 A  
HETATM    9  C   UNL     1      -5.846   8.923  63.806  1.00  0.00    -0.072 A  
HETATM   10  C   UNL     1      -6.716   5.613  62.985  1.00  0.00    -0.032 A  
HETATM   11  C   UNL     1      -7.595   8.332  65.326  1.00  0.00    -0.094 A  
HETATM   12  C   UNL     1      -6.745   9.288  64.783  1.00  0.00    -0.080 A  
BRANCH   4  13
HETATM   13  C   UNL     1      -9.557   3.727  64.624  1.00  0.00    -0.173 C  
HETATM   14  H2  UNL     1     -10.959   4.396  63.226  1.00  0.00     0.000 HD 
HETATM   15  H1  UNL     1     -11.408   2.966  64.182  1.00  0.00     0.000 HD 
HETATM   16  O   UNL     1      -9.339   2.888  65.488  1.00  0.00    -0.149 OA 
HETATM   17  N   UNL     1     -10.745   3.704  63.944  1.00  0.00    -0.279 N  
ENDBRANCH   4  13
BRANCH  11  18
HETATM   18  O   UNL     1      -8.495   8.574  66.350  1.00  0.00    -0.110 OA 
BRANCH  18  19
HETATM   19  C   UNL     1      -9.547   9.470  66.259  1.00  0.00    -0.226 A  
HETATM   20  C   UNL     1      -9.807   9.964  64.974  1.00  0.00    -0.323 A  
HETATM   21  C   UNL     1     -11.380  11.616  65.839  1.00  0.00    -0.199 A  
HETATM   22  C   UNL     1     -10.720  11.017  64.762  1.00  0.00    -0.304 A  
HETATM   23  C   UNL     1     -11.133  11.109  67.115  1.00  0.00    -0.287 A  
HETATM   24 CL   UNL     1     -11.897  11.797  68.515  1.00  0.00    -0.384 Cl 
HETATM   25  C   UNL     1     -10.240  10.052  67.316  1.00  0.00    -0.275 A  
BRANCH  21  26
HETATM   26  N   UNL     1     -12.240  12.731  65.724  1.00  0.00    -0.447 N  
HETATM   27  H   UNL     1     -13.230  12.560  65.901  1.00  0.00     0.000 HD 
BRANCH  26  28
HETATM   28  C   UNL     1     -11.891  14.014  65.401  1.00  0.00    -0.359 C  
HETATM   29  O   UNL     1     -11.685  14.426  64.265  1.00  0.00    -0.376 OA 
BRANCH  28  30
HETATM   30  N   UNL     1     -11.785  14.833  66.505  1.00  0.00    -0.319 N  
HETATM   31  H   UNL     1     -12.628  15.139  66.992  1.00  0.00     0.000 HD 
BRANCH  30  32
HETATM   32  C   UNL     1     -10.504  15.255  66.972  1.00  0.00    -0.292 C  
HETATM   33  C   UNL     1      -9.597  16.146  66.176  1.00  0.00    -0.359 C  
HETATM   34  C   UNL     1     -10.312  16.692  67.376  1.00  0.00    -0.292 C  
ENDBRANCH  30  32
ENDBRANCH  28  30
ENDBRANCH  26  28
ENDBRANCH  21  26
ENDBRANCH  18  19
ENDBRANCH  11  18
ENDBRANCH   2   3
TORSDOF 8
ENDMDL
MODEL      210
REMARK 921   NORMALIZED FREE ENERGY PREDICTED BY IDOCK:   -3.60 KCAL/MOL
REMARK 922        TOTAL FREE ENERGY PREDICTED BY IDOCK:   -6.81 KCAL/MOL
REMARK 923 INTER-LIGAND FREE ENERGY PREDICTED BY IDOCK:   -6.89 KCAL/MOL
REMARK 924 INTRA-LIGAND FREE ENERGY PREDICTED BY IDOCK:    0.08 KCAL/MOL
REMARK 927      BINDING AFFINITY PREDICTED BY RF-SCORE:    0.00 PKD
ROOT
HETATM    1  C   UNL     1     -10.923   8.674  70.847  1.00  0.00    -0.253 C  
HETATM    2  O   UNL     1     -10.927   9.060  69.473  1.00  0.00    -0.207 OA 
ENDROOT
BRANCH   2   3
HETATM    3  C   UNL     1      -9.844   9.793  69.062  1.00  0.00    -0.181 A  
HETATM    4  C   UNL     1     -10.039  11.095  68.579  1.00  0.00    -0.208 A  
HETATM    5  N   UNL     1      -6.319   9.274  68.536  1.00  0.00    -0.052 NA 
HETATM    6  C   UNL     1      -8.932  11.826  68.093  1.00  0.00    -0.181 A  
HETATM    7  C   UNL     1      -7.474   9.940  68.544  1.00  0.00    -0.082 A  
HETATM    8  C   UNL     1      -7.629  11.260  68.061  1.00  0.00    -0.105 A  
HETATM    9  C   UNL     1      -5.268   9.859  67.953  1.00  0.00    -0.035 A  
HETATM   10  C   UNL     1      -8.563   9.242  69.026  1.00  0.00    -0.134 A  
HETATM   11  C   UNL     1      -6.460  11.892  67.543  1.00  0.00    -0.111 A  
HETATM   12  C   UNL     1      -5.310  11.123  67.408  1.00  0.00    -0.043 A  
BRANCH   4  13
HETATM   13  C   UNL     1     -11.391  11.724  68.635  1.00  0.00    -0.270 C  
HETATM   14  H2  UNL     1     -11.052  12.523  70.536  1.00  0.00     0.000 HD 
HETATM   15  H1  UNL     1     -12.636  12.860  69.802  1.00  0.00     0.000 HD 
HETATM   16  O   UNL     1     -12.213  11.622  67.733  1.00  0.00    -0.560 OA 
HETATM   17  N   UNL     1     -11.712  12.430  69.764  1.00  0.00    -0.309 N  
ENDBRANCH   4  13
BRANCH  11  18
HETATM   18  O   UNL     1      -6.591  13.192  67.085  1.00  0.00    -0.192 OA 
BRANCH  18  19
HETATM   19  C   UNL     1      -7.471  14.116  67.622  1.00  0.00    -0.178 A  
HETATM   20  C   UNL     1      -7.220  14.483  68.951  1.00  0.00    -0.125 A  
HETATM   21  C   UNL     1      -9.338  15.685  69.104  1.00  0.00    -0.252 A  
HETATM   22  C   UNL     1      -8.136  15.267  69.681  1.00  0.00    -0.125 A  
HETATM   23  C   UNL     1      -9.576  15.334  67.775  1.00  0.00    -0.206 A  
HETATM   24 CL   UNL     1     -11.047  15.796  66.975  1.00  0.00    -0.219 Cl 
HETATM   25  C   UNL     1      -8.655  14.571  67.049  1.00  0.00    -0.241 A  
BRANCH  21  26
HETATM   26  N   UNL     1     -10.347  16.395  69.792  1.00  0.00    -0.241 N  
HETATM   27  H   UNL     1     -10.244  17.410  69.827  1.00  0.00     0.000 HD 
BRANCH  26  28
HETATM   28  C   UNL     1     -11.446  15.872  70.415  1.00  0.00    -0.378 C  
HETATM   29  O   UNL     1     -12.598  15.955  70.003  1.00  0.00    -0.264 OA 
BRANCH  28  30
HETATM   30  N   UNL     1     -11.136  15.222  71.590  1.00  0.00    -0.510 N  
HETATM   31  H   UNL     1     -10.186  14.885  71.749  1.00  0.00     0.000 HD 
BRANCH  30  32
HETATM   32  C   UNL     1     -12.136  15.015  72.588  1.00  0.00    -0.333 C  
HETATM   33  C   UNL     1     -11.842  15.050  74.059  1.00  0.00    -0.251 C  
HETATM   34  C   UNL     1     -12.587  16.185  73.422  1.00  0.00    -0.648 C  
ENDBRANCH  30  32
ENDBRANCH  28  30
ENDBRANCH  26  28
ENDBRANCH  21  26
ENDBRANCH  18  19
ENDBRANCH  11  18
ENDBRANCH   2   3
TORSDOF 8
ENDMDL
MODEL      211
REMARK 921   NORMALIZED FREE ENERGY PREDICTED BY IDOCK:   -3.60 KCAL/MOL
REMARK 922        TOTAL FREE ENERGY PREDICTED BY IDOCK:   -6.81 KCAL/MOL
REMARK 923 INTER-LIGAND FREE ENERGY PREDICTED BY IDOCK:   -5.60 KCAL/MOL
REMARK 924 INTRA-LIGAND FREE ENERGY PREDICTED BY IDOCK:   -1.21 KCAL/MOL
REMARK 927      BINDING AFFINITY PREDICTED BY RF-SCORE:    0.00 PKD
ROOT
HETATM    1  C   UNL     1      -9.497   9.840  62.362  1.00  0.00    -0.061 C  
HETATM    2  O   UNL     1      -8.640  10.780  63.007  1.00  0.00    -0.183 OA 
ENDROOT
BRANCH   2   3
HETATM    3  C   UNL     1      -8.818  10.913  64.359  1.00  0.00    -0.060 A  
HETATM    4  C   UNL     1      -7.828  10.443  65.233  1.00  0.00    -0.137 A  
HETATM    5  N   UNL     1     -11.423  11.969  66.612  1.00  0.00    -0.422 NA 
HETATM    6  C   UNL     1      -8.042  10.520  66.628  1.00  0.00    -0.127 A  
HETATM    7  C   UNL     1     -10.231  11.494  66.250  1.00  0.00    -0.230 A  
HETATM    8  C   UNL     1      -9.250  11.042  67.163  1.00  0.00    -0.162 A  
HETATM    9  C   UNL     1     -11.741  11.929  67.909  1.00  0.00    -0.298 A  
HETATM   10  C   UNL     1     -10.003  11.423  64.891  1.00  0.00    -0.311 A  
HETATM   11  C   UNL     1      -9.584  11.113  68.548  1.00  0.00    -0.193 A  
HETATM   12  C   UNL     1     -10.885  11.468  68.885  1.00  0.00    -0.263 A  
BRANCH   4  13
HETATM   13  C   UNL     1      -6.536   9.923  64.696  1.00  0.00    -0.119 C  
HETATM   14  H2  UNL     1      -7.350   8.045  64.274  1.00  0.00     0.000 HD 
HETATM   15  H1  UNL     1      -5.633   8.275  63.878  1.00  0.00     0.000 HD 
HETATM   16  O   UNL     1      -5.512  10.592  64.657  1.00  0.00    -0.143 OA 
HETATM   17  N   UNL     1      -6.515   8.630  64.245  1.00  0.00    -0.071 N  
ENDBRANCH   4  13
BRANCH  11  18
HETATM   18  O   UNL     1      -8.627  10.693  69.454  1.00  0.00    -0.130 OA 
BRANCH  18  19
HETATM   19  C   UNL     1      -8.683   9.491  70.138  1.00  0.00    -0.230 A  
HETATM   20  C   UNL     1      -7.878   8.467  69.621  1.00  0.00    -0.100 A  
HETATM   21  C   UNL     1      -8.898   6.810  71.093  1.00  0.00    -0.137 A  
HETATM   22  C   UNL     1      -7.975   7.144  70.099  1.00  0.00    -0.113 A  
HETATM   23  C   UNL     1      -9.685   7.836  71.619  1.00  0.00    -0.163 A  
HETATM   24 CL   UNL     1     -10.869   7.516  72.848  1.00  0.00    -0.390 Cl 
HETATM   25  C   UNL     1      -9.571   9.150  71.154  1.00  0.00    -0.347 A  
BRANCH  21  26
HETATM   26  N   UNL     1      -9.121   5.497  71.564  1.00  0.00    -0.139 N  
HETATM   27  H   UNL     1      -8.766   5.283  72.496  1.00  0.00     0.000 HD 
BRANCH  26  28
HETATM   28  C   UNL     1      -9.760   4.482  70.907  1.00  0.00    -0.193 C  
HETATM   29  O   UNL     1     -10.510   4.623  69.947  1.00  0.00    -0.100 OA 
BRANCH  28  30
HETATM   30  N   UNL     1      -9.480   3.241  71.438  1.00  0.00    -0.140 N  
HETATM   31  H   UNL     1      -9.063   2.519  70.850  1.00  0.00     0.000 HD 
BRANCH  30  32
HETATM   32  C   UNL     1      -9.770   2.958  72.807  1.00  0.00    -0.122 C  
HETATM   33  C   UNL     1     -11.081   3.299  73.452  1.00  0.00    -0.282 C  
HETATM   34  C   UNL     1     -10.756   1.870  73.134  1.00  0.00    -0.238 C  
ENDBRANCH  30  32
ENDBRANCH  28  30
ENDBRANCH  26  28
ENDBRANCH  21  26
ENDBRANCH  18  19
ENDBRANCH  11  18
ENDBRANCH   2   3
TORSDOF 8
ENDMDL
MODEL      212
REMARK 921   NORMALIZED FREE ENERGY PREDICTED BY IDOCK:   -3.56 KCAL/MOL
REMARK 922        TOTAL FREE ENERGY PREDICTED BY IDOCK:   -6.76 KCAL/MOL
REMARK 923 INTER-LIGAND FREE ENERGY PREDICTED BY IDOCK:   -6.70 KCAL/MOL
REMARK 924 INTRA-LIGAND FREE ENERGY PREDICTED BY IDOCK:   -0.06 KCAL/MOL
REMARK 927      BINDING AFFINITY PREDICTED BY RF-SCORE:    0.00 PKD
ROOT
HETATM    1  C   UNL     1     -11.119  14.419  66.581  1.00  0.00    -0.326 C  
HETATM    2  O   UNL     1     -10.203  13.445  67.079  1.00  0.00    -0.244 OA 
ENDROOT
BRANCH   2   3
HETATM    3  C   UNL     1     -10.690  12.621  68.060  1.00  0.00    -0.226 A  
HETATM    4  C   UNL     1     -10.601  11.232  67.899  1.00  0.00    -0.231 A  
HETATM    5  N   UNL     1     -12.556  12.943  71.125  1.00  0.00    -0.344 NA 
HETATM    6  C   UNL     1     -11.162  10.383  68.879  1.00  0.00    -0.290 A  
HETATM    7  C   UNL     1     -11.919  12.316  70.134  1.00  0.00    -0.298 A  
HETATM    8  C   UNL     1     -11.837  10.910  70.014  1.00  0.00    -0.428 A  
HETATM    9  C   UNL     1     -13.232  12.194  72.001  1.00  0.00    -0.391 A  
HETATM   10  C   UNL     1     -11.356  13.132  69.175  1.00  0.00    -0.335 A  
HETATM   11  C   UNL     1     -12.482  10.142  71.028  1.00  0.00    -0.375 A  
HETATM   12  C   UNL     1     -13.263  10.818  71.958  1.00  0.00    -0.466 A  
BRANCH   4  13
HETATM   13  C   UNL     1      -9.866  10.655  66.735  1.00  0.00    -0.198 C  
HETATM   14  H2  UNL     1      -8.419   9.771  67.956  1.00  0.00     0.000 HD 
HETATM   15  H1  UNL     1      -8.240   9.525  66.205  1.00  0.00     0.000 HD 
HETATM   16  O   UNL     1     -10.216  10.823  65.574  1.00  0.00    -0.257 OA 
HETATM   17  N   UNL     1      -8.741   9.919  67.000  1.00  0.00    -0.131 N  
ENDBRANCH   4  13
BRANCH  11  18
HETATM   18  O   UNL     1     -12.394   8.764  70.934  1.00  0.00    -0.214 OA 
BRANCH  18  19
HETATM   19  C   UNL     1     -11.347   8.019  71.451  1.00  0.00    -0.256 A  
HETATM   20  C   UNL     1     -11.460   6.631  71.290  1.00  0.00    -0.360 A  
HETATM   21  C   UNL     1      -9.554   6.224  72.756  1.00  0.00    -0.154 A  
HETATM   22  C   UNL     1     -10.569   5.743  71.925  1.00  0.00    -0.285 A  
HETATM   23  C   UNL     1      -9.432   7.607  72.899  1.00  0.00    -0.206 A  
HETATM   24 CL   UNL     1      -8.209   8.298  73.920  1.00  0.00    -0.298 Cl 
HETATM   25  C   UNL     1     -10.308   8.484  72.251  1.00  0.00    -0.402 A  
BRANCH  21  26
HETATM   26  N   UNL     1      -8.676   5.402  73.498  1.00  0.00    -0.114 N  
HETATM   27  H   UNL     1      -7.888   5.869  73.947  1.00  0.00     0.000 HD 
BRANCH  26  28
HETATM   28  C   UNL     1      -8.768   4.050  73.681  1.00  0.00    -0.094 C  
HETATM   29  O   UNL     1      -7.971   3.223  73.251  1.00  0.00    -0.067 OA 
BRANCH  28  30
HETATM   30  N   UNL     1      -9.876   3.683  74.415  1.00  0.00    -0.118 N  
HETATM   31  H   UNL     1     -10.003   4.050  75.359  1.00  0.00     0.000 HD 
BRANCH  30  32
HETATM   32  C   UNL     1     -10.847   2.794  73.864  1.00  0.00    -0.199 C  
HETATM   33  C   UNL     1     -11.621   3.101  72.617  1.00  0.00     0.832 C  
HETATM   34  C   UNL     1     -10.530   2.073  72.581  1.00  0.00    -0.228 C  
ENDBRANCH  30  32
ENDBRANCH  28  30
ENDBRANCH  26  28
ENDBRANCH  21  26
ENDBRANCH  18  19
ENDBRANCH  11  18
ENDBRANCH   2   3
TORSDOF 8
ENDMDL
MODEL      213
REMARK 921   NORMALIZED FREE ENERGY PREDICTED BY IDOCK:   -3.55 KCAL/MOL
REMARK 922        TOTAL FREE ENERGY PREDICTED BY IDOCK:   -6.74 KCAL/MOL
REMARK 923 INTER-LIGAND FREE ENERGY PREDICTED BY IDOCK:   -6.41 KCAL/MOL
REMARK 924 INTRA-LIGAND FREE ENERGY PREDICTED BY IDOCK:   -0.33 KCAL/MOL
REMARK 927      BINDING AFFINITY PREDICTED BY RF-SCORE:    0.00 PKD
ROOT
HETATM    1  C   UNL     1     -11.728   6.640  70.019  1.00  0.00    -0.317 C  
HETATM    2  O   UNL     1     -10.630   6.439  69.130  1.00  0.00    -0.204 OA 
ENDROOT
BRANCH   2   3
HETATM    3  C   UNL     1     -10.037   7.579  68.655  1.00  0.00    -0.184 A  
HETATM    4  C   UNL     1      -9.078   8.234  69.440  1.00  0.00    -0.154 A  
HETATM    5  N   UNL     1     -10.395   9.793  65.836  1.00  0.00    -0.162 NA 
HETATM    6  C   UNL     1      -8.515   9.445  68.980  1.00  0.00    -0.129 A  
HETATM    7  C   UNL     1      -9.897   9.343  66.989  1.00  0.00    -0.201 A  
HETATM    8  C   UNL     1      -8.918  10.026  67.747  1.00  0.00    -0.133 A  
HETATM    9  C   UNL     1     -10.010  11.005  65.424  1.00  0.00    -0.260 A  
HETATM   10  C   UNL     1     -10.430   8.155  67.446  1.00  0.00    -0.356 A  
HETATM   11  C   UNL     1      -8.453  11.267  67.220  1.00  0.00    -0.144 A  
HETATM   12  C   UNL     1      -9.097  11.782  66.102  1.00  0.00    -0.189 A  
BRANCH   4  13
HETATM   13  C   UNL     1      -8.612   7.625  70.721  1.00  0.00    -0.134 C  
HETATM   14  H2  UNL     1      -9.543   9.097  71.876  1.00  0.00     0.000 HD 
HETATM   15  H1  UNL     1      -8.658   7.834  72.760  1.00  0.00     0.000 HD 
HETATM   16  O   UNL     1      -7.920   6.616  70.768  1.00  0.00    -0.107 OA 
HETATM   17  N   UNL     1      -8.976   8.250  71.885  1.00  0.00    -0.167 N  
ENDBRANCH   4  13
BRANCH  11  18
HETATM   18  O   UNL     1      -7.479  11.937  67.941  1.00  0.00    -0.099 OA 
BRANCH  18  19
HETATM   19  C   UNL     1      -7.596  13.250  68.364  1.00  0.00    -0.137 A  
HETATM   20  C   UNL     1      -8.660  13.970  67.804  1.00  0.00    -0.183 A  
HETATM   21  C   UNL     1      -7.841  16.068  68.742  1.00  0.00    -0.190 A  
HETATM   22  C   UNL     1      -8.788  15.360  67.998  1.00  0.00    -0.165 A  
HETATM   23  C   UNL     1      -6.794  15.345  69.315  1.00  0.00    -0.157 A  
HETATM   24 CL   UNL     1      -5.561  16.138  70.246  1.00  0.00    -0.181 Cl 
HETATM   25  C   UNL     1      -6.682  13.962  69.134  1.00  0.00    -0.113 A  
BRANCH  21  26
HETATM   26  N   UNL     1      -7.847  17.470  68.911  1.00  0.00    -0.240 N  
HETATM   27  H   UNL     1      -8.310  17.825  69.748  1.00  0.00     0.000 HD 
BRANCH  26  28
HETATM   28  C   UNL     1      -7.299  18.405  68.075  1.00  0.00    -0.247 C  
HETATM   29  O   UNL     1      -6.118  18.457  67.752  1.00  0.00    -0.180 OA 
BRANCH  28  30
HETATM   30  N   UNL     1      -8.224  19.316  67.613  1.00  0.00    -0.286 N  
HETATM   31  H   UNL     1      -8.202  20.278  67.951  1.00  0.00     0.000 HD 
BRANCH  30  32
HETATM   32  C   UNL     1      -9.213  18.923  66.662  1.00  0.00    -0.330 C  
HETATM   33  C   UNL     1     -10.634  18.622  67.038  1.00  0.00    -0.448 C  
HETATM   34  C   UNL     1     -10.311  19.891  66.309  1.00  0.00    -0.608 C  
ENDBRANCH  30  32
ENDBRANCH  28  30
ENDBRANCH  26  28
ENDBRANCH  21  26
ENDBRANCH  18  19
ENDBRANCH  11  18
ENDBRANCH   2   3
TORSDOF 8
ENDMDL
MODEL      214
REMARK 921   NORMALIZED FREE ENERGY PREDICTED BY IDOCK:   -3.52 KCAL/MOL
REMARK 922        TOTAL FREE ENERGY PREDICTED BY IDOCK:   -6.70 KCAL/MOL
REMARK 923 INTER-LIGAND FREE ENERGY PREDICTED BY IDOCK:   -5.12 KCAL/MOL
REMARK 924 INTRA-LIGAND FREE ENERGY PREDICTED BY IDOCK:   -1.58 KCAL/MOL
REMARK 927      BINDING AFFINITY PREDICTED BY RF-SCORE:    0.00 PKD
ROOT
HETATM    1  C   UNL     1      -9.920  17.195  67.970  1.00  0.00    -0.295 C  
HETATM    2  O   UNL     1     -10.242  16.105  67.109  1.00  0.00    -0.269 OA 
ENDROOT
BRANCH   2   3
HETATM    3  C   UNL     1      -9.543  14.947  67.334  1.00  0.00    -0.206 A  
HETATM    4  C   UNL     1     -10.228  13.806  67.774  1.00  0.00    -0.241 A  
HETATM    5  N   UNL     1      -6.103  13.881  67.401  1.00  0.00    -0.326 NA 
HETATM    6  C   UNL     1      -9.499  12.632  68.070  1.00  0.00    -0.209 A  
HETATM    7  C   UNL     1      -7.427  13.766  67.518  1.00  0.00    -0.169 A  
HETATM    8  C   UNL     1      -8.083  12.592  67.952  1.00  0.00    -0.163 A  
HETATM    9  C   UNL     1      -5.352  12.852  67.807  1.00  0.00    -0.114 A  
HETATM   10  C   UNL     1      -8.153  14.902  67.222  1.00  0.00    -0.234 A  
HETATM   11  C   UNL     1      -7.253  11.478  68.276  1.00  0.00    -0.084 A  
HETATM   12  C   UNL     1      -5.877  11.675  68.291  1.00  0.00    -0.045 A  
BRANCH   4  13
HETATM   13  C   UNL     1     -11.718  13.812  67.871  1.00  0.00    -0.360 C  
HETATM   14  H2  UNL     1     -11.954  13.784  65.795  1.00  0.00     0.000 HD 
HETATM   15  H1  UNL     1     -13.443  13.803  66.765  1.00  0.00     0.000 HD 
HETATM   16  O   UNL     1     -12.317  13.842  68.938  1.00  0.00    -0.301 OA 
HETATM   17  N   UNL     1     -12.426  13.798  66.699  1.00  0.00    -0.343 N  
ENDBRANCH   4  13
BRANCH  11  18
HETATM   18  O   UNL     1      -7.883  10.315  68.684  1.00  0.00    -0.091 OA 
BRANCH  18  19
HETATM   19  C   UNL     1      -7.787   9.107  68.013  1.00  0.00    -0.100 A  
HETATM   20  C   UNL     1      -7.235   8.051  68.751  1.00  0.00    -0.083 A  
HETATM   21  C   UNL     1      -7.104   6.630  66.772  1.00  0.00    -0.069 A  
HETATM   22  C   UNL     1      -6.907   6.823  68.142  1.00  0.00    -0.078 A  
HETATM   23  C   UNL     1      -7.672   7.676  66.044  1.00  0.00    -0.090 A  
HETATM   24 CL   UNL     1      -7.943   7.535  64.335  1.00  0.00    -0.135 Cl 
HETATM   25  C   UNL     1      -8.013   8.886  66.657  1.00  0.00    -0.103 A  
BRANCH  21  26
HETATM   26  N   UNL     1      -6.722   5.465  66.069  1.00  0.00    -0.055 N  
HETATM   27  H   UNL     1      -5.910   5.550  65.457  1.00  0.00     0.000 HD 
BRANCH  26  28
HETATM   28  C   UNL     1      -7.321   4.237  66.120  1.00  0.00    -0.076 C  
HETATM   29  O   UNL     1      -6.855   3.246  66.672  1.00  0.00    -0.051 OA 
BRANCH  28  30
HETATM   30  N   UNL     1      -8.538   4.207  65.472  1.00  0.00    -0.116 N  
HETATM   31  H   UNL     1      -8.574   4.295  64.456  1.00  0.00     0.000 HD 
BRANCH  30  32
HETATM   32  C   UNL     1      -9.748   4.054  66.213  1.00  0.00    -0.187 C  
HETATM   33  C   UNL     1      -9.896   4.501  67.637  1.00  0.00    -0.181 C  
HETATM   34  C   UNL     1     -10.562   5.277  66.541  1.00  0.00    -0.348 C  
ENDBRANCH  30  32
ENDBRANCH  28  30
ENDBRANCH  26  28
ENDBRANCH  21  26
ENDBRANCH  18  19
ENDBRANCH  11  18
ENDBRANCH   2   3
TORSDOF 8
ENDMDL
MODEL      215
REMARK 921   NORMALIZED FREE ENERGY PREDICTED BY IDOCK:   -3.52 KCAL/MOL
REMARK 922        TOTAL FREE ENERGY PREDICTED BY IDOCK:   -6.70 KCAL/MOL
REMARK 923 INTER-LIGAND FREE ENERGY PREDICTED BY IDOCK:   -5.37 KCAL/MOL
REMARK 924 INTRA-LIGAND FREE ENERGY PREDICTED BY IDOCK:   -1.32 KCAL/MOL
REMARK 927      BINDING AFFINITY PREDICTED BY RF-SCORE:    0.00 PKD
ROOT
HETATM    1  C   UNL     1      -6.275   4.394  74.405  1.00  0.00    -0.043 C  
HETATM    2  O   UNL     1      -7.551   4.953  74.099  1.00  0.00    -0.091 OA 
ENDROOT
BRANCH   2   3
HETATM    3  C   UNL     1      -7.695   5.436  72.825  1.00  0.00    -0.098 A  
HETATM    4  C   UNL     1      -7.619   6.818  72.600  1.00  0.00    -0.091 A  
HETATM    5  N   UNL     1      -8.553   4.154  69.570  1.00  0.00    -0.071 NA 
HETATM    6  C   UNL     1      -7.833   7.321  71.297  1.00  0.00    -0.096 A  
HETATM    7  C   UNL     1      -8.229   5.071  70.482  1.00  0.00    -0.100 A  
HETATM    8  C   UNL     1      -8.148   6.457  70.214  1.00  0.00    -0.120 A  
HETATM    9  C   UNL     1      -8.911   4.583  68.356  1.00  0.00    -0.113 A  
HETATM   10  C   UNL     1      -8.006   4.593  71.757  1.00  0.00    -0.099 A  
HETATM   11  C   UNL     1      -8.433   6.868  68.878  1.00  0.00    -0.125 A  
HETATM   12  C   UNL     1      -8.915   5.912  67.993  1.00  0.00    -0.118 A  
BRANCH   4  13
HETATM   13  C   UNL     1      -7.254   7.742  73.715  1.00  0.00    -0.121 C  
HETATM   14  H2  UNL     1      -5.225   7.707  73.215  1.00  0.00     0.000 HD 
HETATM   15  H1  UNL     1      -5.684   8.707  74.612  1.00  0.00     0.000 HD 
HETATM   16  O   UNL     1      -8.075   8.193  74.503  1.00  0.00    -0.243 OA 
HETATM   17  N   UNL     1      -5.933   8.076  73.851  1.00  0.00    -0.079 N  
ENDBRANCH   4  13
BRANCH  11  18
HETATM   18  O   UNL     1      -8.338   8.220  68.596  1.00  0.00    -0.122 OA 
BRANCH  18  19
HETATM   19  C   UNL     1      -9.429   9.067  68.489  1.00  0.00    -0.143 A  
HETATM   20  C   UNL     1      -9.653   9.600  67.213  1.00  0.00    -0.203 A  
HETATM   21  C   UNL     1     -11.346  11.137  68.064  1.00  0.00    -0.312 A  
HETATM   22  C   UNL     1     -10.607  10.615  66.999  1.00  0.00    -0.317 A  
HETATM   23  C   UNL     1     -11.134  10.590  69.330  1.00  0.00    -0.258 A  
HETATM   24 CL   UNL     1     -11.996  11.181  70.717  1.00  0.00    -0.438 Cl 
HETATM   25  C   UNL     1     -10.199   9.570  69.533  1.00  0.00    -0.225 A  
BRANCH  21  26
HETATM   26  N   UNL     1     -12.255  12.212  67.951  1.00  0.00     0.079 N  
HETATM   27  H   UNL     1     -12.982  12.269  68.664  1.00  0.00     0.000 HD 
BRANCH  26  28
HETATM   28  C   UNL     1     -12.268  13.185  66.989  1.00  0.00    -0.210 C  
HETATM   29  O   UNL     1     -12.746  13.064  65.867  1.00  0.00    -0.439 OA 
BRANCH  28  30
HETATM   30  N   UNL     1     -11.673  14.357  67.407  1.00  0.00    -0.381 N  
HETATM   31  H   UNL     1     -12.245  15.102  67.805  1.00  0.00     0.000 HD 
BRANCH  30  32
HETATM   32  C   UNL     1     -10.262  14.534  67.286  1.00  0.00    -0.255 C  
HETATM   33  C   UNL     1      -9.468  14.001  66.130  1.00  0.00    -0.210 C  
HETATM   34  C   UNL     1      -9.733  15.473  66.234  1.00  0.00    -0.328 C  
ENDBRANCH  30  32
ENDBRANCH  28  30
ENDBRANCH  26  28
ENDBRANCH  21  26
ENDBRANCH  18  19
ENDBRANCH  11  18
ENDBRANCH   2   3
TORSDOF 8
ENDMDL
MODEL      216
REMARK 921   NORMALIZED FREE ENERGY PREDICTED BY IDOCK:   -3.51 KCAL/MOL
REMARK 922        TOTAL FREE ENERGY PREDICTED BY IDOCK:   -6.68 KCAL/MOL
REMARK 923 INTER-LIGAND FREE ENERGY PREDICTED BY IDOCK:   -6.00 KCAL/MOL
REMARK 924 INTRA-LIGAND FREE ENERGY PREDICTED BY IDOCK:   -0.69 KCAL/MOL
REMARK 927      BINDING AFFINITY PREDICTED BY RF-SCORE:    0.00 PKD
ROOT
HETATM    1  C   UNL     1     -12.095  10.024  69.374  1.00  0.00     0.322 C  
HETATM    2  O   UNL     1     -11.167   9.795  68.315  1.00  0.00    -0.155 OA 
ENDROOT
BRANCH   2   3
HETATM    3  C   UNL     1     -10.027  10.555  68.353  1.00  0.00    -0.164 A  
HETATM    4  C   UNL     1      -9.813  11.523  67.362  1.00  0.00    -0.202 A  
HETATM    5  N   UNL     1      -6.968  10.678  70.251  1.00  0.00    -0.254 NA 
HETATM    6  C   UNL     1      -8.608  12.261  67.363  1.00  0.00    -0.178 A  
HETATM    7  C   UNL     1      -7.843  11.030  69.308  1.00  0.00    -0.052 A  
HETATM    8  C   UNL     1      -7.597  12.024  68.334  1.00  0.00    -0.128 A  
HETATM    9  C   UNL     1      -5.755  11.236  70.212  1.00  0.00    -0.134 A  
HETATM   10  C   UNL     1      -9.030  10.326  69.302  1.00  0.00    -0.190 A  
HETATM   11  C   UNL     1      -6.329  12.674  68.389  1.00  0.00    -0.069 A  
HETATM   12  C   UNL     1      -5.385  12.182  69.282  1.00  0.00    -0.064 A  
BRANCH   4  13
HETATM   13  C   UNL     1     -10.875  11.815  66.354  1.00  0.00    -0.282 C  
HETATM   14  H2  UNL     1      -9.803  10.900  64.811  1.00  0.00     0.000 HD 
HETATM   15  H1  UNL     1     -11.382  11.593  64.381  1.00  0.00     0.000 HD 
HETATM   16  O   UNL     1     -11.906  12.416  66.625  1.00  0.00    -0.492 OA 
HETATM   17  N   UNL     1     -10.657  11.394  65.069  1.00  0.00    -0.297 N  
ENDBRANCH   4  13
BRANCH  11  18
HETATM   18  O   UNL     1      -6.082  13.663  67.453  1.00  0.00    -0.337 OA 
BRANCH  18  19
HETATM   19  C   UNL     1      -6.535  14.967  67.567  1.00  0.00    -0.077 A  
HETATM   20  C   UNL     1      -5.556  15.959  67.419  1.00  0.00    -0.063 A  
HETATM   21  C   UNL     1      -7.100  17.704  68.144  1.00  0.00    -0.216 A  
HETATM   22  C   UNL     1      -5.836  17.313  67.693  1.00  0.00    -0.144 A  
HETATM   23  C   UNL     1      -8.077  16.716  68.272  1.00  0.00    -0.198 A  
HETATM   24 CL   UNL     1      -9.673  17.103  68.837  1.00  0.00    -0.271 Cl 
HETATM   25  C   UNL     1      -7.799  15.377  67.981  1.00  0.00    -0.133 A  
BRANCH  21  26
HETATM   26  N   UNL     1      -7.436  19.022  68.525  1.00  0.00    -0.304 N  
HETATM   27  H   UNL     1      -7.754  19.150  69.486  1.00  0.00     0.000 HD 
BRANCH  26  28
HETATM   28  C   UNL     1      -7.383  20.145  67.746  1.00  0.00    -0.298 C  
HETATM   29  O   UNL     1      -6.357  20.741  67.435  1.00  0.00    -0.236 OA 
BRANCH  28  30
HETATM   30  N   UNL     1      -8.627  20.566  67.328  1.00  0.00    -0.447 N  
HETATM   31  H   UNL     1      -9.151  21.238  67.890  1.00  0.00     0.000 HD 
BRANCH  30  32
HETATM   32  C   UNL     1      -9.188  20.069  66.114  1.00  0.00    -0.303 C  
HETATM   33  C   UNL     1      -9.699  18.666  65.964  1.00  0.00    -0.140 C  
HETATM   34  C   UNL     1     -10.669  19.807  66.048  1.00  0.00    -0.493 C  
ENDBRANCH  30  32
ENDBRANCH  28  30
ENDBRANCH  26  28
ENDBRANCH  21  26
ENDBRANCH  18  19
ENDBRANCH  11  18
ENDBRANCH   2   3
TORSDOF 8
ENDMDL
MODEL      217
REMARK 921   NORMALIZED FREE ENERGY PREDICTED BY IDOCK:   -3.47 KCAL/MOL
REMARK 922        TOTAL FREE ENERGY PREDICTED BY IDOCK:   -6.63 KCAL/MOL
REMARK 923 INTER-LIGAND FREE ENERGY PREDICTED BY IDOCK:   -5.70 KCAL/MOL
REMARK 924 INTRA-LIGAND FREE ENERGY PREDICTED BY IDOCK:   -0.93 KCAL/MOL
REMARK 927      BINDING AFFINITY PREDICTED BY RF-SCORE:    0.00 PKD
ROOT
HETATM    1  C   UNL     1     -12.986  11.855  63.113  1.00  0.00     0.131 C  
HETATM    2  O   UNL     1     -12.112  12.982  63.114  1.00  0.00    -0.548 OA 
ENDROOT
BRANCH   2   3
HETATM    3  C   UNL     1     -11.442  13.210  64.288  1.00  0.00    -0.384 A  
HETATM    4  C   UNL     1     -10.332  12.418  64.611  1.00  0.00    -0.332 A  
HETATM    5  N   UNL     1     -11.839  15.251  67.230  1.00  0.00    -0.091 NA 
HETATM    6  C   UNL     1      -9.682  12.608  65.851  1.00  0.00    -0.212 A  
HETATM    7  C   UNL     1     -11.276  14.342  66.432  1.00  0.00    -0.337 A  
HETATM    8  C   UNL     1     -10.146  13.571  66.788  1.00  0.00    -0.268 A  
HETATM    9  C   UNL     1     -11.360  15.371  68.471  1.00  0.00    -0.335 A  
HETATM   10  C   UNL     1     -11.893  14.153  65.213  1.00  0.00    -0.367 A  
HETATM   11  C   UNL     1      -9.595  13.803  68.083  1.00  0.00    -0.216 A  
HETATM   12  C   UNL     1     -10.292  14.642  68.945  1.00  0.00    -0.245 A  
BRANCH   4  13
HETATM   13  C   UNL     1      -9.805  11.425  63.629  1.00  0.00    -0.348 C  
HETATM   14  H2  UNL     1     -10.316   9.802  64.842  1.00  0.00     0.000 HD 
HETATM   15  H1  UNL     1      -9.541   9.421  63.288  1.00  0.00     0.000 HD 
HETATM   16  O   UNL     1      -9.288  11.746  62.567  1.00  0.00    -0.217 OA 
HETATM   17  N   UNL     1      -9.901  10.099  63.959  1.00  0.00    -0.225 N  
ENDBRANCH   4  13
BRANCH  11  18
HETATM   18  O   UNL     1      -8.476  13.070  68.438  1.00  0.00    -0.164 OA 
BRANCH  18  19
HETATM   19  C   UNL     1      -8.489  11.707  68.680  1.00  0.00    -0.094 A  
HETATM   20  C   UNL     1      -7.378  11.000  68.199  1.00  0.00    -0.086 A  
HETATM   21  C   UNL     1      -8.433   8.853  68.681  1.00  0.00    -0.128 A  
HETATM   22  C   UNL     1      -7.344   9.591  68.208  1.00  0.00    -0.077 A  
HETATM   23  C   UNL     1      -9.529   9.560  69.177  1.00  0.00    -0.163 A  
HETATM   24 CL   UNL     1     -10.934   8.732  69.773  1.00  0.00    -0.191 Cl 
HETATM   25  C   UNL     1      -9.550  10.959  69.182  1.00  0.00    -0.125 A  
BRANCH  21  26
HETATM   26  N   UNL     1      -8.516   7.444  68.643  1.00  0.00    -0.129 N  
HETATM   27  H   UNL     1      -8.387   6.957  69.531  1.00  0.00     0.000 HD 
BRANCH  26  28
HETATM   28  C   UNL     1      -8.750   6.659  67.547  1.00  0.00    -0.118 C  
HETATM   29  O   UNL     1      -9.837   6.523  66.995  1.00  0.00    -0.141 OA 
BRANCH  28  30
HETATM   30  N   UNL     1      -7.619   6.010  67.102  1.00  0.00    -0.091 N  
HETATM   31  H   UNL     1      -6.836   6.550  66.733  1.00  0.00     0.000 HD 
BRANCH  30  32
HETATM   32  C   UNL     1      -7.534   4.586  67.155  1.00  0.00    -0.081 C  
HETATM   33  C   UNL     1      -6.555   3.857  68.028  1.00  0.00    -0.042 C  
HETATM   34  C   UNL     1      -8.009   3.873  68.392  1.00  0.00    -0.075 C  
ENDBRANCH  30  32
ENDBRANCH  28  30
ENDBRANCH  26  28
ENDBRANCH  21  26
ENDBRANCH  18  19
ENDBRANCH  11  18
ENDBRANCH   2   3
TORSDOF 8
ENDMDL
MODEL      218
REMARK 921   NORMALIZED FREE ENERGY PREDICTED BY IDOCK:   -3.46 KCAL/MOL
REMARK 922        TOTAL FREE ENERGY PREDICTED BY IDOCK:   -6.61 KCAL/MOL
REMARK 923 INTER-LIGAND FREE ENERGY PREDICTED BY IDOCK:   -5.44 KCAL/MOL
REMARK 924 INTRA-LIGAND FREE ENERGY PREDICTED BY IDOCK:   -1.17 KCAL/MOL
REMARK 927      BINDING AFFINITY PREDICTED BY RF-SCORE:    0.00 PKD
ROOT
HETATM    1  C   UNL     1      -9.005   2.221  65.628  1.00  0.00    -0.118 C  
HETATM    2  O   UNL     1      -9.444   3.546  65.334  1.00  0.00    -0.157 OA 
ENDROOT
BRANCH   2   3
HETATM    3  C   UNL     1      -9.294   4.457  66.347  1.00  0.00    -0.157 A  
HETATM    4  C   UNL     1      -8.241   5.381  66.290  1.00  0.00    -0.110 A  
HETATM    5  N   UNL     1     -10.756   5.123  69.571  1.00  0.00    -0.086 NA 
HETATM    6  C   UNL     1      -8.046   6.276  67.366  1.00  0.00    -0.109 A  
HETATM    7  C   UNL     1      -9.924   5.289  68.542  1.00  0.00    -0.163 A  
HETATM    8  C   UNL     1      -8.881   6.243  68.515  1.00  0.00    -0.114 A  
HETATM    9  C   UNL     1     -10.529   5.839  70.676  1.00  0.00    -0.264 A  
HETATM   10  C   UNL     1     -10.110   4.429  67.479  1.00  0.00    -0.061 A  
HETATM   11  C   UNL     1      -8.736   7.064  69.673  1.00  0.00    -0.141 A  
HETATM   12  C   UNL     1      -9.515   6.765  70.784  1.00  0.00    -0.167 A  
BRANCH   4  13
HETATM   13  C   UNL     1      -7.372   5.458  65.079  1.00  0.00    -0.068 C  
HETATM   14  H2  UNL     1      -8.526   6.976  64.224  1.00  0.00     0.000 HD 
HETATM   15  H1  UNL     1      -7.118   6.425  63.289  1.00  0.00     0.000 HD 
HETATM   16  O   UNL     1      -6.395   4.740  64.911  1.00  0.00    -0.033 OA 
HETATM   17  N   UNL     1      -7.712   6.372  64.117  1.00  0.00    -0.100 N  
ENDBRANCH   4  13
BRANCH  11  18
HETATM   18  O   UNL     1      -7.731   8.017  69.653  1.00  0.00    -0.097 OA 
BRANCH  18  19
HETATM   19  C   UNL     1      -7.796   9.194  68.927  1.00  0.00    -0.094 A  
HETATM   20  C   UNL     1      -8.925   9.988  69.167  1.00  0.00    -0.172 A  
HETATM   21  C   UNL     1      -8.389  11.460  67.297  1.00  0.00    -0.149 A  
HETATM   22  C   UNL     1      -9.214  11.114  68.370  1.00  0.00    -0.175 A  
HETATM   23  C   UNL     1      -7.255  10.679  67.072  1.00  0.00    -0.101 A  
HETATM   24 CL   UNL     1      -6.176  11.022  65.755  1.00  0.00    -0.060 Cl 
HETATM   25  C   UNL     1      -6.963   9.573  67.878  1.00  0.00    -0.079 A  
BRANCH  21  26
HETATM   26  N   UNL     1      -8.654  12.516  66.397  1.00  0.00    -0.416 N  
HETATM   27  H   UNL     1      -7.964  12.670  65.662  1.00  0.00     0.000 HD 
BRANCH  26  28
HETATM   28  C   UNL     1      -9.735  13.355  66.404  1.00  0.00    -0.277 C  
HETATM   29  O   UNL     1      -9.789  14.433  66.987  1.00  0.00    -0.241 OA 
BRANCH  28  30
HETATM   30  N   UNL     1     -10.796  12.866  65.674  1.00  0.00    -0.270 N  
HETATM   31  H   UNL     1     -11.660  12.601  66.149  1.00  0.00     0.000 HD 
BRANCH  30  32
HETATM   32  C   UNL     1     -10.696  12.727  64.257  1.00  0.00    -0.394 C  
HETATM   33  C   UNL     1     -10.490  11.405  63.578  1.00  0.00    -0.477 C  
HETATM   34  C   UNL     1     -11.828  12.078  63.506  1.00  0.00    -0.587 C  
ENDBRANCH  30  32
ENDBRANCH  28  30
ENDBRANCH  26  28
ENDBRANCH  21  26
ENDBRANCH  18  19
ENDBRANCH  11  18
ENDBRANCH   2   3
TORSDOF 8
ENDMDL
MODEL      219
REMARK 921   NORMALIZED FREE ENERGY PREDICTED BY IDOCK:   -3.45 KCAL/MOL
REMARK 922        TOTAL FREE ENERGY PREDICTED BY IDOCK:   -6.60 KCAL/MOL
REMARK 923 INTER-LIGAND FREE ENERGY PREDICTED BY IDOCK:   -7.04 KCAL/MOL
REMARK 924 INTRA-LIGAND FREE ENERGY PREDICTED BY IDOCK:    0.43 KCAL/MOL
REMARK 927      BINDING AFFINITY PREDICTED BY RF-SCORE:    0.00 PKD
ROOT
HETATM    1  C   UNL     1     -13.857  14.607  71.481  1.00  0.00    -0.431 C  
HETATM    2  O   UNL     1     -12.843  14.299  70.526  1.00  0.00    -0.345 OA 
ENDROOT
BRANCH   2   3
HETATM    3  C   UNL     1     -12.470  12.982  70.463  1.00  0.00    -0.231 A  
HETATM    4  C   UNL     1     -11.800  12.510  69.326  1.00  0.00    -0.360 A  
HETATM    5  N   UNL     1     -12.950   9.981  72.397  1.00  0.00    -0.247 NA 
HETATM    6  C   UNL     1     -11.474  11.139  69.232  1.00  0.00    -0.363 A  
HETATM    7  C   UNL     1     -12.520  10.733  71.383  1.00  0.00    -0.373 A  
HETATM    8  C   UNL     1     -11.833  10.222  70.258  1.00  0.00    -0.372 A  
HETATM    9  C   UNL     1     -12.802   8.657  72.296  1.00  0.00    -0.383 A  
HETATM   10  C   UNL     1     -12.821  12.077  71.466  1.00  0.00    -0.403 A  
HETATM   11  C   UNL     1     -11.599   8.816  70.235  1.00  0.00    -0.016 A  
HETATM   12  C   UNL     1     -12.191   8.042  71.227  1.00  0.00    -0.308 A  
BRANCH   4  13
HETATM   13  C   UNL     1     -11.380  13.459  68.252  1.00  0.00    -0.295 C  
HETATM   14  H2  UNL     1      -9.548  13.854  69.176  1.00  0.00     0.000 HD 
HETATM   15  H1  UNL     1      -9.866  14.701  67.646  1.00  0.00     0.000 HD 
HETATM   16  O   UNL     1     -12.085  13.731  67.289  1.00  0.00    -0.389 OA 
HETATM   17  N   UNL     1     -10.153  14.053  68.379  1.00  0.00    -0.232 N  
ENDBRANCH   4  13
BRANCH  11  18
HETATM   18  O   UNL     1     -10.910   8.304  69.149  1.00  0.00    -0.151 OA 
BRANCH  18  19
HETATM   19  C   UNL     1     -10.086   9.058  68.331  1.00  0.00    -0.191 A  
HETATM   20  C   UNL     1     -10.579   9.304  67.042  1.00  0.00    -0.263 A  
HETATM   21  C   UNL     1      -8.444  10.233  66.314  1.00  0.00    -0.135 A  
HETATM   22  C   UNL     1      -9.774   9.894  66.048  1.00  0.00    -0.310 A  
HETATM   23  C   UNL     1      -7.962  10.004  67.603  1.00  0.00    -0.105 A  
HETATM   24 CL   UNL     1      -6.320  10.381  68.025  1.00  0.00    -0.059 Cl 
HETATM   25  C   UNL     1      -8.772   9.436  68.591  1.00  0.00    -0.131 A  
BRANCH  21  26
HETATM   26  N   UNL     1      -7.545  10.744  65.351  1.00  0.00    -0.342 N  
HETATM   27  H   UNL     1      -7.014  11.572  65.621  1.00  0.00     0.000 HD 
BRANCH  26  28
HETATM   28  C   UNL     1      -7.309  10.251  64.098  1.00  0.00    -0.063 C  
HETATM   29  O   UNL     1      -7.918  10.576  63.084  1.00  0.00    -0.148 OA 
BRANCH  28  30
HETATM   30  N   UNL     1      -6.292   9.321  64.072  1.00  0.00    -0.088 N  
HETATM   31  H   UNL     1      -5.320   9.631  64.105  1.00  0.00     0.000 HD 
BRANCH  30  32
HETATM   32  C   UNL     1      -6.588   7.927  63.999  1.00  0.00    -0.061 C  
HETATM   33  C   UNL     1      -7.910   7.350  64.410  1.00  0.00    -0.127 C  
HETATM   34  C   UNL     1      -7.558   7.441  62.956  1.00  0.00    -0.114 C  
ENDBRANCH  30  32
ENDBRANCH  28  30
ENDBRANCH  26  28
ENDBRANCH  21  26
ENDBRANCH  18  19
ENDBRANCH  11  18
ENDBRANCH   2   3
TORSDOF 8
ENDMDL
MODEL      220
REMARK 921   NORMALIZED FREE ENERGY PREDICTED BY IDOCK:   -3.45 KCAL/MOL
REMARK 922        TOTAL FREE ENERGY PREDICTED BY IDOCK:   -6.60 KCAL/MOL
REMARK 923 INTER-LIGAND FREE ENERGY PREDICTED BY IDOCK:   -6.00 KCAL/MOL
REMARK 924 INTRA-LIGAND FREE ENERGY PREDICTED BY IDOCK:   -0.60 KCAL/MOL
REMARK 927      BINDING AFFINITY PREDICTED BY RF-SCORE:    0.00 PKD
ROOT
HETATM    1  C   UNL     1      -7.917   5.530  62.710  1.00  0.00    -0.096 C  
HETATM    2  O   UNL     1      -7.010   6.165  63.610  1.00  0.00    -0.042 OA 
ENDROOT
BRANCH   2   3
HETATM    3  C   UNL     1      -7.587   6.923  64.595  1.00  0.00    -0.106 A  
HETATM    4  C   UNL     1      -6.987   8.133  64.972  1.00  0.00    -0.070 A  
HETATM    5  N   UNL     1     -10.304   6.624  66.941  1.00  0.00    -0.242 NA 
HETATM    6  C   UNL     1      -7.544   8.882  66.033  1.00  0.00    -0.094 A  
HETATM    7  C   UNL     1      -9.257   7.191  66.341  1.00  0.00    -0.157 A  
HETATM    8  C   UNL     1      -8.687   8.422  66.741  1.00  0.00    -0.138 A  
HETATM    9  C   UNL     1     -10.782   7.211  68.042  1.00  0.00    -0.171 A  
HETATM   10  C   UNL     1      -8.708   6.476  65.295  1.00  0.00     0.031 A  
HETATM   11  C   UNL     1      -9.292   9.073  67.857  1.00  0.00    -0.141 A  
HETATM   12  C   UNL     1     -10.280   8.387  68.553  1.00  0.00    -0.228 A  
BRANCH   4  13
HETATM   13  C   UNL     1      -5.807   8.654  64.221  1.00  0.00    -0.065 C  
HETATM   14  H2  UNL     1      -5.690  10.377  65.398  1.00  0.00     0.000 HD 
HETATM   15  H1  UNL     1      -4.481  10.213  64.105  1.00  0.00     0.000 HD 
HETATM   16  O   UNL     1      -5.305   8.063  63.273  1.00  0.00    -0.049 OA 
HETATM   17  N   UNL     1      -5.287   9.857  64.618  1.00  0.00    -0.066 N  
ENDBRANCH   4  13
BRANCH  11  18
HETATM   18  O   UNL     1      -8.758  10.289  68.248  1.00  0.00    -0.121 OA 
BRANCH  18  19
HETATM   19  C   UNL     1      -9.216  11.516  67.798  1.00  0.00    -0.165 A  
HETATM   20  C   UNL     1      -8.479  12.627  68.228  1.00  0.00    -0.163 A  
HETATM   21  C   UNL     1     -10.152  14.176  67.360  1.00  0.00    -0.240 A  
HETATM   22  C   UNL     1      -8.934  13.942  68.004  1.00  0.00    -0.184 A  
HETATM   23  C   UNL     1     -10.874  13.067  66.916  1.00  0.00    -0.264 A  
HETATM   24 CL   UNL     1     -12.405  13.257  66.118  1.00  0.00    -0.452 Cl 
HETATM   25  C   UNL     1     -10.408  11.765  67.125  1.00  0.00    -0.242 A  
BRANCH  21  26
HETATM   26  N   UNL     1     -10.722  15.455  67.175  1.00  0.00    -0.310 N  
HETATM   27  H   UNL     1     -10.821  15.773  66.210  1.00  0.00     0.000 HD 
BRANCH  26  28
HETATM   28  C   UNL     1     -11.156  16.314  68.147  1.00  0.00    -0.329 C  
HETATM   29  O   UNL     1     -11.712  15.981  69.187  1.00  0.00    -0.358 OA 
BRANCH  28  30
HETATM   30  N   UNL     1     -10.906  17.636  67.843  1.00  0.00    -0.324 N  
HETATM   31  H   UNL     1     -11.224  18.371  68.475  1.00  0.00     0.000 HD 
BRANCH  30  32
HETATM   32  C   UNL     1     -10.204  17.983  66.650  1.00  0.00    -0.373 C  
HETATM   33  C   UNL     1     -10.404  19.286  65.934  1.00  0.00    -0.499 C  
HETATM   34  C   UNL     1      -9.144  19.050  66.711  1.00  0.00    -0.340 C  
ENDBRANCH  30  32
ENDBRANCH  28  30
ENDBRANCH  26  28
ENDBRANCH  21  26
ENDBRANCH  18  19
ENDBRANCH  11  18
ENDBRANCH   2   3
TORSDOF 8
ENDMDL
MODEL      221
REMARK 921   NORMALIZED FREE ENERGY PREDICTED BY IDOCK:   -3.43 KCAL/MOL
REMARK 922        TOTAL FREE ENERGY PREDICTED BY IDOCK:   -6.57 KCAL/MOL
REMARK 923 INTER-LIGAND FREE ENERGY PREDICTED BY IDOCK:   -5.07 KCAL/MOL
REMARK 924 INTRA-LIGAND FREE ENERGY PREDICTED BY IDOCK:   -1.50 KCAL/MOL
REMARK 927      BINDING AFFINITY PREDICTED BY RF-SCORE:    0.00 PKD
ROOT
HETATM    1  C   UNL     1     -11.756  15.774  69.013  1.00  0.00    -0.396 C  
HETATM    2  O   UNL     1     -11.565  14.824  67.965  1.00  0.00    -0.319 OA 
ENDROOT
BRANCH   2   3
HETATM    3  C   UNL     1     -10.394  14.114  68.018  1.00  0.00    -0.231 A  
HETATM    4  C   UNL     1     -10.419  12.779  68.445  1.00  0.00    -0.253 A  
HETATM    5  N   UNL     1      -6.872  14.746  67.606  1.00  0.00    -0.175 NA 
HETATM    6  C   UNL     1      -9.204  12.066  68.563  1.00  0.00    -0.116 A  
HETATM    7  C   UNL     1      -7.970  14.035  67.865  1.00  0.00    -0.158 A  
HETATM    8  C   UNL     1      -7.955  12.683  68.280  1.00  0.00    -0.153 A  
HETATM    9  C   UNL     1      -5.689  14.172  67.842  1.00  0.00    -0.112 A  
HETATM   10  C   UNL     1      -9.165  14.714  67.744  1.00  0.00    -0.196 A  
HETATM   11  C   UNL     1      -6.675  12.070  68.419  1.00  0.00    -0.065 A  
HETATM   12  C   UNL     1      -5.551  12.877  68.291  1.00  0.00    -0.074 A  
BRANCH   4  13
HETATM   13  C   UNL     1     -11.720  12.099  68.714  1.00  0.00    -0.321 C  
HETATM   14  H2  UNL     1     -11.987  13.102  70.527  1.00  0.00     0.000 HD 
HETATM   15  H1  UNL     1     -13.263  11.959  70.056  1.00  0.00     0.000 HD 
HETATM   16  O   UNL     1     -12.209  11.269  67.957  1.00  0.00    -0.621 OA 
HETATM   17  N   UNL     1     -12.374  12.423  69.873  1.00  0.00    -0.118 N  
ENDBRANCH   4  13
BRANCH  11  18
HETATM   18  O   UNL     1      -6.646  10.741  68.805  1.00  0.00    -0.051 OA 
BRANCH  18  19
HETATM   19  C   UNL     1      -6.647   9.678  67.919  1.00  0.00    -0.062 A  
HETATM   20  C   UNL     1      -5.712   9.760  66.879  1.00  0.00    -0.050 A  
HETATM   21  C   UNL     1      -6.693   7.842  65.735  1.00  0.00    -0.046 A  
HETATM   22  C   UNL     1      -5.726   8.848  65.805  1.00  0.00    -0.050 A  
HETATM   23  C   UNL     1      -7.611   7.750  66.782  1.00  0.00    -0.098 A  
HETATM   24 CL   UNL     1      -8.858   6.541  66.777  1.00  0.00    -0.125 Cl 
HETATM   25  C   UNL     1      -7.581   8.647  67.855  1.00  0.00    -0.098 A  
BRANCH  21  26
HETATM   26  N   UNL     1      -6.832   6.945  64.653  1.00  0.00    -0.045 N  
HETATM   27  H   UNL     1      -6.537   5.982  64.820  1.00  0.00     0.000 HD 
BRANCH  26  28
HETATM   28  C   UNL     1      -7.318   7.225  63.405  1.00  0.00    -0.086 C  
HETATM   29  O   UNL     1      -6.748   6.967  62.350  1.00  0.00    -0.046 OA 
BRANCH  28  30
HETATM   30  N   UNL     1      -8.548   7.846  63.438  1.00  0.00    -0.367 N  
HETATM   31  H   UNL     1      -9.319   7.420  63.953  1.00  0.00     0.000 HD 
BRANCH  30  32
HETATM   32  C   UNL     1      -8.751   9.083  62.755  1.00  0.00    -0.154 C  
HETATM   33  C   UNL     1      -9.490  10.239  63.362  1.00  0.00    -0.340 C  
HETATM   34  C   UNL     1      -8.000  10.303  63.218  1.00  0.00    -0.148 C  
ENDBRANCH  30  32
ENDBRANCH  28  30
ENDBRANCH  26  28
ENDBRANCH  21  26
ENDBRANCH  18  19
ENDBRANCH  11  18
ENDBRANCH   2   3
TORSDOF 8
ENDMDL
MODEL      222
REMARK 921   NORMALIZED FREE ENERGY PREDICTED BY IDOCK:   -3.41 KCAL/MOL
REMARK 922        TOTAL FREE ENERGY PREDICTED BY IDOCK:   -6.54 KCAL/MOL
REMARK 923 INTER-LIGAND FREE ENERGY PREDICTED BY IDOCK:   -6.17 KCAL/MOL
REMARK 924 INTRA-LIGAND FREE ENERGY PREDICTED BY IDOCK:   -0.36 KCAL/MOL
REMARK 927      BINDING AFFINITY PREDICTED BY RF-SCORE:    0.00 PKD
ROOT
HETATM    1  C   UNL     1      -6.821  16.949  68.090  1.00  0.00    -0.161 C  
HETATM    2  O   UNL     1      -7.513  16.080  68.984  1.00  0.00    -0.175 OA 
ENDROOT
BRANCH   2   3
HETATM    3  C   UNL     1      -7.855  14.855  68.472  1.00  0.00    -0.126 A  
HETATM    4  C   UNL     1      -7.182  13.710  68.920  1.00  0.00    -0.083 A  
HETATM    5  N   UNL     1      -9.986  13.553  65.877  1.00  0.00    -0.297 NA 
HETATM    6  C   UNL     1      -7.488  12.457  68.345  1.00  0.00    -0.123 A  
HETATM    7  C   UNL     1      -9.096  13.515  66.869  1.00  0.00    -0.239 A  
HETATM    8  C   UNL     1      -8.447  12.336  67.303  1.00  0.00    -0.181 A  
HETATM    9  C   UNL     1     -10.207  12.424  65.196  1.00  0.00    -0.281 A  
HETATM   10  C   UNL     1      -8.795  14.731  67.449  1.00  0.00    -0.203 A  
HETATM   11  C   UNL     1      -8.788  11.130  66.622  1.00  0.00    -0.166 A  
HETATM   12  C   UNL     1      -9.600  11.226  65.498  1.00  0.00    -0.259 A  
BRANCH   4  13
HETATM   13  C   UNL     1      -6.195  13.806  70.037  1.00  0.00    -0.120 C  
HETATM   14  H2  UNL     1      -5.552  15.703  69.441  1.00  0.00     0.000 HD 
HETATM   15  H1  UNL     1      -4.770  15.013  70.880  1.00  0.00     0.000 HD 
HETATM   16  O   UNL     1      -6.029  12.915  70.859  1.00  0.00    -0.253 OA 
HETATM   17  N   UNL     1      -5.443  14.948  70.117  1.00  0.00    -0.112 N  
ENDBRANCH   4  13
BRANCH  11  18
HETATM   18  O   UNL     1      -8.176   9.965  67.050  1.00  0.00    -0.116 OA 
BRANCH  18  19
HETATM   19  C   UNL     1      -8.731   9.092  67.970  1.00  0.00    -0.129 A  
HETATM   20  C   UNL     1     -10.112   8.887  67.848  1.00  0.00    -0.255 A  
HETATM   21  C   UNL     1     -10.201   7.670  69.960  1.00  0.00    -0.213 A  
HETATM   22  C   UNL     1     -10.838   8.176  68.824  1.00  0.00     0.025 A  
HETATM   23  C   UNL     1      -8.823   7.860  70.070  1.00  0.00    -0.141 A  
HETATM   24 CL   UNL     1      -7.946   7.279  71.452  1.00  0.00    -0.096 Cl 
HETATM   25  C   UNL     1      -8.104   8.550  69.088  1.00  0.00    -0.117 A  
BRANCH  21  26
HETATM   26  N   UNL     1     -10.867   7.025  71.026  1.00  0.00    -0.233 N  
HETATM   27  H   UNL     1     -10.357   6.275  71.493  1.00  0.00     0.000 HD 
BRANCH  26  28
HETATM   28  C   UNL     1     -12.122   7.296  71.500  1.00  0.00    -0.331 C  
HETATM   29  O   UNL     1     -13.156   6.771  71.101  1.00  0.00    -0.249 OA 
BRANCH  28  30
HETATM   30  N   UNL     1     -12.122   8.245  72.500  1.00  0.00    -0.511 N  
HETATM   31  H   UNL     1     -11.689   8.034  73.399  1.00  0.00     0.000 HD 
BRANCH  30  32
HETATM   32  C   UNL     1     -12.725   9.521  72.285  1.00  0.00    -0.311 C  
HETATM   33  C   UNL     1     -12.199  10.516  71.292  1.00  0.00    -0.472 C  
HETATM   34  C   UNL     1     -13.466   9.770  70.999  1.00  0.00    -0.243 C  
ENDBRANCH  30  32
ENDBRANCH  28  30
ENDBRANCH  26  28
ENDBRANCH  21  26
ENDBRANCH  18  19
ENDBRANCH  11  18
ENDBRANCH   2   3
TORSDOF 8
ENDMDL
MODEL      223
REMARK 921   NORMALIZED FREE ENERGY PREDICTED BY IDOCK:   -3.40 KCAL/MOL
REMARK 922        TOTAL FREE ENERGY PREDICTED BY IDOCK:   -6.53 KCAL/MOL
REMARK 923 INTER-LIGAND FREE ENERGY PREDICTED BY IDOCK:   -5.46 KCAL/MOL
REMARK 924 INTRA-LIGAND FREE ENERGY PREDICTED BY IDOCK:   -1.06 KCAL/MOL
REMARK 927      BINDING AFFINITY PREDICTED BY RF-SCORE:    0.00 PKD
ROOT
HETATM    1  C   UNL     1      -9.603  19.260  68.736  1.00  0.00    -0.425 C  
HETATM    2  O   UNL     1     -10.307  18.027  68.589  1.00  0.00    -0.369 OA 
ENDROOT
BRANCH   2   3
HETATM    3  C   UNL     1      -9.524  16.907  68.499  1.00  0.00    -0.266 A  
HETATM    4  C   UNL     1     -10.051  15.666  68.884  1.00  0.00    -0.217 A  
HETATM    5  N   UNL     1      -6.093  16.106  67.748  1.00  0.00    -0.127 NA 
HETATM    6  C   UNL     1      -9.224  14.521  68.854  1.00  0.00    -0.118 A  
HETATM    7  C   UNL     1      -7.360  15.876  68.096  1.00  0.00    -0.127 A  
HETATM    8  C   UNL     1      -7.859  14.606  68.464  1.00  0.00    -0.133 A  
HETATM    9  C   UNL     1      -5.228  15.092  67.843  1.00  0.00    -0.086 A  
HETATM   10  C   UNL     1      -8.183  16.983  68.119  1.00  0.00    -0.217 A  
HETATM   11  C   UNL     1      -6.930  13.525  68.451  1.00  0.00    -0.105 A  
HETATM   12  C   UNL     1      -5.589  13.822  68.234  1.00  0.00    -0.109 A  
BRANCH   4  13
HETATM   13  C   UNL     1     -11.490  15.546  69.263  1.00  0.00    -0.340 C  
HETATM   14  H2  UNL     1     -11.986  14.590  67.472  1.00  0.00     0.000 HD 
HETATM   15  H1  UNL     1     -13.313  14.861  68.624  1.00  0.00     0.000 HD 
HETATM   16  O   UNL     1     -11.940  15.969  70.320  1.00  0.00    -0.328 OA 
HETATM   17  N   UNL     1     -12.330  14.943  68.365  1.00  0.00     0.003 N  
ENDBRANCH   4  13
BRANCH  11  18
HETATM   18  O   UNL     1      -7.409  12.271  68.790  1.00  0.00    -0.109 OA 
BRANCH  18  19
HETATM   19  C   UNL     1      -7.922  11.366  67.877  1.00  0.00    -0.120 A  
HETATM   20  C   UNL     1      -8.839  10.442  68.396  1.00  0.00    -0.136 A  
HETATM   21  C   UNL     1      -8.830   9.148  66.327  1.00  0.00    -0.148 A  
HETATM   22  C   UNL     1      -9.297   9.352  67.628  1.00  0.00    -0.146 A  
HETATM   23  C   UNL     1      -7.932  10.081  65.807  1.00  0.00    -0.126 A  
HETATM   24 CL   UNL     1      -7.286   9.906  64.204  1.00  0.00    -0.130 Cl 
HETATM   25  C   UNL     1      -7.495  11.171  66.567  1.00  0.00    -0.131 A  
BRANCH  21  26
HETATM   26  N   UNL     1      -9.169   8.036  65.524  1.00  0.00    -0.406 N  
HETATM   27  H   UNL     1      -9.975   8.149  64.909  1.00  0.00     0.000 HD 
BRANCH  26  28
HETATM   28  C   UNL     1      -8.535   6.825  65.481  1.00  0.00    -0.119 C  
HETATM   29  O   UNL     1      -7.875   6.340  66.394  1.00  0.00    -0.100 OA 
BRANCH  28  30
HETATM   30  N   UNL     1      -8.706   6.174  64.278  1.00  0.00    -0.327 N  
HETATM   31  H   UNL     1      -8.799   6.714  63.418  1.00  0.00     0.000 HD 
BRANCH  30  32
HETATM   32  C   UNL     1      -8.755   4.749  64.228  1.00  0.00    -0.143 C  
HETATM   33  C   UNL     1      -9.982   3.960  64.580  1.00  0.00    -0.205 C  
HETATM   34  C   UNL     1      -9.562   4.084  63.146  1.00  0.00    -0.150 C  
ENDBRANCH  30  32
ENDBRANCH  28  30
ENDBRANCH  26  28
ENDBRANCH  21  26
ENDBRANCH  18  19
ENDBRANCH  11  18
ENDBRANCH   2   3
TORSDOF 8
ENDMDL
MODEL      224
REMARK 921   NORMALIZED FREE ENERGY PREDICTED BY IDOCK:   -3.40 KCAL/MOL
REMARK 922        TOTAL FREE ENERGY PREDICTED BY IDOCK:   -6.52 KCAL/MOL
REMARK 923 INTER-LIGAND FREE ENERGY PREDICTED BY IDOCK:   -5.41 KCAL/MOL
REMARK 924 INTRA-LIGAND FREE ENERGY PREDICTED BY IDOCK:   -1.12 KCAL/MOL
REMARK 927      BINDING AFFINITY PREDICTED BY RF-SCORE:    0.00 PKD
ROOT
HETATM    1  C   UNL     1     -10.159  16.345  67.774  1.00  0.00    -0.262 C  
HETATM    2  O   UNL     1     -10.573  14.995  67.976  1.00  0.00    -0.243 OA 
ENDROOT
BRANCH   2   3
HETATM    3  C   UNL     1      -9.678  14.036  67.581  1.00  0.00    -0.228 A  
HETATM    4  C   UNL     1     -10.150  12.783  67.165  1.00  0.00    -0.234 A  
HETATM    5  N   UNL     1      -6.103  13.592  67.520  1.00  0.00    -0.326 NA 
HETATM    6  C   UNL     1      -9.224  11.773  66.822  1.00  0.00    -0.196 A  
HETATM    7  C   UNL     1      -7.385  13.263  67.351  1.00  0.00    -0.114 A  
HETATM    8  C   UNL     1      -7.823  11.992  66.914  1.00  0.00    -0.095 A  
HETATM    9  C   UNL     1      -5.188  12.632  67.354  1.00  0.00    -0.043 A  
HETATM   10  C   UNL     1      -8.301  14.244  67.671  1.00  0.00    -0.187 A  
HETATM   11  C   UNL     1      -6.811  11.024  66.643  1.00  0.00    -0.137 A  
HETATM   12  C   UNL     1      -5.499  11.346  66.974  1.00  0.00    -0.098 A  
BRANCH   4  13
HETATM   13  C   UNL     1     -11.617  12.541  67.026  1.00  0.00    -0.368 C  
HETATM   14  H2  UNL     1     -11.758  13.748  65.326  1.00  0.00     0.000 HD 
HETATM   15  H1  UNL     1     -13.262  12.985  65.888  1.00  0.00     0.000 HD 
HETATM   16  O   UNL     1     -12.254  11.841  67.802  1.00  0.00    -0.536 OA 
HETATM   17  N   UNL     1     -12.261  13.151  65.982  1.00  0.00    -0.429 N  
ENDBRANCH   4  13
BRANCH  11  18
HETATM   18  O   UNL     1      -7.224   9.781  66.196  1.00  0.00    -0.095 OA 
BRANCH  18  19
HETATM   19  C   UNL     1      -7.318   8.660  67.002  1.00  0.00    -0.080 A  
HETATM   20  C   UNL     1      -7.665   7.473  66.344  1.00  0.00    -0.089 A  
HETATM   21  C   UNL     1      -7.972   6.294  68.458  1.00  0.00    -0.105 A  
HETATM   22  C   UNL     1      -7.978   6.300  67.060  1.00  0.00    -0.109 A  
HETATM   23  C   UNL     1      -7.608   7.473  69.110  1.00  0.00    -0.100 A  
HETATM   24 CL   UNL     1      -7.584   7.567  70.844  1.00  0.00    -0.080 Cl 
HETATM   25  C   UNL     1      -7.280   8.628  68.393  1.00  0.00    -0.085 A  
BRANCH  21  26
HETATM   26  N   UNL     1      -8.357   5.190  69.251  1.00  0.00    -0.087 N  
HETATM   27  H   UNL     1      -7.607   4.578  69.572  1.00  0.00     0.000 HD 
BRANCH  26  28
HETATM   28  C   UNL     1      -9.626   4.853  69.636  1.00  0.00    -0.173 C  
HETATM   29  O   UNL     1     -10.640   5.482  69.354  1.00  0.00    -0.284 OA 
BRANCH  28  30
HETATM   30  N   UNL     1      -9.666   3.705  70.397  1.00  0.00    -0.179 N  
HETATM   31  H   UNL     1      -9.617   2.793  69.943  1.00  0.00     0.000 HD 
BRANCH  30  32
HETATM   32  C   UNL     1      -9.776   3.783  71.818  1.00  0.00    -0.175 C  
HETATM   33  C   UNL     1      -9.715   2.578  72.710  1.00  0.00    -0.180 C  
HETATM   34  C   UNL     1      -8.555   3.527  72.660  1.00  0.00    -0.091 C  
ENDBRANCH  30  32
ENDBRANCH  28  30
ENDBRANCH  26  28
ENDBRANCH  21  26
ENDBRANCH  18  19
ENDBRANCH  11  18
ENDBRANCH   2   3
TORSDOF 8
ENDMDL
MODEL      225
REMARK 921   NORMALIZED FREE ENERGY PREDICTED BY IDOCK:   -3.38 KCAL/MOL
REMARK 922        TOTAL FREE ENERGY PREDICTED BY IDOCK:   -6.50 KCAL/MOL
REMARK 923 INTER-LIGAND FREE ENERGY PREDICTED BY IDOCK:   -5.19 KCAL/MOL
REMARK 924 INTRA-LIGAND FREE ENERGY PREDICTED BY IDOCK:   -1.31 KCAL/MOL
REMARK 927      BINDING AFFINITY PREDICTED BY RF-SCORE:    0.00 PKD
ROOT
HETATM    1  C   UNL     1     -10.030   4.875  71.020  1.00  0.00    -0.212 C  
HETATM    2  O   UNL     1      -9.099   5.031  69.950  1.00  0.00    -0.112 OA 
ENDROOT
BRANCH   2   3
HETATM    3  C   UNL     1      -8.671   6.313  69.721  1.00  0.00    -0.137 A  
HETATM    4  C   UNL     1      -9.117   6.993  68.579  1.00  0.00    -0.131 A  
HETATM    5  N   UNL     1      -6.309   8.628  71.147  1.00  0.00    -0.043 NA 
HETATM    6  C   UNL     1      -8.624   8.289  68.308  1.00  0.00    -0.133 A  
HETATM    7  C   UNL     1      -7.230   8.185  70.291  1.00  0.00    -0.052 A  
HETATM    8  C   UNL     1      -7.667   8.908  69.157  1.00  0.00    -0.092 A  
HETATM    9  C   UNL     1      -5.699   9.783  70.862  1.00  0.00    -0.079 A  
HETATM   10  C   UNL     1      -7.729   6.925  70.549  1.00  0.00    -0.096 A  
HETATM   11  C   UNL     1      -7.069  10.185  68.943  1.00  0.00    -0.069 A  
HETATM   12  C   UNL     1      -6.007  10.551  69.762  1.00  0.00    -0.057 A  
BRANCH   4  13
HETATM   13  C   UNL     1     -10.149   6.379  67.693  1.00  0.00    -0.151 C  
HETATM   14  H2  UNL     1     -11.612   7.754  68.272  1.00  0.00     0.000 HD 
HETATM   15  H1  UNL     1     -12.101   6.525  67.085  1.00  0.00     0.000 HD 
HETATM   16  O   UNL     1      -9.930   5.400  66.992  1.00  0.00    -0.145 OA 
HETATM   17  N   UNL     1     -11.397   6.944  67.691  1.00  0.00    -0.060 N  
ENDBRANCH   4  13
BRANCH  11  18
HETATM   18  O   UNL     1      -7.501  10.913  67.848  1.00  0.00    -0.087 OA 
BRANCH  18  19
HETATM   19  C   UNL     1      -8.456  11.913  67.911  1.00  0.00    -0.154 A  
HETATM   20  C   UNL     1      -7.975  13.216  67.725  1.00  0.00    -0.162 A  
HETATM   21  C   UNL     1     -10.114  14.187  68.382  1.00  0.00    -0.238 A  
HETATM   22  C   UNL     1      -8.795  14.341  67.947  1.00  0.00    -0.179 A  
HETATM   23  C   UNL     1     -10.596  12.888  68.548  1.00  0.00    -0.253 A  
HETATM   24 CL   UNL     1     -12.218  12.596  69.097  1.00  0.00    -0.159 Cl 
HETATM   25  C   UNL     1      -9.782  11.776  68.308  1.00  0.00    -0.199 A  
BRANCH  21  26
HETATM   26  N   UNL     1     -10.974  15.259  68.712  1.00  0.00    -0.248 N  
HETATM   27  H   UNL     1     -11.807  15.367  68.133  1.00  0.00     0.000 HD 
BRANCH  26  28
HETATM   28  C   UNL     1     -10.811  16.167  69.722  1.00  0.00    -0.333 C  
HETATM   29  O   UNL     1     -10.898  17.384  69.598  1.00  0.00     0.028 OA 
BRANCH  28  30
HETATM   30  N   UNL     1     -10.530  15.574  70.934  1.00  0.00    -0.249 N  
HETATM   31  H   UNL     1      -9.572  15.562  71.283  1.00  0.00     0.000 HD 
BRANCH  30  32
HETATM   32  C   UNL     1     -11.572  14.976  71.705  1.00  0.00    -0.356 C  
HETATM   33  C   UNL     1     -11.871  15.372  73.121  1.00  0.00    -0.525 C  
HETATM   34  C   UNL     1     -12.802  15.785  72.021  1.00  0.00    -0.511 C  
ENDBRANCH  30  32
ENDBRANCH  28  30
ENDBRANCH  26  28
ENDBRANCH  21  26
ENDBRANCH  18  19
ENDBRANCH  11  18
ENDBRANCH   2   3
TORSDOF 8
ENDMDL
MODEL      226
REMARK 921   NORMALIZED FREE ENERGY PREDICTED BY IDOCK:   -3.36 KCAL/MOL
REMARK 922        TOTAL FREE ENERGY PREDICTED BY IDOCK:   -6.47 KCAL/MOL
REMARK 923 INTER-LIGAND FREE ENERGY PREDICTED BY IDOCK:   -6.06 KCAL/MOL
REMARK 924 INTRA-LIGAND FREE ENERGY PREDICTED BY IDOCK:   -0.41 KCAL/MOL
REMARK 927      BINDING AFFINITY PREDICTED BY RF-SCORE:    0.00 PKD
ROOT
HETATM    1  C   UNL     1     -12.524  13.623  65.585  1.00  0.00    -0.496 C  
HETATM    2  O   UNL     1     -12.418  14.668  66.550  1.00  0.00    -0.193 OA 
ENDROOT
BRANCH   2   3
HETATM    3  C   UNL     1     -11.142  15.010  66.914  1.00  0.00    -0.331 A  
HETATM    4  C   UNL     1     -10.627  14.544  68.132  1.00  0.00    -0.238 A  
HETATM    5  N   UNL     1      -8.517  17.167  65.719  1.00  0.00    -0.479 NA 
HETATM    6  C   UNL     1      -9.336  14.950  68.538  1.00  0.00    -0.196 A  
HETATM    7  C   UNL     1      -9.118  16.300  66.535  1.00  0.00    -0.269 A  
HETATM    8  C   UNL     1      -8.559  15.841  67.750  1.00  0.00    -0.164 A  
HETATM    9  C   UNL     1      -7.359  17.700  66.122  1.00  0.00    -0.309 A  
HETATM   10  C   UNL     1     -10.375  15.886  66.145  1.00  0.00    -0.341 A  
HETATM   11  C   UNL     1      -7.273  16.352  68.096  1.00  0.00    -0.143 A  
HETATM   12  C   UNL     1      -6.742  17.365  67.306  1.00  0.00    -0.188 A  
BRANCH   4  13
HETATM   13  C   UNL     1     -11.409  13.579  68.960  1.00  0.00    -0.288 C  
HETATM   14  H2  UNL     1     -10.346  11.934  68.230  1.00  0.00     0.000 HD 
HETATM   15  H1  UNL     1     -11.624  11.593  69.418  1.00  0.00     0.000 HD 
HETATM   16  O   UNL     1     -12.316  13.923  69.707  1.00  0.00    -0.329 OA 
HETATM   17  N   UNL     1     -11.090  12.252  68.852  1.00  0.00    -0.234 N  
ENDBRANCH   4  13
BRANCH  11  18
HETATM   18  O   UNL     1      -6.704  15.896  69.272  1.00  0.00    -0.152 OA 
BRANCH  18  19
HETATM   19  C   UNL     1      -6.506  14.558  69.568  1.00  0.00    -0.134 A  
HETATM   20  C   UNL     1      -6.074  14.288  70.874  1.00  0.00    -0.155 A  
HETATM   21  C   UNL     1      -5.638  11.949  70.333  1.00  0.00    -0.155 A  
HETATM   22  C   UNL     1      -5.655  12.998  71.257  1.00  0.00    -0.071 A  
HETATM   23  C   UNL     1      -6.087  12.216  69.039  1.00  0.00    -0.075 A  
HETATM   24 CL   UNL     1      -6.092  10.981  67.819  1.00  0.00    -0.046 Cl 
HETATM   25  C   UNL     1      -6.519  13.495  68.670  1.00  0.00    -0.094 A  
BRANCH  21  26
HETATM   26  N   UNL     1      -5.152  10.652  70.611  1.00  0.00    -0.067 N  
HETATM   27  H   UNL     1      -4.356  10.337  70.055  1.00  0.00     0.000 HD 
BRANCH  26  28
HETATM   28  C   UNL     1      -5.630   9.773  71.543  1.00  0.00    -0.055 C  
HETATM   29  O   UNL     1      -5.307   9.753  72.726  1.00  0.00    -0.238 OA 
BRANCH  28  30
HETATM   30  N   UNL     1      -6.538   8.878  71.019  1.00  0.00    -0.062 N  
HETATM   31  H   UNL     1      -6.227   7.951  70.729  1.00  0.00     0.000 HD 
BRANCH  30  32
HETATM   32  C   UNL     1      -7.911   9.240  70.879  1.00  0.00    -0.122 C  
HETATM   33  C   UNL     1      -8.930   8.348  70.234  1.00  0.00    -0.147 C  
HETATM   34  C   UNL     1      -8.941   8.536  71.721  1.00  0.00    -0.288 C  
ENDBRANCH  30  32
ENDBRANCH  28  30
ENDBRANCH  26  28
ENDBRANCH  21  26
ENDBRANCH  18  19
ENDBRANCH  11  18
ENDBRANCH   2   3
TORSDOF 8
ENDMDL
MODEL      227
REMARK 921   NORMALIZED FREE ENERGY PREDICTED BY IDOCK:   -3.36 KCAL/MOL
REMARK 922        TOTAL FREE ENERGY PREDICTED BY IDOCK:   -6.46 KCAL/MOL
REMARK 923 INTER-LIGAND FREE ENERGY PREDICTED BY IDOCK:   -5.57 KCAL/MOL
REMARK 924 INTRA-LIGAND FREE ENERGY PREDICTED BY IDOCK:   -0.89 KCAL/MOL
REMARK 927      BINDING AFFINITY PREDICTED BY RF-SCORE:    0.00 PKD
ROOT
HETATM    1  C   UNL     1     -11.295  16.056  68.631  1.00  0.00    -0.383 C  
HETATM    2  O   UNL     1     -11.353  14.640  68.472  1.00  0.00    -0.258 OA 
ENDROOT
BRANCH   2   3
HETATM    3  C   UNL     1     -10.184  14.040  68.085  1.00  0.00    -0.243 A  
HETATM    4  C   UNL     1     -10.234  12.849  67.346  1.00  0.00    -0.230 A  
HETATM    5  N   UNL     1      -6.653  14.469  68.653  1.00  0.00    -0.082 NA 
HETATM    6  C   UNL     1      -9.029  12.195  67.004  1.00  0.00    -0.201 A  
HETATM    7  C   UNL     1      -7.759  13.901  68.170  1.00  0.00    -0.142 A  
HETATM    8  C   UNL     1      -7.768  12.706  67.415  1.00  0.00    -0.161 A  
HETATM    9  C   UNL     1      -5.497  13.818  68.488  1.00  0.00    -0.093 A  
HETATM   10  C   UNL     1      -8.943  14.535  68.487  1.00  0.00    -0.188 A  
HETATM   11  C   UNL     1      -6.503  12.095  67.169  1.00  0.00    -0.135 A  
HETATM   12  C   UNL     1      -5.390  12.624  67.811  1.00  0.00    -0.112 A  
BRANCH   4  13
HETATM   13  C   UNL     1     -11.544  12.312  66.873  1.00  0.00    -0.361 C  
HETATM   14  H2  UNL     1     -11.539  13.521  65.169  1.00  0.00     0.000 HD 
HETATM   15  H1  UNL     1     -12.938  12.443  65.376  1.00  0.00     0.000 HD 
HETATM   16  O   UNL     1     -12.182  11.469  67.490  1.00  0.00    -0.463 OA 
HETATM   17  N   UNL     1     -12.043  12.811  65.699  1.00  0.00    -0.451 N  
ENDBRANCH   4  13
BRANCH  11  18
HETATM   18  O   UNL     1      -6.495  10.935  66.414  1.00  0.00    -0.111 OA 
BRANCH  18  19
HETATM   19  C   UNL     1      -6.857   9.691  66.902  1.00  0.00    -0.080 A  
HETATM   20  C   UNL     1      -6.937   8.669  65.947  1.00  0.00    -0.075 A  
HETATM   21  C   UNL     1      -7.959   7.139  67.548  1.00  0.00    -0.113 A  
HETATM   22  C   UNL     1      -7.471   7.405  66.266  1.00  0.00    -0.083 A  
HETATM   23  C   UNL     1      -7.861   8.152  68.503  1.00  0.00    -0.118 A  
HETATM   24 CL   UNL     1      -8.452   7.921  70.119  1.00  0.00    -0.128 Cl 
HETATM   25  C   UNL     1      -7.313   9.399  68.185  1.00  0.00    -0.078 A  
BRANCH  21  26
HETATM   26  N   UNL     1      -8.589   5.932  67.926  1.00  0.00    -0.106 N  
HETATM   27  H   UNL     1      -8.087   5.348  68.595  1.00  0.00     0.000 HD 
BRANCH  26  28
HETATM   28  C   UNL     1      -9.798   5.461  67.493  1.00  0.00    -0.150 C  
HETATM   29  O   UNL     1     -10.828   6.123  67.417  1.00  0.00    -0.287 OA 
BRANCH  28  30
HETATM   30  N   UNL     1      -9.757   4.130  67.139  1.00  0.00    -0.204 N  
HETATM   31  H   UNL     1      -9.963   3.413  67.835  1.00  0.00     0.000 HD 
BRANCH  30  32
HETATM   32  C   UNL     1      -9.429   3.747  65.803  1.00  0.00    -0.170 C  
HETATM   33  C   UNL     1     -10.307   4.054  64.626  1.00  0.00    -0.220 C  
HETATM   34  C   UNL     1      -9.027   4.811  64.818  1.00  0.00    -0.146 C  
ENDBRANCH  30  32
ENDBRANCH  28  30
ENDBRANCH  26  28
ENDBRANCH  21  26
ENDBRANCH  18  19
ENDBRANCH  11  18
ENDBRANCH   2   3
TORSDOF 8
ENDMDL
MODEL      228
REMARK 921   NORMALIZED FREE ENERGY PREDICTED BY IDOCK:   -3.32 KCAL/MOL
REMARK 922        TOTAL FREE ENERGY PREDICTED BY IDOCK:   -6.41 KCAL/MOL
REMARK 923 INTER-LIGAND FREE ENERGY PREDICTED BY IDOCK:   -6.06 KCAL/MOL
REMARK 924 INTRA-LIGAND FREE ENERGY PREDICTED BY IDOCK:   -0.36 KCAL/MOL
REMARK 927      BINDING AFFINITY PREDICTED BY RF-SCORE:    0.00 PKD
ROOT
HETATM    1  C   UNL     1     -10.488  19.455  67.408  1.00  0.00    -0.466 C  
HETATM    2  O   UNL     1      -9.760  18.720  68.390  1.00  0.00    -0.334 OA 
ENDROOT
BRANCH   2   3
HETATM    3  C   UNL     1      -9.648  17.374  68.159  1.00  0.00    -0.287 A  
HETATM    4  C   UNL     1      -8.392  16.830  67.857  1.00  0.00    -0.196 A  
HETATM    5  N   UNL     1     -11.844  14.542  67.793  1.00  0.00    -0.372 NA 
HETATM    6  C   UNL     1      -8.288  15.454  67.554  1.00  0.00    -0.190 A  
HETATM    7  C   UNL     1     -10.686  15.202  67.822  1.00  0.00    -0.279 A  
HETATM    8  C   UNL     1      -9.434  14.614  67.525  1.00  0.00    -0.198 A  
HETATM    9  C   UNL     1     -11.828  13.275  67.370  1.00  0.00    -0.366 A  
HETATM   10  C   UNL     1     -10.770  16.545  68.128  1.00  0.00    -0.343 A  
HETATM   11  C   UNL     1      -9.443  13.231  67.180  1.00  0.00    -0.240 A  
HETATM   12  C   UNL     1     -10.676  12.611  67.010  1.00  0.00    -0.268 A  
BRANCH   4  13
HETATM   13  C   UNL     1      -7.169  17.683  67.916  1.00  0.00    -0.204 C  
HETATM   14  H2  UNL     1      -6.458  16.967  66.086  1.00  0.00     0.000 HD 
HETATM   15  H1  UNL     1      -5.451  18.176  66.912  1.00  0.00     0.000 HD 
HETATM   16  O   UNL     1      -6.924  18.436  68.849  1.00  0.00    -0.271 OA 
HETATM   17  N   UNL     1      -6.286  17.593  66.872  1.00  0.00    -0.157 N  
ENDBRANCH   4  13
BRANCH  11  18
HETATM   18  O   UNL     1      -8.224  12.637  66.906  1.00  0.00    -0.145 OA 
BRANCH  18  19
HETATM   19  C   UNL     1      -8.028  11.268  66.833  1.00  0.00    -0.155 A  
HETATM   20  C   UNL     1      -6.995  10.853  65.983  1.00  0.00    -0.066 A  
HETATM   21  C   UNL     1      -7.661   8.514  66.182  1.00  0.00    -0.089 A  
HETATM   22  C   UNL     1      -6.804   9.492  65.669  1.00  0.00    -0.087 A  
HETATM   23  C   UNL     1      -8.677   8.929  67.043  1.00  0.00    -0.123 A  
HETATM   24 CL   UNL     1      -9.799   7.789  67.721  1.00  0.00    -0.186 Cl 
HETATM   25  C   UNL     1      -8.849  10.279  67.366  1.00  0.00    -0.134 A  
BRANCH  21  26
HETATM   26  N   UNL     1      -7.595   7.143  65.848  1.00  0.00    -0.090 N  
HETATM   27  H   UNL     1      -7.142   6.531  66.527  1.00  0.00     0.000 HD 
BRANCH  26  28
HETATM   28  C   UNL     1      -8.072   6.546  64.713  1.00  0.00    -0.112 C  
HETATM   29  O   UNL     1      -7.819   6.902  63.567  1.00  0.00    -0.117 OA 
BRANCH  28  30
HETATM   30  N   UNL     1      -8.894   5.471  64.979  1.00  0.00    -0.308 N  
HETATM   31  H   UNL     1      -9.543   5.140  64.266  1.00  0.00     0.000 HD 
BRANCH  30  32
HETATM   32  C   UNL     1      -8.841   4.818  66.247  1.00  0.00    -0.114 C  
HETATM   33  C   UNL     1      -9.806   3.743  66.653  1.00  0.00    -0.056 C  
HETATM   34  C   UNL     1      -8.391   3.383  66.311  1.00  0.00    -0.103 C  
ENDBRANCH  30  32
ENDBRANCH  28  30
ENDBRANCH  26  28
ENDBRANCH  21  26
ENDBRANCH  18  19
ENDBRANCH  11  18
ENDBRANCH   2   3
TORSDOF 8
ENDMDL
MODEL      229
REMARK 921   NORMALIZED FREE ENERGY PREDICTED BY IDOCK:   -3.30 KCAL/MOL
REMARK 922        TOTAL FREE ENERGY PREDICTED BY IDOCK:   -6.38 KCAL/MOL
REMARK 923 INTER-LIGAND FREE ENERGY PREDICTED BY IDOCK:   -6.09 KCAL/MOL
REMARK 924 INTRA-LIGAND FREE ENERGY PREDICTED BY IDOCK:   -0.29 KCAL/MOL
REMARK 927      BINDING AFFINITY PREDICTED BY RF-SCORE:    0.00 PKD
ROOT
HETATM    1  C   UNL     1      -9.749   5.189  65.068  1.00  0.00     0.252 C  
HETATM    2  O   UNL     1      -8.899   5.575  66.147  1.00  0.00    -0.130 OA 
ENDROOT
BRANCH   2   3
HETATM    3  C   UNL     1      -9.142   6.815  66.677  1.00  0.00    -0.146 A  
HETATM    4  C   UNL     1      -8.509   7.936  66.121  1.00  0.00    -0.139 A  
HETATM    5  N   UNL     1     -10.876   8.211  69.508  1.00  0.00    -0.175 NA 
HETATM    6  C   UNL     1      -8.706   9.206  66.708  1.00  0.00    -0.138 A  
HETATM    7  C   UNL     1     -10.126   8.211  68.406  1.00  0.00    -0.200 A  
HETATM    8  C   UNL     1      -9.515   9.366  67.866  1.00  0.00    -0.150 A  
HETATM    9  C   UNL     1     -10.978   9.356  70.191  1.00  0.00    -0.246 A  
HETATM   10  C   UNL     1      -9.933   6.979  67.814  1.00  0.00    -0.186 A  
HETATM   11  C   UNL     1      -9.734  10.591  68.564  1.00  0.00    -0.165 A  
HETATM   12  C   UNL     1     -10.389  10.533  69.788  1.00  0.00    -0.211 A  
BRANCH   4  13
HETATM   13  C   UNL     1      -7.683   7.798  64.885  1.00  0.00    -0.110 C  
HETATM   14  H2  UNL     1      -6.009   7.148  65.953  1.00  0.00     0.000 HD 
HETATM   15  H1  UNL     1      -5.829   7.272  64.189  1.00  0.00     0.000 HD 
HETATM   16  O   UNL     1      -8.106   8.063  63.767  1.00  0.00    -0.151 OA 
HETATM   17  N   UNL     1      -6.392   7.366  65.033  1.00  0.00    -0.038 N  
ENDBRANCH   4  13
BRANCH  11  18
HETATM   18  O   UNL     1      -9.158  11.734  68.036  1.00  0.00    -0.166 OA 
BRANCH  18  19
HETATM   19  C   UNL     1      -9.713  12.998  68.140  1.00  0.00    -0.228 A  
HETATM   20  C   UNL     1      -8.944  14.038  67.601  1.00  0.00    -0.194 A  
HETATM   21  C   UNL     1     -10.413  15.732  68.562  1.00  0.00    -0.236 A  
HETATM   22  C   UNL     1      -9.294  15.389  67.799  1.00  0.00    -0.195 A  
HETATM   23  C   UNL     1     -11.188  14.694  69.081  1.00  0.00    -0.270 A  
HETATM   24 CL   UNL     1     -12.590  15.021  70.052  1.00  0.00    -0.297 Cl 
HETATM   25  C   UNL     1     -10.846  13.355  68.865  1.00  0.00    -0.253 A  
BRANCH  21  26
HETATM   26  N   UNL     1     -10.783  17.057  68.882  1.00  0.00    -0.327 N  
HETATM   27  H   UNL     1     -11.461  17.170  69.636  1.00  0.00     0.000 HD 
BRANCH  26  28
HETATM   28  C   UNL     1     -10.330  18.206  68.292  1.00  0.00    -0.363 C  
HETATM   29  O   UNL     1     -10.899  18.807  67.387  1.00  0.00    -0.449 OA 
BRANCH  28  30
HETATM   30  N   UNL     1      -9.136  18.644  68.822  1.00  0.00    -0.302 N  
HETATM   31  H   UNL     1      -8.845  18.329  69.748  1.00  0.00     0.000 HD 
BRANCH  30  32
HETATM   32  C   UNL     1      -8.301  19.536  68.083  1.00  0.00    -0.324 C  
HETATM   33  C   UNL     1      -6.857  19.770  68.418  1.00  0.00    -0.332 C  
HETATM   34  C   UNL     1      -7.219  18.964  67.207  1.00  0.00    -0.222 C  
ENDBRANCH  30  32
ENDBRANCH  28  30
ENDBRANCH  26  28
ENDBRANCH  21  26
ENDBRANCH  18  19
ENDBRANCH  11  18
ENDBRANCH   2   3
TORSDOF 8
ENDMDL
MODEL      230
REMARK 921   NORMALIZED FREE ENERGY PREDICTED BY IDOCK:   -3.29 KCAL/MOL
REMARK 922        TOTAL FREE ENERGY PREDICTED BY IDOCK:   -6.36 KCAL/MOL
REMARK 923 INTER-LIGAND FREE ENERGY PREDICTED BY IDOCK:   -6.03 KCAL/MOL
REMARK 924 INTRA-LIGAND FREE ENERGY PREDICTED BY IDOCK:   -0.33 KCAL/MOL
REMARK 927      BINDING AFFINITY PREDICTED BY RF-SCORE:    0.00 PKD
ROOT
HETATM    1  C   UNL     1      -6.870  14.964  69.978  1.00  0.00    -0.129 C  
HETATM    2  O   UNL     1      -6.868  14.946  68.551  1.00  0.00    -0.099 OA 
ENDROOT
BRANCH   2   3
HETATM    3  C   UNL     1      -7.771  14.095  67.969  1.00  0.00    -0.147 A  
HETATM    4  C   UNL     1      -7.331  12.861  67.472  1.00  0.00    -0.154 A  
HETATM    5  N   UNL     1     -11.235  14.155  66.983  1.00  0.00    -0.307 NA 
HETATM    6  C   UNL     1      -8.249  12.012  66.812  1.00  0.00    -0.110 A  
HETATM    7  C   UNL     1     -10.007  13.654  67.126  1.00  0.00    -0.247 A  
HETATM    8  C   UNL     1      -9.604  12.396  66.622  1.00  0.00    -0.230 A  
HETATM    9  C   UNL     1     -12.106  13.464  66.241  1.00  0.00    -0.422 A  
HETATM   10  C   UNL     1      -9.102  14.467  67.778  1.00  0.00    -0.192 A  
HETATM   11  C   UNL     1     -10.592  11.639  65.926  1.00  0.00    -0.271 A  
HETATM   12  C   UNL     1     -11.812  12.250  65.662  1.00  0.00    -0.423 A  
BRANCH   4  13
HETATM   13  C   UNL     1      -5.921  12.421  67.691  1.00  0.00    -0.128 C  
HETATM   14  H2  UNL     1      -6.143  12.403  69.769  1.00  0.00     0.000 HD 
HETATM   15  H1  UNL     1      -4.548  11.941  69.135  1.00  0.00     0.000 HD 
HETATM   16  O   UNL     1      -5.131  12.230  66.775  1.00  0.00    -0.327 OA 
HETATM   17  N   UNL     1      -5.510  12.242  68.985  1.00  0.00    -0.062 N  
ENDBRANCH   4  13
BRANCH  11  18
HETATM   18  O   UNL     1     -10.217  10.397  65.444  1.00  0.00    -0.292 OA 
BRANCH  18  19
HETATM   19  C   UNL     1      -9.952   9.302  66.250  1.00  0.00    -0.286 A  
HETATM   20  C   UNL     1     -10.650   9.267  67.465  1.00  0.00    -0.329 A  
HETATM   21  C   UNL     1      -9.313   7.391  68.271  1.00  0.00    -0.140 A  
HETATM   22  C   UNL     1     -10.343   8.317  68.460  1.00  0.00    -0.230 A  
HETATM   23  C   UNL     1      -8.633   7.417  67.053  1.00  0.00    -0.119 A  
HETATM   24 CL   UNL     1      -7.330   6.315  66.730  1.00  0.00    -0.077 Cl 
HETATM   25  C   UNL     1      -8.955   8.350  66.062  1.00  0.00    -0.228 A  
BRANCH  21  26
HETATM   26  N   UNL     1      -8.885   6.467  69.249  1.00  0.00    -0.128 N  
HETATM   27  H   UNL     1      -7.879   6.304  69.311  1.00  0.00     0.000 HD 
BRANCH  26  28
HETATM   28  C   UNL     1      -9.670   5.766  70.123  1.00  0.00    -0.170 C  
HETATM   29  O   UNL     1     -10.896   5.787  70.145  1.00  0.00    -0.303 OA 
BRANCH  28  30
HETATM   30  N   UNL     1      -8.937   5.007  71.011  1.00  0.00    -0.130 N  
HETATM   31  H   UNL     1      -8.359   5.467  71.715  1.00  0.00     0.000 HD 
BRANCH  30  32
HETATM   32  C   UNL     1      -8.981   3.582  70.952  1.00  0.00    -0.096 C  
HETATM   33  C   UNL     1      -9.261   2.825  69.687  1.00  0.00    -0.206 C  
HETATM   34  C   UNL     1      -7.871   2.847  70.248  1.00  0.00    -0.047 C  
ENDBRANCH  30  32
ENDBRANCH  28  30
ENDBRANCH  26  28
ENDBRANCH  21  26
ENDBRANCH  18  19
ENDBRANCH  11  18
ENDBRANCH   2   3
TORSDOF 8
ENDMDL
MODEL      231
REMARK 921   NORMALIZED FREE ENERGY PREDICTED BY IDOCK:   -3.27 KCAL/MOL
REMARK 922        TOTAL FREE ENERGY PREDICTED BY IDOCK:   -6.33 KCAL/MOL
REMARK 923 INTER-LIGAND FREE ENERGY PREDICTED BY IDOCK:   -5.15 KCAL/MOL
REMARK 924 INTRA-LIGAND FREE ENERGY PREDICTED BY IDOCK:   -1.18 KCAL/MOL
REMARK 927      BINDING AFFINITY PREDICTED BY RF-SCORE:    0.00 PKD
ROOT
HETATM    1  C   UNL     1     -11.584  14.982  67.858  1.00  0.00    -0.333 C  
HETATM    2  O   UNL     1     -11.303  13.725  67.245  1.00  0.00    -0.297 OA 
ENDROOT
BRANCH   2   3
HETATM    3  C   UNL     1     -10.167  13.095  67.681  1.00  0.00    -0.224 A  
HETATM    4  C   UNL     1     -10.267  12.107  68.671  1.00  0.00    -0.186 A  
HETATM    5  N   UNL     1      -6.608  13.395  67.219  1.00  0.00    -0.210 NA 
HETATM    6  C   UNL     1      -9.090  11.504  69.168  1.00  0.00     0.250 A  
HETATM    7  C   UNL     1      -7.745  12.905  67.715  1.00  0.00    -0.151 A  
HETATM    8  C   UNL     1      -7.805  11.896  68.703  1.00  0.00    -0.104 A  
HETATM    9  C   UNL     1      -5.460  12.969  67.756  1.00  0.00    -0.118 A  
HETATM   10  C   UNL     1      -8.903  13.476  67.230  1.00  0.00    -0.225 A  
HETATM   11  C   UNL     1      -6.559  11.390  69.178  1.00  0.00    -0.095 A  
HETATM   12  C   UNL     1      -5.396  12.024  68.756  1.00  0.00    -0.050 A  
BRANCH   4  13
HETATM   13  C   UNL     1     -11.606  11.653  69.149  1.00  0.00    -0.314 C  
HETATM   14  H2  UNL     1     -11.505  12.837  70.868  1.00  0.00     0.000 HD 
HETATM   15  H1  UNL     1     -12.975  11.859  70.661  1.00  0.00     0.000 HD 
HETATM   16  O   UNL     1     -12.293  10.844  68.541  1.00  0.00    -0.490 OA 
HETATM   17  N   UNL     1     -12.060  12.169  70.334  1.00  0.00    -0.352 N  
ENDBRANCH   4  13
BRANCH  11  18
HETATM   18  O   UNL     1      -6.602  10.387  70.131  1.00  0.00    -0.116 OA 
BRANCH  18  19
HETATM   19  C   UNL     1      -6.836   9.054  69.842  1.00  0.00    -0.047 A  
HETATM   20  C   UNL     1      -7.091   8.767  68.494  1.00  0.00    -0.073 A  
HETATM   21  C   UNL     1      -7.738   6.474  69.020  1.00  0.00    -0.109 A  
HETATM   22  C   UNL     1      -7.527   7.490  68.085  1.00  0.00    -0.105 A  
HETATM   23  C   UNL     1      -7.464   6.757  70.359  1.00  0.00    -0.087 A  
HETATM   24 CL   UNL     1      -7.708   5.563  71.596  1.00  0.00    -0.104 Cl 
HETATM   25  C   UNL     1      -7.015   8.020  70.757  1.00  0.00    -0.045 A  
BRANCH  21  26
HETATM   26  N   UNL     1      -8.256   5.198  68.706  1.00  0.00    -0.085 N  
HETATM   27  H   UNL     1      -7.578   4.439  68.627  1.00  0.00     0.000 HD 
BRANCH  26  28
HETATM   28  C   UNL     1      -9.567   4.867  68.498  1.00  0.00    -0.152 C  
HETATM   29  O   UNL     1     -10.034   4.464  67.438  1.00  0.00    -0.170 OA 
BRANCH  28  30
HETATM   30  N   UNL     1     -10.346   5.035  69.623  1.00  0.00    -0.246 N  
HETATM   31  H   UNL     1     -10.248   4.392  70.409  1.00  0.00     0.000 HD 
BRANCH  30  32
HETATM   32  C   UNL     1     -11.291   6.102  69.695  1.00  0.00    -0.372 C  
HETATM   33  C   UNL     1     -11.400   7.018  70.879  1.00  0.00    -0.334 C  
HETATM   34  C   UNL     1     -10.797   7.521  69.602  1.00  0.00    -0.210 C  
ENDBRANCH  30  32
ENDBRANCH  28  30
ENDBRANCH  26  28
ENDBRANCH  21  26
ENDBRANCH  18  19
ENDBRANCH  11  18
ENDBRANCH   2   3
TORSDOF 8
ENDMDL
MODEL      232
REMARK 921   NORMALIZED FREE ENERGY PREDICTED BY IDOCK:   -3.27 KCAL/MOL
REMARK 922        TOTAL FREE ENERGY PREDICTED BY IDOCK:   -6.33 KCAL/MOL
REMARK 923 INTER-LIGAND FREE ENERGY PREDICTED BY IDOCK:   -6.11 KCAL/MOL
REMARK 924 INTRA-LIGAND FREE ENERGY PREDICTED BY IDOCK:   -0.22 KCAL/MOL
REMARK 927      BINDING AFFINITY PREDICTED BY RF-SCORE:    0.00 PKD
ROOT
HETATM    1  C   UNL     1     -11.910  14.054  66.919  1.00  0.00    -0.430 C  
HETATM    2  O   UNL     1     -10.802  13.158  66.861  1.00  0.00    -0.262 OA 
ENDROOT
BRANCH   2   3
HETATM    3  C   UNL     1     -10.693  12.283  67.910  1.00  0.00    -0.215 A  
HETATM    4  C   UNL     1      -9.526  11.518  68.050  1.00  0.00    -0.181 A  
HETATM    5  N   UNL     1     -12.789  11.014  70.550  1.00  0.00    -0.227 NA 
HETATM    6  C   UNL     1      -9.441  10.569  69.093  1.00  0.00    -0.205 A  
HETATM    7  C   UNL     1     -11.688  11.137  69.809  1.00  0.00    -0.345 A  
HETATM    8  C   UNL     1     -10.523  10.356  69.989  1.00  0.00    -0.235 A  
HETATM    9  C   UNL     1     -12.823  10.032  71.456  1.00  0.00    -0.432 A  
HETATM   10  C   UNL     1     -11.752  12.069  68.793  1.00  0.00    -0.377 A  
HETATM   11  C   UNL     1     -10.557   9.389  71.037  1.00  0.00    -0.330 A  
HETATM   12  C   UNL     1     -11.767   9.180  71.690  1.00  0.00    -0.448 A  
BRANCH   4  13
HETATM   13  C   UNL     1      -8.363  11.748  67.143  1.00  0.00    -0.168 C  
HETATM   14  H2  UNL     1      -8.830  10.093  65.957  1.00  0.00     0.000 HD 
HETATM   15  H1  UNL     1      -7.395  11.029  65.486  1.00  0.00     0.000 HD 
HETATM   16  O   UNL     1      -7.567  12.665  67.298  1.00  0.00    -0.153 OA 
HETATM   17  N   UNL     1      -8.190  10.872  66.105  1.00  0.00    -0.167 N  
ENDBRANCH   4  13
BRANCH  11  18
HETATM   18  O   UNL     1      -9.417   8.631  71.239  1.00  0.00    -0.180 OA 
BRANCH  18  19
HETATM   19  C   UNL     1      -9.073   7.531  70.472  1.00  0.00    -0.156 A  
HETATM   20  C   UNL     1     -10.110   6.620  70.229  1.00  0.00    -0.201 A  
HETATM   21  C   UNL     1      -8.566   4.993  69.270  1.00  0.00    -0.088 A  
HETATM   22  C   UNL     1      -9.863   5.370  69.625  1.00  0.00    -0.261 A  
HETATM   23  C   UNL     1      -7.538   5.910  69.495  1.00  0.00    -0.088 A  
HETATM   24 CL   UNL     1      -5.892   5.527  69.098  1.00  0.00    -0.021 Cl 
HETATM   25  C   UNL     1      -7.792   7.156  70.077  1.00  0.00    -0.113 A  
BRANCH  21  26
HETATM   26  N   UNL     1      -8.220   3.728  68.743  1.00  0.00    -0.072 N  
HETATM   27  H   UNL     1      -7.227   3.560  68.579  1.00  0.00     0.000 HD 
BRANCH  26  28
HETATM   28  C   UNL     1      -9.071   2.704  68.431  1.00  0.00    -0.172 C  
HETATM   29  O   UNL     1      -9.389   2.371  67.294  1.00  0.00    -0.142 OA 
BRANCH  28  30
HETATM   30  N   UNL     1      -9.559   2.055  69.545  1.00  0.00    -0.037 N  
HETATM   31  H   UNL     1     -10.201   1.270  69.434  1.00  0.00     0.000 HD 
BRANCH  30  32
HETATM   32  C   UNL     1      -9.171   2.473  70.853  1.00  0.00    -0.129 C  
HETATM   33  C   UNL     1      -9.891   2.041  72.096  1.00  0.00    -0.207 C  
HETATM   34  C   UNL     1      -8.541   1.470  71.782  1.00  0.00    -0.069 C  
ENDBRANCH  30  32
ENDBRANCH  28  30
ENDBRANCH  26  28
ENDBRANCH  21  26
ENDBRANCH  18  19
ENDBRANCH  11  18
ENDBRANCH   2   3
TORSDOF 8
ENDMDL
MODEL      233
REMARK 921   NORMALIZED FREE ENERGY PREDICTED BY IDOCK:   -3.26 KCAL/MOL
REMARK 922        TOTAL FREE ENERGY PREDICTED BY IDOCK:   -6.31 KCAL/MOL
REMARK 923 INTER-LIGAND FREE ENERGY PREDICTED BY IDOCK:   -5.61 KCAL/MOL
REMARK 924 INTRA-LIGAND FREE ENERGY PREDICTED BY IDOCK:   -0.71 KCAL/MOL
REMARK 927      BINDING AFFINITY PREDICTED BY RF-SCORE:    0.00 PKD
ROOT
HETATM    1  C   UNL     1     -11.003   5.135  72.222  1.00  0.00    -0.143 C  
HETATM    2  O   UNL     1     -11.690   6.065  71.385  1.00  0.00    -0.235 OA 
ENDROOT
BRANCH   2   3
HETATM    3  C   UNL     1     -10.933   6.647  70.402  1.00  0.00    -0.290 A  
HETATM    4  C   UNL     1     -10.471   7.959  70.575  1.00  0.00    -0.214 A  
HETATM    5  N   UNL     1      -9.867   5.870  67.050  1.00  0.00    -0.138 NA 
HETATM    6  C   UNL     1      -9.748   8.582  69.533  1.00  0.00    -0.176 A  
HETATM    7  C   UNL     1      -9.993   6.597  68.161  1.00  0.00    -0.147 A  
HETATM    8  C   UNL     1      -9.500   7.914  68.304  1.00  0.00    -0.149 A  
HETATM    9  C   UNL     1      -9.322   6.459  65.981  1.00  0.00    -0.017 A  
HETATM   10  C   UNL     1     -10.688   5.997  69.192  1.00  0.00    -0.399 A  
HETATM   11  C   UNL     1      -8.829   8.472  67.175  1.00  0.00    -0.129 A  
HETATM   12  C   UNL     1      -8.848   7.751  65.986  1.00  0.00    -0.189 A  
BRANCH   4  13
HETATM   13  C   UNL     1     -10.688   8.668  71.871  1.00  0.00    -0.344 C  
HETATM   14  H2  UNL     1     -12.627   9.245  71.346  1.00  0.00     0.000 HD 
HETATM   15  H1  UNL     1     -12.049   9.760  72.946  1.00  0.00     0.000 HD 
HETATM   16  O   UNL     1      -9.835   8.735  72.746  1.00  0.00    -0.140 OA 
HETATM   17  N   UNL     1     -11.901   9.276  72.061  1.00  0.00    -0.346 N  
ENDBRANCH   4  13
BRANCH  11  18
HETATM   18  O   UNL     1      -8.323   9.753  67.307  1.00  0.00    -0.120 OA 
BRANCH  18  19
HETATM   19  C   UNL     1      -9.076  10.903  67.139  1.00  0.00    -0.145 A  
HETATM   20  C   UNL     1      -8.391  11.995  66.589  1.00  0.00    -0.085 A  
HETATM   21  C   UNL     1     -10.255  13.501  67.051  1.00  0.00    -0.249 A  
HETATM   22  C   UNL     1      -8.976  13.277  66.535  1.00  0.00    -0.069 A  
HETATM   23  C   UNL     1     -10.941  12.407  67.581  1.00  0.00    -0.236 A  
HETATM   24 CL   UNL     1     -12.530  12.589  68.258  1.00  0.00     0.409 Cl 
HETATM   25  C   UNL     1     -10.363  11.134  67.615  1.00  0.00    -0.223 A  
BRANCH  21  26
HETATM   26  N   UNL     1     -10.876  14.768  67.117  1.00  0.00    -0.303 N  
HETATM   27  H   UNL     1     -11.852  14.780  67.415  1.00  0.00     0.000 HD 
BRANCH  26  28
HETATM   28  C   UNL     1     -10.313  15.979  66.825  1.00  0.00    -0.300 C  
HETATM   29  O   UNL     1     -10.418  16.567  65.753  1.00  0.00    -0.350 OA 
BRANCH  28  30
HETATM   30  N   UNL     1      -9.590  16.501  67.876  1.00  0.00    -0.231 N  
HETATM   31  H   UNL     1     -10.042  16.650  68.778  1.00  0.00     0.000 HD 
BRANCH  30  32
HETATM   32  C   UNL     1      -8.211  16.834  67.711  1.00  0.00    -0.183 C  
HETATM   33  C   UNL     1      -7.713  18.248  67.660  1.00  0.00    -0.230 C  
HETATM   34  C   UNL     1      -7.456  17.412  68.878  1.00  0.00    -0.235 C  
ENDBRANCH  30  32
ENDBRANCH  28  30
ENDBRANCH  26  28
ENDBRANCH  21  26
ENDBRANCH  18  19
ENDBRANCH  11  18
ENDBRANCH   2   3
TORSDOF 8
ENDMDL
MODEL      234
REMARK 921   NORMALIZED FREE ENERGY PREDICTED BY IDOCK:   -3.23 KCAL/MOL
REMARK 922        TOTAL FREE ENERGY PREDICTED BY IDOCK:   -6.28 KCAL/MOL
REMARK 923 INTER-LIGAND FREE ENERGY PREDICTED BY IDOCK:   -5.71 KCAL/MOL
REMARK 924 INTRA-LIGAND FREE ENERGY PREDICTED BY IDOCK:   -0.57 KCAL/MOL
REMARK 927      BINDING AFFINITY PREDICTED BY RF-SCORE:    0.00 PKD
ROOT
HETATM    1  C   UNL     1     -10.417  15.682  69.886  1.00  0.00    -0.320 C  
HETATM    2  O   UNL     1     -10.719  14.862  68.758  1.00  0.00    -0.236 OA 
ENDROOT
BRANCH   2   3
HETATM    3  C   UNL     1      -9.794  13.894  68.466  1.00  0.00    -0.214 A  
HETATM    4  C   UNL     1     -10.191  12.550  68.439  1.00  0.00    -0.230 A  
HETATM    5  N   UNL     1      -6.236  13.678  67.946  1.00  0.00    -0.142 NA 
HETATM    6  C   UNL     1      -9.224  11.546  68.203  1.00  0.00    -0.181 A  
HETATM    7  C   UNL     1      -7.489  13.236  68.065  1.00  0.00    -0.138 A  
HETATM    8  C   UNL     1      -7.853  11.871  68.017  1.00  0.00    -0.140 A  
HETATM    9  C   UNL     1      -5.261  12.768  67.869  1.00  0.00    -0.100 A  
HETATM   10  C   UNL     1      -8.446  14.206  68.284  1.00  0.00    -0.169 A  
HETATM   11  C   UNL     1      -6.795  10.933  67.827  1.00  0.00    -0.072 A  
HETATM   12  C   UNL     1      -5.490  11.410  67.860  1.00  0.00    -0.044 A  
BRANCH   4  13
HETATM   13  C   UNL     1     -11.631  12.187  68.596  1.00  0.00    -0.321 C  
HETATM   14  H2  UNL     1     -11.582  12.475  70.665  1.00  0.00     0.000 HD 
HETATM   15  H1  UNL     1     -13.137  11.968  69.969  1.00  0.00     0.000 HD 
HETATM   16  O   UNL     1     -12.343  11.859  67.656  1.00  0.00    -0.357 OA 
HETATM   17  N   UNL     1     -12.153  12.216  69.861  1.00  0.00    -0.284 N  
ENDBRANCH   4  13
BRANCH  11  18
HETATM   18  O   UNL     1      -7.139   9.594  67.758  1.00  0.00    -0.079 OA 
BRANCH  18  19
HETATM   19  C   UNL     1      -7.844   8.924  68.744  1.00  0.00    -0.101 A  
HETATM   20  C   UNL     1      -7.288   8.987  70.028  1.00  0.00    -0.060 A  
HETATM   21  C   UNL     1      -8.855   7.320  70.876  1.00  0.00    -0.149 A  
HETATM   22  C   UNL     1      -7.793   8.203  71.086  1.00  0.00    -0.096 A  
HETATM   23  C   UNL     1      -9.419   7.274  69.600  1.00  0.00    -0.155 A  
HETATM   24 CL   UNL     1     -10.733   6.198  69.239  1.00  0.00    -0.343 Cl 
HETATM   25  C   UNL     1      -8.925   8.068  68.559  1.00  0.00    -0.133 A  
BRANCH  21  26
HETATM   26  N   UNL     1      -9.361   6.437  71.855  1.00  0.00    -0.153 N  
HETATM   27  H   UNL     1      -8.777   5.634  72.089  1.00  0.00     0.000 HD 
BRANCH  26  28
HETATM   28  C   UNL     1     -10.549   6.541  72.526  1.00  0.00    -0.213 C  
HETATM   29  O   UNL     1     -11.047   7.589  72.922  1.00  0.00    -0.337 OA 
BRANCH  28  30
HETATM   30  N   UNL     1     -11.160   5.321  72.725  1.00  0.00    -0.274 N  
HETATM   31  H   UNL     1     -12.159   5.219  72.547  1.00  0.00     0.000 HD 
BRANCH  30  32
HETATM   32  C   UNL     1     -10.403   4.199  73.177  1.00  0.00    -0.169 C  
HETATM   33  C   UNL     1     -10.951   2.803  73.210  1.00  0.00    -0.265 C  
HETATM   34  C   UNL     1      -9.938   3.180  72.172  1.00  0.00    -0.232 C  
ENDBRANCH  30  32
ENDBRANCH  28  30
ENDBRANCH  26  28
ENDBRANCH  21  26
ENDBRANCH  18  19
ENDBRANCH  11  18
ENDBRANCH   2   3
TORSDOF 8
ENDMDL
MODEL      235
REMARK 921   NORMALIZED FREE ENERGY PREDICTED BY IDOCK:   -3.22 KCAL/MOL
REMARK 922        TOTAL FREE ENERGY PREDICTED BY IDOCK:   -6.27 KCAL/MOL
REMARK 923 INTER-LIGAND FREE ENERGY PREDICTED BY IDOCK:   -4.67 KCAL/MOL
REMARK 924 INTRA-LIGAND FREE ENERGY PREDICTED BY IDOCK:   -1.59 KCAL/MOL
REMARK 927      BINDING AFFINITY PREDICTED BY RF-SCORE:    0.00 PKD
ROOT
HETATM    1  C   UNL     1     -11.398  15.601  69.055  1.00  0.00    -0.330 C  
HETATM    2  O   UNL     1     -11.339  14.586  68.054  1.00  0.00    -0.278 OA 
ENDROOT
BRANCH   2   3
HETATM    3  C   UNL     1     -10.224  13.790  68.084  1.00  0.00    -0.253 A  
HETATM    4  C   UNL     1     -10.326  12.481  68.574  1.00  0.00    -0.233 A  
HETATM    5  N   UNL     1      -6.690  14.133  67.476  1.00  0.00    -0.252 NA 
HETATM    6  C   UNL     1      -9.163  11.683  68.667  1.00  0.00    -0.112 A  
HETATM    7  C   UNL     1      -7.823  13.519  67.820  1.00  0.00    -0.167 A  
HETATM    8  C   UNL     1      -7.888  12.190  68.297  1.00  0.00    -0.153 A  
HETATM    9  C   UNL     1      -5.542  13.480  67.682  1.00  0.00    -0.027 A  
HETATM   10  C   UNL     1      -8.968  14.283  67.724  1.00  0.00    -0.188 A  
HETATM   11  C   UNL     1      -6.651  11.487  68.403  1.00  0.00    -0.060 A  
HETATM   12  C   UNL     1      -5.478  12.199  68.184  1.00  0.00    -0.054 A  
BRANCH   4  13
HETATM   13  C   UNL     1     -11.659  11.915  68.935  1.00  0.00    -0.311 C  
HETATM   14  H2  UNL     1     -11.445  12.432  70.949  1.00  0.00     0.000 HD 
HETATM   15  H1  UNL     1     -12.956  11.612  70.493  1.00  0.00     0.000 HD 
HETATM   16  O   UNL     1     -12.399  11.377  68.121  1.00  0.00    -0.502 OA 
HETATM   17  N   UNL     1     -12.045  11.999  70.247  1.00  0.00    -0.340 N  
ENDBRANCH   4  13
BRANCH  11  18
HETATM   18  O   UNL     1      -6.701  10.178  68.849  1.00  0.00    -0.052 OA 
BRANCH  18  19
HETATM   19  C   UNL     1      -6.587   9.074  68.021  1.00  0.00    -0.061 A  
HETATM   20  C   UNL     1      -6.771   9.324  66.655  1.00  0.00    -0.076 A  
HETATM   21  C   UNL     1      -6.804   6.940  66.139  1.00  0.00    -0.064 A  
HETATM   22  C   UNL     1      -6.867   8.272  65.722  1.00  0.00    -0.063 A  
HETATM   23  C   UNL     1      -6.601   6.694  67.497  1.00  0.00    -0.057 A  
HETATM   24 CL   UNL     1      -6.522   5.072  68.112  1.00  0.00    -0.040 Cl 
HETATM   25  C   UNL     1      -6.488   7.743  68.416  1.00  0.00    -0.053 A  
BRANCH  21  26
HETATM   26  N   UNL     1      -6.980   5.829  65.284  1.00  0.00    -0.062 N  
HETATM   27  H   UNL     1      -6.147   5.276  65.081  1.00  0.00     0.000 HD 
BRANCH  26  28
HETATM   28  C   UNL     1      -8.145   5.414  64.698  1.00  0.00    -0.125 C  
HETATM   29  O   UNL     1      -8.474   5.644  63.540  1.00  0.00    -0.087 OA 
BRANCH  28  30
HETATM   30  N   UNL     1      -8.945   4.690  65.556  1.00  0.00    -0.136 N  
HETATM   31  H   UNL     1      -8.646   3.768  65.872  1.00  0.00     0.000 HD 
BRANCH  30  32
HETATM   32  C   UNL     1     -10.191   5.223  66.004  1.00  0.00    -0.126 C  
HETATM   33  C   UNL     1     -10.554   5.343  67.455  1.00  0.00    -0.204 C  
HETATM   34  C   UNL     1     -10.210   6.573  66.670  1.00  0.00    -0.209 C  
ENDBRANCH  30  32
ENDBRANCH  28  30
ENDBRANCH  26  28
ENDBRANCH  21  26
ENDBRANCH  18  19
ENDBRANCH  11  18
ENDBRANCH   2   3
TORSDOF 8
ENDMDL
MODEL      236
REMARK 921   NORMALIZED FREE ENERGY PREDICTED BY IDOCK:   -3.21 KCAL/MOL
REMARK 922        TOTAL FREE ENERGY PREDICTED BY IDOCK:   -6.25 KCAL/MOL
REMARK 923 INTER-LIGAND FREE ENERGY PREDICTED BY IDOCK:   -5.57 KCAL/MOL
REMARK 924 INTRA-LIGAND FREE ENERGY PREDICTED BY IDOCK:   -0.68 KCAL/MOL
REMARK 927      BINDING AFFINITY PREDICTED BY RF-SCORE:    0.00 PKD
ROOT
HETATM    1  C   UNL     1      -7.666   7.051  62.397  1.00  0.00    -0.114 C  
HETATM    2  O   UNL     1      -6.749   6.970  63.487  1.00  0.00    -0.042 OA 
ENDROOT
BRANCH   2   3
HETATM    3  C   UNL     1      -7.313   6.947  64.735  1.00  0.00    -0.088 A  
HETATM    4  C   UNL     1      -7.005   7.965  65.648  1.00  0.00    -0.053 A  
HETATM    5  N   UNL     1      -9.351   4.717  66.698  1.00  0.00    -0.134 NA 
HETATM    6  C   UNL     1      -7.534   7.906  66.957  1.00  0.00    -0.092 A  
HETATM    7  C   UNL     1      -8.631   5.808  66.430  1.00  0.00    -0.125 A  
HETATM    8  C   UNL     1      -8.353   6.822  67.374  1.00  0.00    -0.122 A  
HETATM    9  C   UNL     1      -9.754   4.533  67.958  1.00  0.00    -0.134 A  
HETATM   10  C   UNL     1      -8.116   5.885  65.152  1.00  0.00    -0.131 A  
HETATM   11  C   UNL     1      -8.890   6.642  68.683  1.00  0.00    -0.122 A  
HETATM   12  C   UNL     1      -9.504   5.429  68.973  1.00  0.00    -0.176 A  
BRANCH   4  13
HETATM   13  C   UNL     1      -6.176   9.132  65.222  1.00  0.00    -0.064 C  
HETATM   14  H2  UNL     1      -5.048   9.101  66.981  1.00  0.00     0.000 HD 
HETATM   15  H1  UNL     1      -4.635  10.357  65.793  1.00  0.00     0.000 HD 
HETATM   16  O   UNL     1      -6.341   9.715  64.159  1.00  0.00    -0.097 OA 
HETATM   17  N   UNL     1      -5.201   9.561  66.084  1.00  0.00    -0.039 N  
ENDBRANCH   4  13
BRANCH  11  18
HETATM   18  O   UNL     1      -8.644   7.637  69.613  1.00  0.00    -0.133 OA 
BRANCH  18  19
HETATM   19  C   UNL     1      -9.426   8.770  69.761  1.00  0.00    -0.167 A  
HETATM   20  C   UNL     1     -10.364   8.721  70.801  1.00  0.00    -0.264 A  
HETATM   21  C   UNL     1     -11.430  10.782  70.046  1.00  0.00    -0.331 A  
HETATM   22  C   UNL     1     -11.348   9.720  70.950  1.00  0.00    -0.439 A  
HETATM   23  C   UNL     1     -10.483  10.837  69.022  1.00  0.00    -0.215 A  
HETATM   24 CL   UNL     1     -10.512  12.111  67.842  1.00  0.00    -0.212 Cl 
HETATM   25  C   UNL     1      -9.498   9.853  68.890  1.00  0.00    -0.170 A  
BRANCH  21  26
HETATM   26  N   UNL     1     -12.437  11.773  70.071  1.00  0.00    -0.125 N  
HETATM   27  H   UNL     1     -12.951  11.920  69.202  1.00  0.00     0.000 HD 
BRANCH  26  28
HETATM   28  C   UNL     1     -12.797  12.556  71.133  1.00  0.00    -0.211 C  
HETATM   29  O   UNL     1     -13.148  12.139  72.232  1.00  0.00    -0.392 OA 
BRANCH  28  30
HETATM   30  N   UNL     1     -12.732  13.904  70.850  1.00  0.00    -0.344 N  
HETATM   31  H   UNL     1     -13.469  14.528  71.180  1.00  0.00     0.000 HD 
BRANCH  30  32
HETATM   32  C   UNL     1     -11.641  14.432  70.098  1.00  0.00    -0.265 C  
HETATM   33  C   UNL     1     -11.810  15.485  69.042  1.00  0.00    -0.373 C  
HETATM   34  C   UNL     1     -11.191  15.845  70.359  1.00  0.00    -0.392 C  
ENDBRANCH  30  32
ENDBRANCH  28  30
ENDBRANCH  26  28
ENDBRANCH  21  26
ENDBRANCH  18  19
ENDBRANCH  11  18
ENDBRANCH   2   3
TORSDOF 8
ENDMDL
MODEL      237
REMARK 921   NORMALIZED FREE ENERGY PREDICTED BY IDOCK:   -3.19 KCAL/MOL
REMARK 922        TOTAL FREE ENERGY PREDICTED BY IDOCK:   -6.22 KCAL/MOL
REMARK 923 INTER-LIGAND FREE ENERGY PREDICTED BY IDOCK:   -5.45 KCAL/MOL
REMARK 924 INTRA-LIGAND FREE ENERGY PREDICTED BY IDOCK:   -0.76 KCAL/MOL
REMARK 927      BINDING AFFINITY PREDICTED BY RF-SCORE:    0.00 PKD
ROOT
HETATM    1  C   UNL     1     -13.084  11.981  63.138  1.00  0.00     0.287 C  
HETATM    2  O   UNL     1     -12.033  12.944  63.189  1.00  0.00    -0.529 OA 
ENDROOT
BRANCH   2   3
HETATM    3  C   UNL     1     -11.411  13.077  64.403  1.00  0.00    -0.365 A  
HETATM    4  C   UNL     1     -10.325  12.246  64.713  1.00  0.00    -0.320 A  
HETATM    5  N   UNL     1     -11.907  14.906  67.466  1.00  0.00    -0.309 NA 
HETATM    6  C   UNL     1      -9.726  12.337  65.990  1.00  0.00    -0.254 A  
HETATM    7  C   UNL     1     -11.322  14.049  66.629  1.00  0.00    -0.335 A  
HETATM    8  C   UNL     1     -10.217  13.237  66.974  1.00  0.00    -0.244 A  
HETATM    9  C   UNL     1     -11.479  14.930  68.732  1.00  0.00    -0.307 A  
HETATM   10  C   UNL     1     -11.890  13.957  65.374  1.00  0.00    -0.363 A  
HETATM   11  C   UNL     1      -9.719  13.367  68.304  1.00  0.00    -0.226 A  
HETATM   12  C   UNL     1     -10.442  14.152  69.195  1.00  0.00    -0.143 A  
BRANCH   4  13
HETATM   13  C   UNL     1      -9.769  11.318  63.684  1.00  0.00    -0.321 C  
HETATM   14  H2  UNL     1     -10.185   9.627  64.838  1.00  0.00     0.000 HD 
HETATM   15  H1  UNL     1      -9.419   9.344  63.259  1.00  0.00     0.000 HD 
HETATM   16  O   UNL     1      -9.286  11.705  62.628  1.00  0.00    -0.330 OA 
HETATM   17  N   UNL     1      -9.799   9.978  63.962  1.00  0.00    -0.123 N  
ENDBRANCH   4  13
BRANCH  11  18
HETATM   18  O   UNL     1      -8.625  12.593  68.651  1.00  0.00    -0.088 OA 
BRANCH  18  19
HETATM   19  C   UNL     1      -8.635  11.209  68.680  1.00  0.00    -0.151 A  
HETATM   20  C   UNL     1      -9.792  10.626  69.214  1.00  0.00    -0.201 A  
HETATM   21  C   UNL     1      -8.767   8.411  69.229  1.00  0.00    -0.138 A  
HETATM   22  C   UNL     1      -9.863   9.243  69.476  1.00  0.00    -0.188 A  
HETATM   23  C   UNL     1      -7.624   8.992  68.679  1.00  0.00    -0.092 A  
HETATM   24 CL   UNL     1      -6.207   8.042  68.349  1.00  0.00    -0.048 Cl 
HETATM   25  C   UNL     1      -7.565  10.362  68.404  1.00  0.00    -0.093 A  
BRANCH  21  26
HETATM   26  N   UNL     1      -8.725   7.035  69.544  1.00  0.00    -0.134 N  
HETATM   27  H   UNL     1      -8.933   6.388  68.783  1.00  0.00     0.000 HD 
BRANCH  26  28
HETATM   28  C   UNL     1      -8.436   6.475  70.758  1.00  0.00    -0.134 C  
HETATM   29  O   UNL     1      -8.407   7.078  71.826  1.00  0.00    -0.110 OA 
BRANCH  28  30
HETATM   30  N   UNL     1      -8.167   5.125  70.674  1.00  0.00    -0.105 N  
HETATM   31  H   UNL     1      -8.752   4.459  71.180  1.00  0.00     0.000 HD 
BRANCH  30  32
HETATM   32  C   UNL     1      -7.076   4.653  69.884  1.00  0.00    -0.053 C  
HETATM   33  C   UNL     1      -5.641   4.929  70.224  1.00  0.00    -0.015 C  
HETATM   34  C   UNL     1      -6.203   3.555  70.429  1.00  0.00    -0.023 C  
ENDBRANCH  30  32
ENDBRANCH  28  30
ENDBRANCH  26  28
ENDBRANCH  21  26
ENDBRANCH  18  19
ENDBRANCH  11  18
ENDBRANCH   2   3
TORSDOF 8
ENDMDL
MODEL      238
REMARK 921   NORMALIZED FREE ENERGY PREDICTED BY IDOCK:   -3.19 KCAL/MOL
REMARK 922        TOTAL FREE ENERGY PREDICTED BY IDOCK:   -6.22 KCAL/MOL
REMARK 923 INTER-LIGAND FREE ENERGY PREDICTED BY IDOCK:   -5.30 KCAL/MOL
REMARK 924 INTRA-LIGAND FREE ENERGY PREDICTED BY IDOCK:   -0.91 KCAL/MOL
REMARK 927      BINDING AFFINITY PREDICTED BY RF-SCORE:    0.00 PKD
ROOT
HETATM    1  C   UNL     1      -6.736   7.686  63.001  1.00  0.00    -0.067 C  
HETATM    2  O   UNL     1      -6.225   7.741  64.331  1.00  0.00    -0.051 OA 
ENDROOT
BRANCH   2   3
HETATM    3  C   UNL     1      -6.900   6.988  65.256  1.00  0.00    -0.051 A  
HETATM    4  C   UNL     1      -6.885   7.378  66.603  1.00  0.00    -0.062 A  
HETATM    5  N   UNL     1      -8.671   3.853  65.360  1.00  0.00    -0.114 NA 
HETATM    6  C   UNL     1      -7.525   6.566  67.566  1.00  0.00    -0.096 A  
HETATM    7  C   UNL     1      -8.146   4.983  65.835  1.00  0.00    -0.108 A  
HETATM    8  C   UNL     1      -8.164   5.350  67.201  1.00  0.00    -0.104 A  
HETATM    9  C   UNL     1      -9.160   2.976  66.242  1.00  0.00    -0.143 A  
HETATM   10  C   UNL     1      -7.527   5.792  64.904  1.00  0.00    -0.079 A  
HETATM   11  C   UNL     1      -8.789   4.436  68.100  1.00  0.00    -0.109 A  
HETATM   12  C   UNL     1      -9.189   3.202  67.600  1.00  0.00    -0.237 A  
BRANCH   4  13
HETATM   13  C   UNL     1      -6.252   8.668  67.006  1.00  0.00    -0.056 C  
HETATM   14  H2  UNL     1      -7.814   9.801  66.204  1.00  0.00     0.000 HD 
HETATM   15  H1  UNL     1      -6.488  10.704  66.968  1.00  0.00     0.000 HD 
HETATM   16  O   UNL     1      -5.174   8.732  67.582  1.00  0.00    -0.034 OA 
HETATM   17  N   UNL     1      -6.920   9.822  66.693  1.00  0.00    -0.084 N  
ENDBRANCH   4  13
BRANCH  11  18
HETATM   18  O   UNL     1      -8.832   4.791  69.437  1.00  0.00    -0.082 OA 
BRANCH  18  19
HETATM   19  C   UNL     1      -9.629   5.802  69.944  1.00  0.00    -0.159 A  
HETATM   20  C   UNL     1     -11.008   5.629  69.764  1.00  0.00    -0.301 A  
HETATM   21  C   UNL     1     -11.476   7.899  70.526  1.00  0.00    -0.195 A  
HETATM   22  C   UNL     1     -11.923   6.659  70.061  1.00  0.00    -0.187 A  
HETATM   23  C   UNL     1     -10.104   8.062  70.723  1.00  0.00    -0.192 A  
HETATM   24 CL   UNL     1      -9.452   9.570  71.285  1.00  0.00    -0.100 Cl 
HETATM   25  C   UNL     1      -9.203   7.029  70.444  1.00  0.00    -0.156 A  
BRANCH  21  26
HETATM   26  N   UNL     1     -12.315   9.010  70.762  1.00  0.00    -0.490 N  
HETATM   27  H   UNL     1     -12.309   9.743  70.053  1.00  0.00     0.000 HD 
BRANCH  26  28
HETATM   28  C   UNL     1     -13.136   9.211  71.839  1.00  0.00    -0.411 C  
HETATM   29  O   UNL     1     -13.902   8.377  72.308  1.00  0.00    -0.339 OA 
BRANCH  28  30
HETATM   30  N   UNL     1     -13.024  10.479  72.368  1.00  0.00    -0.365 N  
HETATM   31  H   UNL     1     -12.664  10.604  73.314  1.00  0.00     0.000 HD 
BRANCH  30  32
HETATM   32  C   UNL     1     -13.407  11.619  71.599  1.00  0.00    -0.154 C  
HETATM   33  C   UNL     1     -13.676  12.963  72.210  1.00  0.00    -0.553 C  
HETATM   34  C   UNL     1     -12.421  12.743  71.421  1.00  0.00    -0.224 C  
ENDBRANCH  30  32
ENDBRANCH  28  30
ENDBRANCH  26  28
ENDBRANCH  21  26
ENDBRANCH  18  19
ENDBRANCH  11  18
ENDBRANCH   2   3
TORSDOF 8
ENDMDL
MODEL      239
REMARK 921   NORMALIZED FREE ENERGY PREDICTED BY IDOCK:   -3.16 KCAL/MOL
REMARK 922        TOTAL FREE ENERGY PREDICTED BY IDOCK:   -6.17 KCAL/MOL
REMARK 923 INTER-LIGAND FREE ENERGY PREDICTED BY IDOCK:   -6.03 KCAL/MOL
REMARK 924 INTRA-LIGAND FREE ENERGY PREDICTED BY IDOCK:   -0.14 KCAL/MOL
REMARK 927      BINDING AFFINITY PREDICTED BY RF-SCORE:    0.00 PKD
ROOT
HETATM    1  C   UNL     1      -6.761   5.467  63.247  1.00  0.00    -0.033 C  
HETATM    2  O   UNL     1      -8.072   5.955  63.527  1.00  0.00    -0.114 OA 
ENDROOT
BRANCH   2   3
HETATM    3  C   UNL     1      -8.432   5.959  64.849  1.00  0.00    -0.085 A  
HETATM    4  C   UNL     1      -8.288   7.136  65.598  1.00  0.00    -0.138 A  
HETATM    5  N   UNL     1      -9.500   3.573  67.327  1.00  0.00    -0.208 NA 
HETATM    6  C   UNL     1      -8.596   7.122  66.977  1.00  0.00    -0.122 A  
HETATM    7  C   UNL     1      -9.146   4.763  66.841  1.00  0.00    -0.117 A  
HETATM    8  C   UNL     1      -9.026   5.933  67.626  1.00  0.00    -0.107 A  
HETATM    9  C   UNL     1      -9.661   3.464  68.650  1.00  0.00    -0.057 A  
HETATM   10  C   UNL     1      -8.853   4.795  65.493  1.00  0.00    -0.139 A  
HETATM   11  C   UNL     1      -9.309   5.802  69.018  1.00  0.00    -0.123 A  
HETATM   12  C   UNL     1      -9.525   4.523  69.519  1.00  0.00    -0.244 A  
BRANCH   4  13
HETATM   13  C   UNL     1      -7.872   8.405  64.931  1.00  0.00    -0.121 C  
HETATM   14  H2  UNL     1      -9.844   8.937  64.489  1.00  0.00     0.000 HD 
HETATM   15  H1  UNL     1      -8.578  10.068  63.963  1.00  0.00     0.000 HD 
HETATM   16  O   UNL     1      -6.703   8.747  64.817  1.00  0.00    -0.069 OA 
HETATM   17  N   UNL     1      -8.862   9.201  64.418  1.00  0.00    -0.163 N  
ENDBRANCH   4  13
BRANCH  11  18
HETATM   18  O   UNL     1      -9.215   6.943  69.795  1.00  0.00    -0.147 OA 
BRANCH  18  19
HETATM   19  C   UNL     1     -10.065   8.030  69.679  1.00  0.00    -0.198 A  
HETATM   20  C   UNL     1      -9.565   9.107  68.936  1.00  0.00    -0.152 A  
HETATM   21  C   UNL     1     -11.422  10.540  69.609  1.00  0.00    -0.282 A  
HETATM   22  C   UNL     1     -10.239  10.345  68.891  1.00  0.00    -0.220 A  
HETATM   23  C   UNL     1     -11.927   9.459  70.333  1.00  0.00    -0.029 A  
HETATM   24 CL   UNL     1     -13.383   9.608  71.267  1.00  0.00    -0.430 Cl 
HETATM   25  C   UNL     1     -11.263   8.228  70.359  1.00  0.00    -0.222 A  
BRANCH  21  26
HETATM   26  N   UNL     1     -12.110  11.770  69.690  1.00  0.00    -0.283 N  
HETATM   27  H   UNL     1     -12.939  11.789  70.284  1.00  0.00     0.000 HD 
BRANCH  26  28
HETATM   28  C   UNL     1     -11.787  12.940  69.058  1.00  0.00    -0.306 C  
HETATM   29  O   UNL     1     -11.538  14.001  69.620  1.00  0.00    -0.264 OA 
BRANCH  28  30
HETATM   30  N   UNL     1     -11.767  12.819  67.685  1.00  0.00    -0.360 N  
HETATM   31  H   UNL     1     -11.472  11.941  67.258  1.00  0.00     0.000 HD 
BRANCH  30  32
HETATM   32  C   UNL     1     -12.156  13.914  66.857  1.00  0.00    -0.430 C  
HETATM   33  C   UNL     1     -11.257  14.510  65.814  1.00  0.00    -0.334 C  
HETATM   34  C   UNL     1     -12.423  13.665  65.396  1.00  0.00    -0.537 C  
ENDBRANCH  30  32
ENDBRANCH  28  30
ENDBRANCH  26  28
ENDBRANCH  21  26
ENDBRANCH  18  19
ENDBRANCH  11  18
ENDBRANCH   2   3
TORSDOF 8
ENDMDL
MODEL      240
REMARK 921   NORMALIZED FREE ENERGY PREDICTED BY IDOCK:   -3.14 KCAL/MOL
REMARK 922        TOTAL FREE ENERGY PREDICTED BY IDOCK:   -6.14 KCAL/MOL
REMARK 923 INTER-LIGAND FREE ENERGY PREDICTED BY IDOCK:   -5.20 KCAL/MOL
REMARK 924 INTRA-LIGAND FREE ENERGY PREDICTED BY IDOCK:   -0.94 KCAL/MOL
REMARK 927      BINDING AFFINITY PREDICTED BY RF-SCORE:    0.00 PKD
ROOT
HETATM    1  C   UNL     1      -8.255   6.175  62.748  1.00  0.00    -0.049 C  
HETATM    2  O   UNL     1      -7.625   6.329  64.019  1.00  0.00    -0.083 OA 
ENDROOT
BRANCH   2   3
HETATM    3  C   UNL     1      -8.246   7.190  64.886  1.00  0.00    -0.071 A  
HETATM    4  C   UNL     1      -9.029   6.672  65.927  1.00  0.00    -0.096 A  
HETATM    5  N   UNL     1      -8.758  10.741  65.205  1.00  0.00    -0.189 NA 
HETATM    6  C   UNL     1      -9.722   7.559  66.781  1.00  0.00    -0.283 A  
HETATM    7  C   UNL     1      -8.872   9.451  65.522  1.00  0.00    -0.184 A  
HETATM    8  C   UNL     1      -9.661   8.966  66.590  1.00  0.00    -0.303 A  
HETATM    9  C   UNL     1      -9.506  11.617  65.884  1.00  0.00    -0.228 A  
HETATM   10  C   UNL     1      -8.191   8.573  64.703  1.00  0.00    -0.162 A  
HETATM   11  C   UNL     1     -10.363   9.941  67.360  1.00  0.00    -0.246 A  
HETATM   12  C   UNL     1     -10.346  11.257  66.914  1.00  0.00    -0.272 A  
BRANCH   4  13
HETATM   13  C   UNL     1      -9.080   5.200  66.169  1.00  0.00    -0.144 C  
HETATM   14  H2  UNL     1     -10.852   4.981  65.083  1.00  0.00     0.000 HD 
HETATM   15  H1  UNL     1     -10.166   3.503  65.794  1.00  0.00     0.000 HD 
HETATM   16  O   UNL     1      -8.240   4.602  66.829  1.00  0.00    -0.106 OA 
HETATM   17  N   UNL     1     -10.131   4.508  65.629  1.00  0.00    -0.232 N  
ENDBRANCH   4  13
BRANCH  11  18
HETATM   18  O   UNL     1     -11.124   9.483  68.422  1.00  0.00    -0.121 OA 
BRANCH  18  19
HETATM   19  C   UNL     1     -10.599   8.830  69.524  1.00  0.00    -0.219 A  
HETATM   20  C   UNL     1      -9.615   9.536  70.229  1.00  0.00    -0.314 A  
HETATM   21  C   UNL     1      -9.069   7.583  71.585  1.00  0.00    -0.134 A  
HETATM   22  C   UNL     1      -8.866   8.925  71.255  1.00  0.00    -0.298 A  
HETATM   23  C   UNL     1     -10.063   6.888  70.895  1.00  0.00    -0.194 A  
HETATM   24 CL   UNL     1     -10.381   5.213  71.226  1.00  0.00    -0.289 Cl 
HETATM   25  C   UNL     1     -10.817   7.505  69.891  1.00  0.00    -0.250 A  
BRANCH  21  26
HETATM   26  N   UNL     1      -8.303   6.872  72.535  1.00  0.00    -0.110 N  
HETATM   27  H   UNL     1      -7.625   6.205  72.165  1.00  0.00     0.000 HD 
BRANCH  26  28
HETATM   28  C   UNL     1      -8.370   6.980  73.897  1.00  0.00    -0.139 C  
HETATM   29  O   UNL     1      -8.636   8.007  74.513  1.00  0.00    -0.170 OA 
BRANCH  28  30
HETATM   30  N   UNL     1      -8.103   5.791  74.542  1.00  0.00    -0.106 N  
HETATM   31  H   UNL     1      -8.178   5.737  75.558  1.00  0.00     0.000 HD 
BRANCH  30  32
HETATM   32  C   UNL     1      -7.722   4.635  73.797  1.00  0.00    -0.094 C  
HETATM   33  C   UNL     1      -6.572   3.754  74.188  1.00  0.00    -0.043 C  
HETATM   34  C   UNL     1      -7.978   3.272  74.384  1.00  0.00    -0.069 C  
ENDBRANCH  30  32
ENDBRANCH  28  30
ENDBRANCH  26  28
ENDBRANCH  21  26
ENDBRANCH  18  19
ENDBRANCH  11  18
ENDBRANCH   2   3
TORSDOF 8
ENDMDL
MODEL      241
REMARK 921   NORMALIZED FREE ENERGY PREDICTED BY IDOCK:   -3.13 KCAL/MOL
REMARK 922        TOTAL FREE ENERGY PREDICTED BY IDOCK:   -6.13 KCAL/MOL
REMARK 923 INTER-LIGAND FREE ENERGY PREDICTED BY IDOCK:   -6.36 KCAL/MOL
REMARK 924 INTRA-LIGAND FREE ENERGY PREDICTED BY IDOCK:    0.23 KCAL/MOL
REMARK 927      BINDING AFFINITY PREDICTED BY RF-SCORE:    0.00 PKD
ROOT
HETATM    1  C   UNL     1     -12.148  15.352  73.781  1.00  0.00    -0.521 C  
HETATM    2  O   UNL     1     -13.143  15.288  72.761  1.00  0.00    -0.379 OA 
ENDROOT
BRANCH   2   3
HETATM    3  C   UNL     1     -12.684  14.994  71.504  1.00  0.00    -0.340 A  
HETATM    4  C   UNL     1     -12.768  13.676  71.033  1.00  0.00    -0.408 A  
HETATM    5  N   UNL     1     -10.906  16.667  68.856  1.00  0.00    -0.325 NA 
HETATM    6  C   UNL     1     -12.235  13.359  69.763  1.00  0.00    -0.307 A  
HETATM    7  C   UNL     1     -11.514  15.657  69.480  1.00  0.00    -0.344 A  
HETATM    8  C   UNL     1     -11.592  14.343  68.965  1.00  0.00    -0.330 A  
HETATM    9  C   UNL     1     -10.254  16.395  67.721  1.00  0.00    -0.274 A  
HETATM   10  C   UNL     1     -12.050  15.955  70.716  1.00  0.00    -0.393 A  
HETATM   11  C   UNL     1     -10.976  14.114  67.699  1.00  0.00    -0.267 A  
HETATM   12  C   UNL     1     -10.222  15.144  67.147  1.00  0.00    -0.247 A  
BRANCH   4  13
HETATM   13  C   UNL     1     -13.470  12.633  71.837  1.00  0.00    -0.329 C  
HETATM   14  H2  UNL     1     -12.413  11.076  70.928  1.00  0.00     0.000 HD 
HETATM   15  H1  UNL     1     -13.603  10.614  72.165  1.00  0.00     0.000 HD 
HETATM   16  O   UNL     1     -14.336  12.896  72.662  1.00  0.00    -0.471 OA 
HETATM   17  N   UNL     1     -13.123  11.326  71.616  1.00  0.00    -0.454 N  
ENDBRANCH   4  13
BRANCH  11  18
HETATM   18  O   UNL     1     -11.062  12.837  67.173  1.00  0.00    -0.259 OA 
BRANCH  18  19
HETATM   19  C   UNL     1     -10.344  11.754  67.650  1.00  0.00    -0.200 A  
HETATM   20  C   UNL     1     -10.152  10.709  66.736  1.00  0.00    -0.272 A  
HETATM   21  C   UNL     1      -9.256   9.246  68.471  1.00  0.00    -0.135 A  
HETATM   22  C   UNL     1      -9.605   9.473  67.137  1.00  0.00    -0.206 A  
HETATM   23  C   UNL     1      -9.430  10.295  69.375  1.00  0.00    -0.206 A  
HETATM   24 CL   UNL     1      -9.038  10.103  71.056  1.00  0.00     1.176 Cl 
HETATM   25  C   UNL     1      -9.956  11.525  68.967  1.00  0.00    -0.040 A  
BRANCH  21  26
HETATM   26  N   UNL     1      -8.786   8.012  68.971  1.00  0.00    -0.144 N  
HETATM   27  H   UNL     1      -7.891   8.031  69.459  1.00  0.00     0.000 HD 
BRANCH  26  28
HETATM   28  C   UNL     1      -9.401   6.793  68.874  1.00  0.00    -0.129 C  
HETATM   29  O   UNL     1     -10.566   6.564  69.178  1.00  0.00    -0.200 OA 
BRANCH  28  30
HETATM   30  N   UNL     1      -8.566   5.810  68.387  1.00  0.00    -0.112 N  
HETATM   31  H   UNL     1      -8.185   5.108  69.022  1.00  0.00     0.000 HD 
BRANCH  30  32
HETATM   32  C   UNL     1      -8.230   5.768  67.001  1.00  0.00    -0.101 C  
HETATM   33  C   UNL     1      -7.412   6.829  66.325  1.00  0.00    -0.077 C  
HETATM   34  C   UNL     1      -6.805   5.486  66.604  1.00  0.00    -0.063 C  
ENDBRANCH  30  32
ENDBRANCH  28  30
ENDBRANCH  26  28
ENDBRANCH  21  26
ENDBRANCH  18  19
ENDBRANCH  11  18
ENDBRANCH   2   3
TORSDOF 8
ENDMDL
MODEL      242
REMARK 921   NORMALIZED FREE ENERGY PREDICTED BY IDOCK:   -3.07 KCAL/MOL
REMARK 922        TOTAL FREE ENERGY PREDICTED BY IDOCK:   -6.03 KCAL/MOL
REMARK 923 INTER-LIGAND FREE ENERGY PREDICTED BY IDOCK:   -5.11 KCAL/MOL
REMARK 924 INTRA-LIGAND FREE ENERGY PREDICTED BY IDOCK:   -0.92 KCAL/MOL
REMARK 927      BINDING AFFINITY PREDICTED BY RF-SCORE:    0.00 PKD
ROOT
HETATM    1  C   UNL     1     -10.418  16.375  68.529  1.00  0.00    -0.291 C  
HETATM    2  O   UNL     1     -11.311  15.448  67.913  1.00  0.00    -0.327 OA 
ENDROOT
BRANCH   2   3
HETATM    3  C   UNL     1     -11.048  14.125  68.152  1.00  0.00    -0.257 A  
HETATM    4  C   UNL     1     -11.485  13.542  69.350  1.00  0.00    -0.340 A  
HETATM    5  N   UNL     1      -9.162  11.463  66.623  1.00  0.00    -0.176 NA 
HETATM    6  C   UNL     1     -11.156  12.196  69.627  1.00  0.00    -0.046 A  
HETATM    7  C   UNL     1      -9.936  12.053  67.535  1.00  0.00    -0.192 A  
HETATM    8  C   UNL     1     -10.370  11.427  68.726  1.00  0.00    -0.222 A  
HETATM    9  C   UNL     1      -8.697  10.241  66.898  1.00  0.00    -0.126 A  
HETATM   10  C   UNL     1     -10.275  13.365  67.273  1.00  0.00    -0.241 A  
HETATM   11  C   UNL     1      -9.940  10.084  68.936  1.00  0.00    -0.192 A  
HETATM   12  C   UNL     1      -9.014   9.551  68.047  1.00  0.00    -0.123 A  
BRANCH   4  13
HETATM   13  C   UNL     1     -12.341  14.318  70.295  1.00  0.00    -0.354 C  
HETATM   14  H2  UNL     1     -10.745  14.697  71.589  1.00  0.00     0.000 HD 
HETATM   15  H1  UNL     1     -12.325  15.366  72.056  1.00  0.00     0.000 HD 
HETATM   16  O   UNL     1     -13.540  14.494  70.119  1.00  0.00     0.367 OA 
HETATM   17  N   UNL     1     -11.740  14.836  71.411  1.00  0.00    -0.323 N  
ENDBRANCH   4  13
BRANCH  11  18
HETATM   18  O   UNL     1     -10.374   9.451  70.088  1.00  0.00    -0.201 OA 
BRANCH  18  19
HETATM   19  C   UNL     1      -9.631   8.510  70.781  1.00  0.00    -0.180 A  
HETATM   20  C   UNL     1     -10.039   7.180  70.613  1.00  0.00    -0.198 A  
HETATM   21  C   UNL     1      -8.548   6.413  72.385  1.00  0.00    -0.120 A  
HETATM   22  C   UNL     1      -9.498   6.141  71.397  1.00  0.00    -0.170 A  
HETATM   23  C   UNL     1      -8.129   7.736  72.536  1.00  0.00    -0.122 A  
HETATM   24 CL   UNL     1      -6.963   8.174  73.746  1.00  0.00    -0.148 Cl 
HETATM   25  C   UNL     1      -8.657   8.760  71.743  1.00  0.00    -0.198 A  
BRANCH  21  26
HETATM   26  N   UNL     1      -8.022   5.447  73.271  1.00  0.00    -0.110 N  
HETATM   27  H   UNL     1      -7.795   5.769  74.212  1.00  0.00     0.000 HD 
BRANCH  26  28
HETATM   28  C   UNL     1      -7.783   4.126  73.005  1.00  0.00    -0.081 C  
HETATM   29  O   UNL     1      -7.101   3.704  72.078  1.00  0.00    -0.045 OA 
BRANCH  28  30
HETATM   30  N   UNL     1      -8.399   3.281  73.902  1.00  0.00    -0.074 N  
HETATM   31  H   UNL     1      -7.891   2.479  74.275  1.00  0.00     0.000 HD 
BRANCH  30  32
HETATM   32  C   UNL     1      -9.745   3.519  74.314  1.00  0.00    -0.109 C  
HETATM   33  C   UNL     1     -10.902   3.527  73.358  1.00  0.00    -0.312 C  
HETATM   34  C   UNL     1     -10.725   2.376  74.303  1.00  0.00    -0.201 C  
ENDBRANCH  30  32
ENDBRANCH  28  30
ENDBRANCH  26  28
ENDBRANCH  21  26
ENDBRANCH  18  19
ENDBRANCH  11  18
ENDBRANCH   2   3
TORSDOF 8
ENDMDL
MODEL      243
REMARK 921   NORMALIZED FREE ENERGY PREDICTED BY IDOCK:   -3.06 KCAL/MOL
REMARK 922        TOTAL FREE ENERGY PREDICTED BY IDOCK:   -6.02 KCAL/MOL
REMARK 923 INTER-LIGAND FREE ENERGY PREDICTED BY IDOCK:   -5.83 KCAL/MOL
REMARK 924 INTRA-LIGAND FREE ENERGY PREDICTED BY IDOCK:   -0.19 KCAL/MOL
REMARK 927      BINDING AFFINITY PREDICTED BY RF-SCORE:    0.00 PKD
ROOT
HETATM    1  C   UNL     1      -6.370   8.174  71.216  1.00  0.00    -0.036 C  
HETATM    2  O   UNL     1      -7.269   7.465  70.366  1.00  0.00    -0.066 OA 
ENDROOT
BRANCH   2   3
HETATM    3  C   UNL     1      -7.682   8.140  69.247  1.00  0.00    -0.104 A  
HETATM    4  C   UNL     1      -8.913   8.811  69.265  1.00  0.00    -0.144 A  
HETATM    5  N   UNL     1      -6.604   8.559  65.836  1.00  0.00    -0.053 NA 
HETATM    6  C   UNL     1      -9.370   9.451  68.091  1.00  0.00    -0.142 A  
HETATM    7  C   UNL     1      -7.389   8.711  66.903  1.00  0.00    -0.079 A  
HETATM    8  C   UNL     1      -8.619   9.409  66.886  1.00  0.00    -0.132 A  
HETATM    9  C   UNL     1      -7.053   9.015  64.663  1.00  0.00    -0.089 A  
HETATM   10  C   UNL     1      -6.950   8.101  68.060  1.00  0.00    -0.077 A  
HETATM   11  C   UNL     1      -9.016   9.974  65.638  1.00  0.00    -0.172 A  
HETATM   12  C   UNL     1      -8.255   9.670  64.515  1.00  0.00    -0.151 A  
BRANCH   4  13
HETATM   13  C   UNL     1      -9.703   8.900  70.528  1.00  0.00    -0.203 C  
HETATM   14  H2  UNL     1     -11.524   8.964  69.504  1.00  0.00     0.000 HD 
HETATM   15  H1  UNL     1     -11.606   9.032  71.279  1.00  0.00     0.000 HD 
HETATM   16  O   UNL     1      -9.187   8.924  71.638  1.00  0.00    -0.253 OA 
HETATM   17  N   UNL     1     -11.066   8.971  70.416  1.00  0.00    -0.243 N  
ENDBRANCH   4  13
BRANCH  11  18
HETATM   18  O   UNL     1     -10.208  10.677  65.610  1.00  0.00    -0.255 OA 
BRANCH  18  19
HETATM   19  C   UNL     1     -10.401  11.898  66.234  1.00  0.00    -0.224 A  
HETATM   20  C   UNL     1     -11.591  12.018  66.965  1.00  0.00    -0.387 A  
HETATM   21  C   UNL     1     -11.247  14.412  67.286  1.00  0.00    -0.323 A  
HETATM   22  C   UNL     1     -12.005  13.257  67.495  1.00  0.00    -0.371 A  
HETATM   23  C   UNL     1     -10.054  14.285  66.574  1.00  0.00    -0.278 A  
HETATM   24 CL   UNL     1      -9.051  15.666  66.253  1.00  0.00    -0.352 Cl 
HETATM   25  C   UNL     1      -9.638  13.050  66.067  1.00  0.00    -0.175 A  
BRANCH  21  26
HETATM   26  N   UNL     1     -11.635  15.704  67.704  1.00  0.00    -0.171 N  
HETATM   27  H   UNL     1     -12.178  16.254  67.038  1.00  0.00     0.000 HD 
BRANCH  26  28
HETATM   28  C   UNL     1     -11.361  16.300  68.905  1.00  0.00    -0.317 C  
HETATM   29  O   UNL     1     -11.287  17.509  69.094  1.00  0.00     0.629 OA 
BRANCH  28  30
HETATM   30  N   UNL     1     -11.169  15.389  69.922  1.00  0.00    -0.273 N  
HETATM   31  H   UNL     1     -10.626  14.543  69.750  1.00  0.00     0.000 HD 
BRANCH  30  32
HETATM   32  C   UNL     1     -11.725  15.622  71.216  1.00  0.00    -0.422 C  
HETATM   33  C   UNL     1     -13.202  15.692  71.471  1.00  0.00    -0.555 C  
HETATM   34  C   UNL     1     -12.424  14.493  71.924  1.00  0.00    -0.406 C  
ENDBRANCH  30  32
ENDBRANCH  28  30
ENDBRANCH  26  28
ENDBRANCH  21  26
ENDBRANCH  18  19
ENDBRANCH  11  18
ENDBRANCH   2   3
TORSDOF 8
ENDMDL
MODEL      244
REMARK 921   NORMALIZED FREE ENERGY PREDICTED BY IDOCK:   -3.02 KCAL/MOL
REMARK 922        TOTAL FREE ENERGY PREDICTED BY IDOCK:   -5.97 KCAL/MOL
REMARK 923 INTER-LIGAND FREE ENERGY PREDICTED BY IDOCK:   -4.93 KCAL/MOL
REMARK 924 INTRA-LIGAND FREE ENERGY PREDICTED BY IDOCK:   -1.04 KCAL/MOL
REMARK 927      BINDING AFFINITY PREDICTED BY RF-SCORE:    0.00 PKD
ROOT
HETATM    1  C   UNL     1     -10.905  15.482  66.688  1.00  0.00    -0.285 C  
HETATM    2  O   UNL     1      -9.730  14.916  66.109  1.00  0.00    -0.271 OA 
ENDROOT
BRANCH   2   3
HETATM    3  C   UNL     1      -9.309  13.734  66.660  1.00  0.00    -0.264 A  
HETATM    4  C   UNL     1      -9.985  12.548  66.341  1.00  0.00    -0.262 A  
HETATM    5  N   UNL     1      -6.924  12.645  69.130  1.00  0.00    -0.064 NA 
HETATM    6  C   UNL     1      -9.593  11.340  66.960  1.00  0.00    -0.197 A  
HETATM    7  C   UNL     1      -7.896  12.525  68.224  1.00  0.00    -0.144 A  
HETATM    8  C   UNL     1      -8.544  11.306  67.918  1.00  0.00    -0.134 A  
HETATM    9  C   UNL     1      -6.612  11.565  69.854  1.00  0.00    -0.059 A  
HETATM   10  C   UNL     1      -8.281  13.695  67.603  1.00  0.00    -0.178 A  
HETATM   11  C   UNL     1      -8.111  10.153  68.636  1.00  0.00    -0.109 A  
HETATM   12  C   UNL     1      -7.208  10.336  69.677  1.00  0.00    -0.140 A  
BRANCH   4  13
HETATM   13  C   UNL     1     -11.066  12.552  65.312  1.00  0.00    -0.297 C  
HETATM   14  H2  UNL     1      -9.707  12.764  63.739  1.00  0.00     0.000 HD 
HETATM   15  H1  UNL     1     -11.427  12.679  63.298  1.00  0.00     0.000 HD 
HETATM   16  O   UNL     1     -12.254  12.462  65.591  1.00  0.00    -0.599 OA 
HETATM   17  N   UNL     1     -10.688  12.677  64.001  1.00  0.00    -0.398 N  
ENDBRANCH   4  13
BRANCH  11  18
HETATM   18  O   UNL     1      -8.723   8.949  68.333  1.00  0.00    -0.133 OA 
BRANCH  18  19
HETATM   19  C   UNL     1      -8.035   7.786  68.030  1.00  0.00    -0.122 A  
HETATM   20  C   UNL     1      -7.261   7.832  66.863  1.00  0.00    -0.089 A  
HETATM   21  C   UNL     1      -6.839   5.431  66.951  1.00  0.00    -0.063 A  
HETATM   22  C   UNL     1      -6.660   6.672  66.334  1.00  0.00    -0.044 A  
HETATM   23  C   UNL     1      -7.594   5.392  68.124  1.00  0.00    -0.081 A  
HETATM   24 CL   UNL     1      -7.882   3.894  68.955  1.00  0.00    -0.056 Cl 
HETATM   25  C   UNL     1      -8.172   6.550  68.654  1.00  0.00    -0.118 A  
BRANCH  21  26
HETATM   26  N   UNL     1      -6.346   4.209  66.439  1.00  0.00    -0.035 N  
HETATM   27  H   UNL     1      -5.622   3.746  66.989  1.00  0.00     0.000 HD 
BRANCH  26  28
HETATM   28  C   UNL     1      -6.735   3.580  65.289  1.00  0.00    -0.044 C  
HETATM   29  O   UNL     1      -6.003   3.334  64.336  1.00  0.00    -0.017 OA 
BRANCH  28  30
HETATM   30  N   UNL     1      -8.070   3.235  65.292  1.00  0.00    -0.093 N  
HETATM   31  H   UNL     1      -8.366   2.361  65.727  1.00  0.00     0.000 HD 
BRANCH  30  32
HETATM   32  C   UNL     1      -9.040   4.092  64.692  1.00  0.00    -0.146 C  
HETATM   33  C   UNL     1     -10.378   3.607  64.219  1.00  0.00    -0.231 C  
HETATM   34  C   UNL     1     -10.285   4.437  65.463  1.00  0.00    -0.260 C  
ENDBRANCH  30  32
ENDBRANCH  28  30
ENDBRANCH  26  28
ENDBRANCH  21  26
ENDBRANCH  18  19
ENDBRANCH  11  18
ENDBRANCH   2   3
TORSDOF 8
ENDMDL
MODEL      245
REMARK 921   NORMALIZED FREE ENERGY PREDICTED BY IDOCK:   -3.00 KCAL/MOL
REMARK 922        TOTAL FREE ENERGY PREDICTED BY IDOCK:   -5.94 KCAL/MOL
REMARK 923 INTER-LIGAND FREE ENERGY PREDICTED BY IDOCK:   -4.88 KCAL/MOL
REMARK 924 INTRA-LIGAND FREE ENERGY PREDICTED BY IDOCK:   -1.06 KCAL/MOL
REMARK 927      BINDING AFFINITY PREDICTED BY RF-SCORE:    0.00 PKD
ROOT
HETATM    1  C   UNL     1     -10.366  15.434  69.442  1.00  0.00    -0.258 C  
HETATM    2  O   UNL     1     -10.592  14.569  68.330  1.00  0.00    -0.233 OA 
ENDROOT
BRANCH   2   3
HETATM    3  C   UNL     1      -9.728  13.512  68.217  1.00  0.00    -0.224 A  
HETATM    4  C   UNL     1     -10.142  12.239  68.632  1.00  0.00    -0.153 A  
HETATM    5  N   UNL     1      -6.277  12.973  67.336  1.00  0.00    -0.279 NA 
HETATM    6  C   UNL     1      -9.229  11.161  68.578  1.00  0.00    -0.183 A  
HETATM    7  C   UNL     1      -7.508  12.649  67.736  1.00  0.00    -0.131 A  
HETATM    8  C   UNL     1      -7.892  11.348  68.134  1.00  0.00    -0.130 A  
HETATM    9  C   UNL     1      -5.333  12.030  67.404  1.00  0.00    -0.112 A  
HETATM   10  C   UNL     1      -8.414  13.689  67.783  1.00  0.00    -0.183 A  
HETATM   11  C   UNL     1      -6.881  10.342  68.092  1.00  0.00    -0.066 A  
HETATM   12  C   UNL     1      -5.578  10.740  67.819  1.00  0.00    -0.043 A  
BRANCH   4  13
HETATM   13  C   UNL     1     -11.551  12.011  69.070  1.00  0.00    -0.313 C  
HETATM   14  H2  UNL     1     -11.116  12.477  71.059  1.00  0.00     0.000 HD 
HETATM   15  H1  UNL     1     -12.800  12.040  70.694  1.00  0.00     0.000 HD 
HETATM   16  O   UNL     1     -12.439  11.660  68.304  1.00  0.00    -0.251 OA 
HETATM   17  N   UNL     1     -11.837  12.195  70.396  1.00  0.00    -0.269 N  
ENDBRANCH   4  13
BRANCH  11  18
HETATM   18  O   UNL     1      -7.248   9.059  68.460  1.00  0.00    -0.072 OA 
BRANCH  18  19
HETATM   19  C   UNL     1      -7.585   8.062  67.560  1.00  0.00    -0.101 A  
HETATM   20  C   UNL     1      -8.293   8.489  66.428  1.00  0.00    -0.115 A  
HETATM   21  C   UNL     1      -8.751   6.191  65.748  1.00  0.00    -0.145 A  
HETATM   22  C   UNL     1      -8.861   7.567  65.526  1.00  0.00    -0.012 A  
HETATM   23  C   UNL     1      -8.029   5.770  66.865  1.00  0.00    -0.102 A  
HETATM   24 CL   UNL     1      -7.850   4.081  67.231  1.00  0.00    -0.091 Cl 
HETATM   25  C   UNL     1      -7.453   6.690  67.747  1.00  0.00    -0.098 A  
BRANCH  21  26
HETATM   26  N   UNL     1      -9.364   5.204  64.944  1.00  0.00    -0.357 N  
HETATM   27  H   UNL     1     -10.216   4.783  65.313  1.00  0.00     0.000 HD 
BRANCH  26  28
HETATM   28  C   UNL     1      -8.939   4.752  63.725  1.00  0.00    -0.074 C  
HETATM   29  O   UNL     1      -7.798   4.863  63.288  1.00  0.00    -0.068 OA 
BRANCH  28  30
HETATM   30  N   UNL     1      -9.941   4.140  63.003  1.00  0.00    -0.283 N  
HETATM   31  H   UNL     1     -10.090   4.393  62.026  1.00  0.00     0.000 HD 
BRANCH  30  32
HETATM   32  C   UNL     1     -10.772   3.152  63.613  1.00  0.00    -0.234 C  
HETATM   33  C   UNL     1     -11.282   1.947  62.879  1.00  0.00    -0.263 C  
HETATM   34  C   UNL     1     -10.196   1.791  63.900  1.00  0.00    -0.042 C  
ENDBRANCH  30  32
ENDBRANCH  28  30
ENDBRANCH  26  28
ENDBRANCH  21  26
ENDBRANCH  18  19
ENDBRANCH  11  18
ENDBRANCH   2   3
TORSDOF 8
ENDMDL
MODEL      246
REMARK 921   NORMALIZED FREE ENERGY PREDICTED BY IDOCK:   -2.99 KCAL/MOL
REMARK 922        TOTAL FREE ENERGY PREDICTED BY IDOCK:   -5.93 KCAL/MOL
REMARK 923 INTER-LIGAND FREE ENERGY PREDICTED BY IDOCK:   -5.33 KCAL/MOL
REMARK 924 INTRA-LIGAND FREE ENERGY PREDICTED BY IDOCK:   -0.60 KCAL/MOL
REMARK 927      BINDING AFFINITY PREDICTED BY RF-SCORE:    0.00 PKD
ROOT
HETATM    1  C   UNL     1      -9.885  19.492  68.955  1.00  0.00    -0.445 C  
HETATM    2  O   UNL     1     -10.465  18.189  68.962  1.00  0.00    -0.249 OA 
ENDROOT
BRANCH   2   3
HETATM    3  C   UNL     1      -9.581  17.147  68.860  1.00  0.00    -0.237 A  
HETATM    4  C   UNL     1      -9.956  15.879  69.325  1.00  0.00    -0.254 A  
HETATM    5  N   UNL     1      -6.141  16.654  67.910  1.00  0.00    -0.121 NA 
HETATM    6  C   UNL     1      -9.021  14.820  69.281  1.00  0.00    -0.028 A  
HETATM    7  C   UNL     1      -7.354  16.317  68.350  1.00  0.00    -0.158 A  
HETATM    8  C   UNL     1      -7.699  15.021  68.798  1.00  0.00    -0.141 A  
HETATM    9  C   UNL     1      -5.175  15.734  67.983  1.00  0.00    -0.122 A  
HETATM   10  C   UNL     1      -8.281  17.338  68.388  1.00  0.00    -0.260 A  
HETATM   11  C   UNL     1      -6.668  14.036  68.762  1.00  0.00    -0.100 A  
HETATM   12  C   UNL     1      -5.381  14.453  68.444  1.00  0.00    -0.108 A  
BRANCH   4  13
HETATM   13  C   UNL     1     -11.348  15.635  69.804  1.00  0.00    -0.327 C  
HETATM   14  H2  UNL     1     -10.919  16.337  71.725  1.00  0.00     0.000 HD 
HETATM   15  H1  UNL     1     -12.583  15.784  71.434  1.00  0.00     0.000 HD 
HETATM   16  O   UNL     1     -12.225  15.161  69.094  1.00  0.00    -0.246 OA 
HETATM   17  N   UNL     1     -11.631  15.951  71.107  1.00  0.00    -0.401 N  
ENDBRANCH   4  13
BRANCH  11  18
HETATM   18  O   UNL     1      -6.997  12.758  69.179  1.00  0.00    -0.090 OA 
BRANCH  18  19
HETATM   19  C   UNL     1      -7.717  11.856  68.414  1.00  0.00    -0.131 A  
HETATM   20  C   UNL     1      -7.441  10.504  68.659  1.00  0.00    -0.095 A  
HETATM   21  C   UNL     1      -8.748   9.802  66.722  1.00  0.00    -0.131 A  
HETATM   22  C   UNL     1      -7.958   9.487  67.831  1.00  0.00    -0.098 A  
HETATM   23  C   UNL     1      -9.037  11.147  66.492  1.00  0.00    -0.182 A  
HETATM   24 CL   UNL     1      -9.999  11.637  65.132  1.00  0.00    -0.283 Cl 
HETATM   25  C   UNL     1      -8.536  12.151  67.328  1.00  0.00    -0.180 A  
BRANCH  21  26
HETATM   26  N   UNL     1      -9.230   8.853  65.794  1.00  0.00    -0.252 N  
HETATM   27  H   UNL     1     -10.097   9.090  65.311  1.00  0.00     0.000 HD 
BRANCH  26  28
HETATM   28  C   UNL     1      -8.662   7.651  65.471  1.00  0.00    -0.051 C  
HETATM   29  O   UNL     1      -9.005   6.563  65.923  1.00  0.00    -0.151 OA 
BRANCH  28  30
HETATM   30  N   UNL     1      -7.634   7.772  64.561  1.00  0.00    -0.101 N  
HETATM   31  H   UNL     1      -6.754   7.283  64.722  1.00  0.00     0.000 HD 
BRANCH  30  32
HETATM   32  C   UNL     1      -7.793   8.579  63.394  1.00  0.00    -0.150 C  
HETATM   33  C   UNL     1      -7.494  10.049  63.370  1.00  0.00    -0.139 C  
HETATM   34  C   UNL     1      -6.565   9.090  62.689  1.00  0.00    -0.094 C  
ENDBRANCH  30  32
ENDBRANCH  28  30
ENDBRANCH  26  28
ENDBRANCH  21  26
ENDBRANCH  18  19
ENDBRANCH  11  18
ENDBRANCH   2   3
TORSDOF 8
ENDMDL
MODEL      247
REMARK 921   NORMALIZED FREE ENERGY PREDICTED BY IDOCK:   -2.96 KCAL/MOL
REMARK 922        TOTAL FREE ENERGY PREDICTED BY IDOCK:   -5.88 KCAL/MOL
REMARK 923 INTER-LIGAND FREE ENERGY PREDICTED BY IDOCK:   -5.60 KCAL/MOL
REMARK 924 INTRA-LIGAND FREE ENERGY PREDICTED BY IDOCK:   -0.28 KCAL/MOL
REMARK 927      BINDING AFFINITY PREDICTED BY RF-SCORE:    0.00 PKD
ROOT
HETATM    1  C   UNL     1     -10.162   7.031  69.744  1.00  0.00    -0.201 C  
HETATM    2  O   UNL     1      -9.018   7.201  68.910  1.00  0.00    -0.131 OA 
ENDROOT
BRANCH   2   3
HETATM    3  C   UNL     1      -8.342   8.383  69.067  1.00  0.00    -0.119 A  
HETATM    4  C   UNL     1      -8.306   9.301  68.007  1.00  0.00    -0.120 A  
HETATM    5  N   UNL     1      -6.189   9.917  71.513  1.00  0.00    -0.305 NA 
HETATM    6  C   UNL     1      -7.554  10.489  68.145  1.00  0.00    -0.091 A  
HETATM    7  C   UNL     1      -6.865   9.807  70.369  1.00  0.00    -0.135 A  
HETATM    8  C   UNL     1      -6.814  10.762  69.327  1.00  0.00    -0.092 A  
HETATM    9  C   UNL     1      -5.346  10.946  71.642  1.00  0.00     0.110 A  
HETATM   10  C   UNL     1      -7.613   8.657  70.224  1.00  0.00    -0.074 A  
HETATM   11  C   UNL     1      -5.984  11.902  69.544  1.00  0.00    -0.098 A  
HETATM   12  C   UNL     1      -5.178  11.913  70.677  1.00  0.00    -0.134 A  
BRANCH   4  13
HETATM   13  C   UNL     1      -9.103   9.053  66.770  1.00  0.00    -0.145 C  
HETATM   14  H2  UNL     1      -7.444   8.333  65.723  1.00  0.00     0.000 HD 
HETATM   15  H1  UNL     1      -8.987   8.369  64.841  1.00  0.00     0.000 HD 
HETATM   16  O   UNL     1     -10.299   9.299  66.686  1.00  0.00    -0.259 OA 
HETATM   17  N   UNL     1      -8.442   8.538  65.686  1.00  0.00    -0.146 N  
ENDBRANCH   4  13
BRANCH  11  18
HETATM   18  O   UNL     1      -5.941  12.855  68.542  1.00  0.00    -0.061 OA 
BRANCH  18  19
HETATM   19  C   UNL     1      -7.038  13.590  68.124  1.00  0.00    -0.117 A  
HETATM   20  C   UNL     1      -6.742  14.777  67.441  1.00  0.00    -0.060 A  
HETATM   21  C   UNL     1      -9.075  15.490  67.503  1.00  0.00    -0.193 A  
HETATM   22  C   UNL     1      -7.748  15.712  67.124  1.00  0.00    -0.258 A  
HETATM   23  C   UNL     1      -9.369  14.298  68.166  1.00  0.00    -0.206 A  
HETATM   24 CL   UNL     1     -10.986  13.938  68.688  1.00  0.00    -0.269 Cl 
HETATM   25  C   UNL     1      -8.369  13.365  68.462  1.00  0.00    -0.085 A  
BRANCH  21  26
HETATM   26  N   UNL     1     -10.125  16.413  67.303  1.00  0.00    -0.264 N  
HETATM   27  H   UNL     1     -10.711  16.616  68.113  1.00  0.00     0.000 HD 
BRANCH  26  28
HETATM   28  C   UNL     1     -10.442  17.065  66.143  1.00  0.00    -0.271 C  
HETATM   29  O   UNL     1     -10.595  18.276  66.032  1.00  0.00    -0.419 OA 
BRANCH  28  30
HETATM   30  N   UNL     1     -10.580  16.210  65.070  1.00  0.00    -0.350 N  
HETATM   31  H   UNL     1     -10.095  16.412  64.195  1.00  0.00     0.000 HD 
BRANCH  30  32
HETATM   32  C   UNL     1     -11.396  15.045  65.175  1.00  0.00    -0.372 C  
HETATM   33  C   UNL     1     -11.953  14.327  63.980  1.00  0.00    -0.328 C  
HETATM   34  C   UNL     1     -10.827  13.715  64.758  1.00  0.00    -0.402 C  
ENDBRANCH  30  32
ENDBRANCH  28  30
ENDBRANCH  26  28
ENDBRANCH  21  26
ENDBRANCH  18  19
ENDBRANCH  11  18
ENDBRANCH   2   3
TORSDOF 8
ENDMDL
MODEL      248
REMARK 921   NORMALIZED FREE ENERGY PREDICTED BY IDOCK:   -2.91 KCAL/MOL
REMARK 922        TOTAL FREE ENERGY PREDICTED BY IDOCK:   -5.80 KCAL/MOL
REMARK 923 INTER-LIGAND FREE ENERGY PREDICTED BY IDOCK:   -5.35 KCAL/MOL
REMARK 924 INTRA-LIGAND FREE ENERGY PREDICTED BY IDOCK:   -0.45 KCAL/MOL
REMARK 927      BINDING AFFINITY PREDICTED BY RF-SCORE:    0.00 PKD
ROOT
HETATM    1  C   UNL     1      -7.352  18.454  65.609  1.00  0.00    -0.047 C  
HETATM    2  O   UNL     1      -8.315  18.171  66.623  1.00  0.00    -0.246 OA 
ENDROOT
BRANCH   2   3
HETATM    3  C   UNL     1      -8.801  16.890  66.636  1.00  0.00    -0.246 A  
HETATM    4  C   UNL     1      -8.018  15.863  67.183  1.00  0.00    -0.243 A  
HETATM    5  N   UNL     1     -11.647  15.105  65.338  1.00  0.00    -0.236 NA 
HETATM    6  C   UNL     1      -8.490  14.532  67.138  1.00  0.00    -0.234 A  
HETATM    7  C   UNL     1     -10.487  15.269  65.974  1.00  0.00    -0.317 A  
HETATM    8  C   UNL     1      -9.732  14.209  66.527  1.00  0.00    -0.307 A  
HETATM    9  C   UNL     1     -12.072  13.854  65.133  1.00  0.00    -0.403 A  
HETATM   10  C   UNL     1     -10.018  16.566  66.036  1.00  0.00    -0.359 A  
HETATM   11  C   UNL     1     -10.270  12.897  66.381  1.00  0.00    -0.267 A  
HETATM   12  C   UNL     1     -11.399  12.741  65.585  1.00  0.00    -0.354 A  
BRANCH   4  13
HETATM   13  C   UNL     1      -6.727  16.182  67.862  1.00  0.00    -0.137 C  
HETATM   14  H2  UNL     1      -7.688  17.013  69.521  1.00  0.00     0.000 HD 
HETATM   15  H1  UNL     1      -5.911  17.006  69.552  1.00  0.00     0.000 HD 
HETATM   16  O   UNL     1      -5.634  15.938  67.367  1.00  0.00    -0.251 OA 
HETATM   17  N   UNL     1      -6.792  16.789  69.088  1.00  0.00    -0.218 N  
ENDBRANCH   4  13
BRANCH  11  18
HETATM   18  O   UNL     1      -9.552  11.851  66.935  1.00  0.00    -0.193 OA 
BRANCH  18  19
HETATM   19  C   UNL     1      -8.999  10.817  66.199  1.00  0.00    -0.177 A  
HETATM   20  C   UNL     1      -8.465   9.762  66.951  1.00  0.00    -0.120 A  
HETATM   21  C   UNL     1      -7.450   8.758  64.973  1.00  0.00    -0.097 A  
HETATM   22  C   UNL     1      -7.709   8.738  66.346  1.00  0.00    -0.099 A  
HETATM   23  C   UNL     1      -7.998   9.800  64.224  1.00  0.00    -0.143 A  
HETATM   24 CL   UNL     1      -7.720   9.917  62.514  1.00  0.00    -0.125 Cl 
HETATM   25  C   UNL     1      -8.763  10.803  64.827  1.00  0.00    -0.118 A  
BRANCH  21  26
HETATM   26  N   UNL     1      -6.630   7.822  64.304  1.00  0.00    -0.056 N  
HETATM   27  H   UNL     1      -6.371   8.049  63.344  1.00  0.00     0.000 HD 
BRANCH  26  28
HETATM   28  C   UNL     1      -6.144   6.644  64.803  1.00  0.00    -0.035 C  
HETATM   29  O   UNL     1      -5.153   6.535  65.518  1.00  0.00    -0.016 OA 
BRANCH  28  30
HETATM   30  N   UNL     1      -6.891   5.552  64.418  1.00  0.00    -0.046 N  
HETATM   31  H   UNL     1      -6.820   5.200  63.463  1.00  0.00     0.000 HD 
BRANCH  30  32
HETATM   32  C   UNL     1      -7.762   4.908  65.348  1.00  0.00    -0.086 C  
HETATM   33  C   UNL     1      -7.268   4.188  66.568  1.00  0.00    -0.075 C  
HETATM   34  C   UNL     1      -7.951   5.515  66.712  1.00  0.00    -0.101 C  
ENDBRANCH  30  32
ENDBRANCH  28  30
ENDBRANCH  26  28
ENDBRANCH  21  26
ENDBRANCH  18  19
ENDBRANCH  11  18
ENDBRANCH   2   3
TORSDOF 8
ENDMDL
MODEL      249
REMARK 921   NORMALIZED FREE ENERGY PREDICTED BY IDOCK:   -2.91 KCAL/MOL
REMARK 922        TOTAL FREE ENERGY PREDICTED BY IDOCK:   -5.80 KCAL/MOL
REMARK 923 INTER-LIGAND FREE ENERGY PREDICTED BY IDOCK:   -4.81 KCAL/MOL
REMARK 924 INTRA-LIGAND FREE ENERGY PREDICTED BY IDOCK:   -0.99 KCAL/MOL
REMARK 927      BINDING AFFINITY PREDICTED BY RF-SCORE:    0.00 PKD
ROOT
HETATM    1  C   UNL     1     -12.556  13.478  64.120  1.00  0.00    -0.122 C  
HETATM    2  O   UNL     1     -11.161  13.461  63.820  1.00  0.00    -0.289 OA 
ENDROOT
BRANCH   2   3
HETATM    3  C   UNL     1     -10.484  12.338  64.218  1.00  0.00    -0.346 A  
HETATM    4  C   UNL     1      -9.960  12.274  65.516  1.00  0.00    -0.264 A  
HETATM    5  N   UNL     1      -9.282   9.285  62.731  1.00  0.00    -0.010 NA 
HETATM    6  C   UNL     1      -9.205  11.145  65.905  1.00  0.00    -0.225 A  
HETATM    7  C   UNL     1      -9.480  10.188  63.692  1.00  0.00    -0.267 A  
HETATM    8  C   UNL     1      -8.946  10.082  64.997  1.00  0.00    -0.234 A  
HETATM    9  C   UNL     1      -8.455   8.269  62.993  1.00  0.00     0.006 A  
HETATM   10  C   UNL     1     -10.225  11.292  63.331  1.00  0.00    -0.454 A  
HETATM   11  C   UNL     1      -8.154   8.928  65.272  1.00  0.00    -0.126 A  
HETATM   12  C   UNL     1      -7.841   8.087  64.211  1.00  0.00    -0.137 A  
BRANCH   4  13
HETATM   13  C   UNL     1     -10.249  13.361  66.498  1.00  0.00    -0.282 C  
HETATM   14  H2  UNL     1     -11.977  12.414  67.193  1.00  0.00     0.000 HD 
HETATM   15  H1  UNL     1     -11.563  13.968  67.949  1.00  0.00     0.000 HD 
HETATM   16  O   UNL     1      -9.544  14.355  66.620  1.00  0.00    -0.258 OA 
HETATM   17  N   UNL     1     -11.366  13.226  67.279  1.00  0.00    -0.299 N  
ENDBRANCH   4  13
BRANCH  11  18
HETATM   18  O   UNL     1      -7.641   8.801  66.552  1.00  0.00    -0.093 OA 
BRANCH  18  19
HETATM   19  C   UNL     1      -7.849   7.698  67.362  1.00  0.00    -0.118 A  
HETATM   20  C   UNL     1      -6.759   6.825  67.480  1.00  0.00    -0.070 A  
HETATM   21  C   UNL     1      -8.115   5.157  68.634  1.00  0.00    -0.086 A  
HETATM   22  C   UNL     1      -6.885   5.574  68.118  1.00  0.00    -0.060 A  
HETATM   23  C   UNL     1      -9.194   6.036  68.531  1.00  0.00    -0.114 A  
HETATM   24 CL   UNL     1     -10.765   5.601  69.131  1.00  0.00    -0.346 Cl 
HETATM   25  C   UNL     1      -9.057   7.284  67.914  1.00  0.00    -0.132 A  
BRANCH  21  26
HETATM   26  N   UNL     1      -8.349   3.887  69.206  1.00  0.00    -0.060 N  
HETATM   27  H   UNL     1      -8.327   3.837  70.225  1.00  0.00     0.000 HD 
BRANCH  26  28
HETATM   28  C   UNL     1      -8.601   2.716  68.544  1.00  0.00    -0.079 C  
HETATM   29  O   UNL     1      -9.710   2.326  68.196  1.00  0.00    -0.145 OA 
BRANCH  28  30
HETATM   30  N   UNL     1      -7.459   1.985  68.296  1.00  0.00    -0.050 N  
HETATM   31  H   UNL     1      -6.880   1.669  69.073  1.00  0.00     0.000 HD 
BRANCH  30  32
HETATM   32  C   UNL     1      -7.081   1.669  66.956  1.00  0.00    -0.046 C  
HETATM   33  C   UNL     1      -7.847   2.143  65.757  1.00  0.00    -0.073 C  
HETATM   34  C   UNL     1      -6.519   2.757  66.081  1.00  0.00    -0.028 C  
ENDBRANCH  30  32
ENDBRANCH  28  30
ENDBRANCH  26  28
ENDBRANCH  21  26
ENDBRANCH  18  19
ENDBRANCH  11  18
ENDBRANCH   2   3
TORSDOF 8
ENDMDL
MODEL      250
REMARK 921   NORMALIZED FREE ENERGY PREDICTED BY IDOCK:   -2.87 KCAL/MOL
REMARK 922        TOTAL FREE ENERGY PREDICTED BY IDOCK:   -5.75 KCAL/MOL
REMARK 923 INTER-LIGAND FREE ENERGY PREDICTED BY IDOCK:   -5.14 KCAL/MOL
REMARK 924 INTRA-LIGAND FREE ENERGY PREDICTED BY IDOCK:   -0.61 KCAL/MOL
REMARK 927      BINDING AFFINITY PREDICTED BY RF-SCORE:    0.00 PKD
ROOT
HETATM    1  C   UNL     1      -7.565   3.137  63.135  1.00  0.00    -0.062 C  
HETATM    2  O   UNL     1      -8.516   4.199  63.117  1.00  0.00    -0.087 OA 
ENDROOT
BRANCH   2   3
HETATM    3  C   UNL     1      -8.635   4.907  64.284  1.00  0.00    -0.141 A  
HETATM    4  C   UNL     1      -8.119   6.209  64.355  1.00  0.00    -0.102 A  
HETATM    5  N   UNL     1      -9.744   4.312  67.660  1.00  0.00    -0.160 NA 
HETATM    6  C   UNL     1      -8.182   6.913  65.578  1.00  0.00    -0.135 A  
HETATM    7  C   UNL     1      -9.234   5.002  66.638  1.00  0.00    -0.129 A  
HETATM    8  C   UNL     1      -8.736   6.321  66.745  1.00  0.00    -0.117 A  
HETATM    9  C   UNL     1      -9.695   4.871  68.873  1.00  0.00    -0.173 A  
HETATM   10  C   UNL     1      -9.176   4.330  65.434  1.00  0.00    -0.152 A  
HETATM   11  C   UNL     1      -8.798   6.925  68.036  1.00  0.00    -0.123 A  
HETATM   12  C   UNL     1      -9.191   6.131  69.107  1.00  0.00    -0.129 A  
BRANCH   4  13
HETATM   13  C   UNL     1      -7.565   6.865  63.135  1.00  0.00    -0.096 C  
HETATM   14  H2  UNL     1      -9.338   7.909  62.767  1.00  0.00     0.000 HD 
HETATM   15  H1  UNL     1      -8.006   8.173  61.620  1.00  0.00     0.000 HD 
HETATM   16  O   UNL     1      -6.431   6.658  62.722  1.00  0.00    -0.037 OA 
HETATM   17  N   UNL     1      -8.385   7.725  62.453  1.00  0.00    -0.126 N  
ENDBRANCH   4  13
BRANCH  11  18
HETATM   18  O   UNL     1      -8.333   8.223  68.151  1.00  0.00    -0.126 OA 
BRANCH  18  19
HETATM   19  C   UNL     1      -9.085   9.345  67.847  1.00  0.00    -0.129 A  
HETATM   20  C   UNL     1      -8.446  10.297  67.042  1.00  0.00    -0.129 A  
HETATM   21  C   UNL     1     -10.237  11.916  67.393  1.00  0.00    -0.196 A  
HETATM   22  C   UNL     1      -9.018  11.564  66.808  1.00  0.00    -0.181 A  
HETATM   23  C   UNL     1     -10.880  10.958  68.179  1.00  0.00    -0.234 A  
HETATM   24 CL   UNL     1     -12.392  11.307  68.958  1.00  0.00    -0.198 Cl 
HETATM   25  C   UNL     1     -10.316   9.696  68.392  1.00  0.00    -0.233 A  
BRANCH  21  26
HETATM   26  N   UNL     1     -10.835  13.191  67.282  1.00  0.00    -0.254 N  
HETATM   27  H   UNL     1     -11.738  13.311  67.740  1.00  0.00     0.000 HD 
BRANCH  26  28
HETATM   28  C   UNL     1     -10.334  14.284  66.629  1.00  0.00    -0.279 C  
HETATM   29  O   UNL     1     -10.060  14.328  65.434  1.00  0.00    -0.346 OA 
BRANCH  28  30
HETATM   30  N   UNL     1     -10.156  15.369  67.459  1.00  0.00    -0.232 N  
HETATM   31  H   UNL     1     -10.127  16.310  67.066  1.00  0.00     0.000 HD 
BRANCH  30  32
HETATM   32  C   UNL     1     -10.013  15.186  68.868  1.00  0.00    -0.227 C  
HETATM   33  C   UNL     1     -10.597  16.129  69.878  1.00  0.00    -0.302 C  
HETATM   34  C   UNL     1     -11.216  14.779  69.676  1.00  0.00    -0.305 C  
ENDBRANCH  30  32
ENDBRANCH  28  30
ENDBRANCH  26  28
ENDBRANCH  21  26
ENDBRANCH  18  19
ENDBRANCH  11  18
ENDBRANCH   2   3
TORSDOF 8
ENDMDL
MODEL      251
REMARK 921   NORMALIZED FREE ENERGY PREDICTED BY IDOCK:   -2.75 KCAL/MOL
REMARK 922        TOTAL FREE ENERGY PREDICTED BY IDOCK:   -5.57 KCAL/MOL
REMARK 923 INTER-LIGAND FREE ENERGY PREDICTED BY IDOCK:   -6.46 KCAL/MOL
REMARK 924 INTRA-LIGAND FREE ENERGY PREDICTED BY IDOCK:    0.88 KCAL/MOL
REMARK 927      BINDING AFFINITY PREDICTED BY RF-SCORE:    0.00 PKD
ROOT
HETATM    1  C   UNL     1      -7.465   8.855  62.529  1.00  0.00    -0.100 C  
HETATM    2  O   UNL     1      -8.665   8.501  63.213  1.00  0.00    -0.034 OA 
ENDROOT
BRANCH   2   3
HETATM    3  C   UNL     1      -8.524   8.219  64.547  1.00  0.00    -0.022 A  
HETATM    4  C   UNL     1      -8.672   9.248  65.487  1.00  0.00    -0.204 A  
HETATM    5  N   UNL     1      -7.533   5.422  66.589  1.00  0.00    -0.086 NA 
HETATM    6  C   UNL     1      -8.461   8.972  66.857  1.00  0.00    -0.120 A  
HETATM    7  C   UNL     1      -7.925   6.668  66.320  1.00  0.00    -0.108 A  
HETATM    8  C   UNL     1      -8.078   7.676  67.298  1.00  0.00    -0.119 A  
HETATM    9  C   UNL     1      -7.176   5.140  67.846  1.00  0.00    -0.067 A  
HETATM   10  C   UNL     1      -8.146   6.950  64.987  1.00  0.00    -0.117 A  
HETATM   11  C   UNL     1      -7.790   7.309  68.646  1.00  0.00    -0.122 A  
HETATM   12  C   UNL     1      -7.239   6.053  68.874  1.00  0.00    -0.083 A  
BRANCH   4  13
HETATM   13  C   UNL     1      -9.109  10.608  65.051  1.00  0.00    -0.202 C  
HETATM   14  H2  UNL     1      -7.977  11.556  66.531  1.00  0.00     0.000 HD 
HETATM   15  H1  UNL     1      -8.915  12.609  65.448  1.00  0.00     0.000 HD 
HETATM   16  O   UNL     1      -9.884  10.794  64.123  1.00  0.00    -0.270 OA 
HETATM   17  N   UNL     1      -8.617  11.681  65.746  1.00  0.00     0.039 N  
ENDBRANCH   4  13
BRANCH  11  18
HETATM   18  O   UNL     1      -7.955   8.281  69.618  1.00  0.00    -0.106 OA 
BRANCH  18  19
HETATM   19  C   UNL     1      -9.089   9.064  69.744  1.00  0.00    -0.159 A  
HETATM   20  C   UNL     1      -9.034  10.309  69.103  1.00  0.00    -0.187 A  
HETATM   21  C   UNL     1     -11.107  11.038  70.164  1.00  0.00    -0.097 A  
HETATM   22  C   UNL     1     -10.035  11.282  69.301  1.00  0.00     0.022 A  
HETATM   23  C   UNL     1     -11.169   9.790  70.786  1.00  0.00    -0.348 A  
HETATM   24 CL   UNL     1     -12.455   9.400  71.885  1.00  0.00    -0.455 Cl 
HETATM   25  C   UNL     1     -10.182   8.823  70.571  1.00  0.00    -0.240 A  
BRANCH  21  26
HETATM   26  N   UNL     1     -12.102  11.988  70.485  1.00  0.00    -0.448 N  
HETATM   27  H   UNL     1     -12.920  11.638  70.984  1.00  0.00     0.000 HD 
BRANCH  26  28
HETATM   28  C   UNL     1     -12.089  13.326  70.201  1.00  0.00    -0.333 C  
HETATM   29  O   UNL     1     -12.106  13.809  69.074  1.00  0.00    -0.346 OA 
BRANCH  28  30
HETATM   30  N   UNL     1     -12.051  14.113  71.333  1.00  0.00    -0.395 N  
HETATM   31  H   UNL     1     -11.422  13.871  72.099  1.00  0.00     0.000 HD 
BRANCH  30  32
HETATM   32  C   UNL     1     -12.887  15.265  71.440  1.00  0.00    -0.415 C  
HETATM   33  C   UNL     1     -14.335  15.191  71.826  1.00  0.00    -0.696 C  
HETATM   34  C   UNL     1     -13.331  15.719  72.805  1.00  0.00    -0.636 C  
ENDBRANCH  30  32
ENDBRANCH  28  30
ENDBRANCH  26  28
ENDBRANCH  21  26
ENDBRANCH  18  19
ENDBRANCH  11  18
ENDBRANCH   2   3
TORSDOF 8
ENDMDL
MODEL      252
REMARK 921   NORMALIZED FREE ENERGY PREDICTED BY IDOCK:   -2.60 KCAL/MOL
REMARK 922        TOTAL FREE ENERGY PREDICTED BY IDOCK:   -5.36 KCAL/MOL
REMARK 923 INTER-LIGAND FREE ENERGY PREDICTED BY IDOCK:   -4.07 KCAL/MOL
REMARK 924 INTRA-LIGAND FREE ENERGY PREDICTED BY IDOCK:   -1.29 KCAL/MOL
REMARK 927      BINDING AFFINITY PREDICTED BY RF-SCORE:    0.00 PKD
ROOT
HETATM    1  C   UNL     1     -12.033  15.691  69.183  1.00  0.00    -0.310 C  
HETATM    2  O   UNL     1     -11.529  14.390  69.482  1.00  0.00    -0.261 OA 
ENDROOT
BRANCH   2   3
HETATM    3  C   UNL     1     -10.291  14.104  68.971  1.00  0.00    -0.150 A  
HETATM    4  C   UNL     1     -10.139  13.011  68.105  1.00  0.00    -0.237 A  
HETATM    5  N   UNL     1      -6.900  15.241  69.406  1.00  0.00    -0.157 NA 
HETATM    6  C   UNL     1      -8.851  12.676  67.631  1.00  0.00    -0.184 A  
HETATM    7  C   UNL     1      -7.892  14.495  68.918  1.00  0.00    -0.134 A  
HETATM    8  C   UNL     1      -7.702  13.408  68.034  1.00  0.00    -0.147 A  
HETATM    9  C   UNL     1      -5.648  14.880  69.111  1.00  0.00    -0.096 A  
HETATM   10  C   UNL     1      -9.158  14.818  69.364  1.00  0.00     0.039 A  
HETATM   11  C   UNL     1      -6.357  13.118  67.657  1.00  0.00    -0.160 A  
HETATM   12  C   UNL     1      -5.338  13.813  68.298  1.00  0.00    -0.109 A  
BRANCH   4  13
HETATM   13  C   UNL     1     -11.336  12.249  67.641  1.00  0.00    -0.311 C  
HETATM   14  H2  UNL     1     -11.601  13.482  65.975  1.00  0.00     0.000 HD 
HETATM   15  H1  UNL     1     -12.765  12.154  66.175  1.00  0.00     0.000 HD 
HETATM   16  O   UNL     1     -11.788  11.284  68.243  1.00  0.00    -0.516 OA 
HETATM   17  N   UNL     1     -11.948  12.675  66.492  1.00  0.00    -0.386 N  
ENDBRANCH   4  13
BRANCH  11  18
HETATM   18  O   UNL     1      -6.157  12.070  66.775  1.00  0.00    -0.165 OA 
BRANCH  18  19
HETATM   19  C   UNL     1      -6.199  10.735  67.139  1.00  0.00    -0.065 A  
HETATM   20  C   UNL     1      -6.932   9.901  66.283  1.00  0.00    -0.100 A  
HETATM   21  C   UNL     1      -6.789   8.034  67.846  1.00  0.00    -0.073 A  
HETATM   22  C   UNL     1      -7.215   8.564  66.625  1.00  0.00    -0.074 A  
HETATM   23  C   UNL     1      -6.043   8.860  68.688  1.00  0.00    -0.045 A  
HETATM   24 CL   UNL     1      -5.481   8.295  70.231  1.00  0.00    -0.022 Cl 
HETATM   25  C   UNL     1      -5.750  10.181  68.334  1.00  0.00    -0.041 A  
BRANCH  21  26
HETATM   26  N   UNL     1      -7.104   6.735  68.304  1.00  0.00    -0.083 N  
HETATM   27  H   UNL     1      -7.787   6.673  69.060  1.00  0.00     0.000 HD 
BRANCH  26  28
HETATM   28  C   UNL     1      -6.596   5.551  67.844  1.00  0.00    -0.053 C  
HETATM   29  O   UNL     1      -5.465   5.133  68.069  1.00  0.00    -0.010 OA 
BRANCH  28  30
HETATM   30  N   UNL     1      -7.497   4.844  67.077  1.00  0.00    -0.085 N  
HETATM   31  H   UNL     1      -8.243   4.315  67.530  1.00  0.00     0.000 HD 
BRANCH  30  32
HETATM   32  C   UNL     1      -7.394   4.846  65.654  1.00  0.00    -0.077 C  
HETATM   33  C   UNL     1      -6.225   5.436  64.920  1.00  0.00    -0.029 C  
HETATM   34  C   UNL     1      -6.383   3.947  64.994  1.00  0.00    -0.028 C  
ENDBRANCH  30  32
ENDBRANCH  28  30
ENDBRANCH  26  28
ENDBRANCH  21  26
ENDBRANCH  18  19
ENDBRANCH  11  18
ENDBRANCH   2   3
TORSDOF 8
ENDMDL
MODEL      253
REMARK 921   NORMALIZED FREE ENERGY PREDICTED BY IDOCK:   -2.57 KCAL/MOL
REMARK 922        TOTAL FREE ENERGY PREDICTED BY IDOCK:   -5.30 KCAL/MOL
REMARK 923 INTER-LIGAND FREE ENERGY PREDICTED BY IDOCK:   -5.84 KCAL/MOL
REMARK 924 INTRA-LIGAND FREE ENERGY PREDICTED BY IDOCK:    0.54 KCAL/MOL
REMARK 927      BINDING AFFINITY PREDICTED BY RF-SCORE:    0.00 PKD
ROOT
HETATM    1  C   UNL     1      -5.142   6.935  74.501  1.00  0.00    -0.042 C  
HETATM    2  O   UNL     1      -6.478   6.435  74.504  1.00  0.00    -0.073 OA 
ENDROOT
BRANCH   2   3
HETATM    3  C   UNL     1      -7.020   6.189  73.271  1.00  0.00    -0.080 A  
HETATM    4  C   UNL     1      -7.076   7.222  72.325  1.00  0.00    -0.067 A  
HETATM    5  N   UNL     1      -8.766   3.508  71.615  1.00  0.00    -0.087 NA 
HETATM    6  C   UNL     1      -7.695   6.987  71.077  1.00  0.00    -0.091 A  
HETATM    7  C   UNL     1      -8.221   4.718  71.754  1.00  0.00    -0.109 A  
HETATM    8  C   UNL     1      -8.285   5.731  70.770  1.00  0.00    -0.123 A  
HETATM    9  C   UNL     1      -9.492   3.276  70.517  1.00  0.00    -0.172 A  
HETATM   10  C   UNL     1      -7.603   4.959  72.964  1.00  0.00    -0.092 A  
HETATM   11  C   UNL     1      -8.978   5.410  69.565  1.00  0.00    -0.105 A  
HETATM   12  C   UNL     1      -9.663   4.202  69.512  1.00  0.00    -0.254 A  
BRANCH   4  13
HETATM   13  C   UNL     1      -6.432   8.539  72.610  1.00  0.00    -0.082 C  
HETATM   14  H2  UNL     1      -5.065   8.324  71.044  1.00  0.00     0.000 HD 
HETATM   15  H1  UNL     1      -4.949   9.817  72.002  1.00  0.00     0.000 HD 
HETATM   16  O   UNL     1      -6.787   9.271  73.525  1.00  0.00    -0.176 OA 
HETATM   17  N   UNL     1      -5.389   8.918  71.808  1.00  0.00    -0.042 N  
ENDBRANCH   4  13
BRANCH  11  18
HETATM   18  O   UNL     1      -9.031   6.385  68.585  1.00  0.00    -0.126 OA 
BRANCH  18  19
HETATM   19  C   UNL     1      -9.601   7.634  68.765  1.00  0.00    -0.153 A  
HETATM   20  C   UNL     1      -8.880   8.708  68.226  1.00  0.00    -0.142 A  
HETATM   21  C   UNL     1     -10.324  10.337  69.327  1.00  0.00    -0.231 A  
HETATM   22  C   UNL     1      -9.242  10.044  68.493  1.00  0.00    -0.141 A  
HETATM   23  C   UNL     1     -11.052   9.265  69.847  1.00  0.00    -0.181 A  
HETATM   24 CL   UNL     1     -12.405   9.530  70.904  1.00  0.00    -0.331 Cl 
HETATM   25  C   UNL     1     -10.699   7.942  69.563  1.00  0.00    -0.195 A  
BRANCH  21  26
HETATM   26  N   UNL     1     -10.698  11.642  69.717  1.00  0.00    -0.414 N  
HETATM   27  H   UNL     1     -10.366  11.957  70.628  1.00  0.00     0.000 HD 
BRANCH  26  28
HETATM   28  C   UNL     1     -11.458  12.530  69.005  1.00  0.00    -0.304 C  
HETATM   29  O   UNL     1     -12.024  12.285  67.945  1.00  0.00    -0.452 OA 
BRANCH  28  30
HETATM   30  N   UNL     1     -11.533  13.770  69.604  1.00  0.00    -0.376 N  
HETATM   31  H   UNL     1     -10.783  14.447  69.463  1.00  0.00     0.000 HD 
BRANCH  30  32
HETATM   32  C   UNL     1     -12.653  14.112  70.419  1.00  0.00    -0.332 C  
HETATM   33  C   UNL     1     -13.069  13.307  71.615  1.00  0.00    -0.453 C  
HETATM   34  C   UNL     1     -12.410  14.639  71.808  1.00  0.00    -0.415 C  
ENDBRANCH  30  32
ENDBRANCH  28  30
ENDBRANCH  26  28
ENDBRANCH  21  26
ENDBRANCH  18  19
ENDBRANCH  11  18
ENDBRANCH   2   3
TORSDOF 8
ENDMDL
MODEL      254
REMARK 921   NORMALIZED FREE ENERGY PREDICTED BY IDOCK:   -2.51 KCAL/MOL
REMARK 922        TOTAL FREE ENERGY PREDICTED BY IDOCK:   -5.22 KCAL/MOL
REMARK 923 INTER-LIGAND FREE ENERGY PREDICTED BY IDOCK:   -4.91 KCAL/MOL
REMARK 924 INTRA-LIGAND FREE ENERGY PREDICTED BY IDOCK:   -0.31 KCAL/MOL
REMARK 927      BINDING AFFINITY PREDICTED BY RF-SCORE:    0.00 PKD
ROOT
HETATM    1  C   UNL     1      -5.737  13.926  73.169  1.00  0.00     0.137 C  
HETATM    2  O   UNL     1      -5.139  13.659  71.902  1.00  0.00    -0.146 OA 
ENDROOT
BRANCH   2   3
HETATM    3  C   UNL     1      -5.982  13.721  70.824  1.00  0.00    -0.151 A  
HETATM    4  C   UNL     1      -6.139  12.592  70.008  1.00  0.00    -0.117 A  
HETATM    5  N   UNL     1      -7.927  16.216  69.102  1.00  0.00    -0.236 NA 
HETATM    6  C   UNL     1      -6.957  12.676  68.859  1.00  0.00    -0.086 A  
HETATM    7  C   UNL     1      -7.412  15.009  69.340  1.00  0.00    -0.196 A  
HETATM    8  C   UNL     1      -7.605  13.889  68.500  1.00  0.00    -0.134 A  
HETATM    9  C   UNL     1      -8.588  16.395  67.954  1.00  0.00    -0.175 A  
HETATM   10  C   UNL     1      -6.620  14.909  70.466  1.00  0.00     0.063 A  
HETATM   11  C   UNL     1      -8.405  14.092  67.337  1.00  0.00    -0.196 A  
HETATM   12  C   UNL     1      -8.799  15.391  67.037  1.00  0.00    -0.252 A  
BRANCH   4  13
HETATM   13  C   UNL     1      -5.498  11.297  70.383  1.00  0.00    -0.121 C  
HETATM   14  H2  UNL     1      -5.342  10.681  68.392  1.00  0.00     0.000 HD 
HETATM   15  H1  UNL     1      -4.723   9.558  69.623  1.00  0.00     0.000 HD 
HETATM   16  O   UNL     1      -5.277  10.973  71.542  1.00  0.00    -0.234 OA 
HETATM   17  N   UNL     1      -5.162  10.442  69.367  1.00  0.00    -0.038 N  
ENDBRANCH   4  13
BRANCH  11  18
HETATM   18  O   UNL     1      -8.620  12.998  66.515  1.00  0.00    -0.035 OA 
BRANCH  18  19
HETATM   19  C   UNL     1      -9.143  11.793  66.952  1.00  0.00    -0.192 A  
HETATM   20  C   UNL     1      -8.820  10.678  66.167  1.00  0.00    -0.179 A  
HETATM   21  C   UNL     1     -10.399   9.267  67.379  1.00  0.00    -0.263 A  
HETATM   22  C   UNL     1      -9.431   9.426  66.383  1.00  0.00    -0.259 A  
HETATM   23  C   UNL     1     -10.704  10.375  68.170  1.00  0.00    -0.236 A  
HETATM   24 CL   UNL     1     -11.903  10.277  69.424  1.00  0.00    -0.170 Cl 
HETATM   25  C   UNL     1     -10.081  11.609  67.963  1.00  0.00    -0.198 A  
BRANCH  21  26
HETATM   26  N   UNL     1     -11.122   8.074  67.602  1.00  0.00    -0.435 N  
HETATM   27  H   UNL     1     -12.070   8.040  67.227  1.00  0.00     0.000 HD 
BRANCH  26  28
HETATM   28  C   UNL     1     -10.689   6.959  68.266  1.00  0.00    -0.214 C  
HETATM   29  O   UNL     1     -11.108   5.821  68.083  1.00  0.00    -0.180 OA 
BRANCH  28  30
HETATM   30  N   UNL     1      -9.708   7.236  69.194  1.00  0.00    -0.159 N  
HETATM   31  H   UNL     1      -9.037   7.983  69.015  1.00  0.00     0.000 HD 
BRANCH  30  32
HETATM   32  C   UNL     1      -9.625   6.484  70.405  1.00  0.00    -0.162 C  
HETATM   33  C   UNL     1      -8.817   6.928  71.588  1.00  0.00    -0.128 C  
HETATM   34  C   UNL     1     -10.313   7.008  71.637  1.00  0.00    -0.216 C  
ENDBRANCH  30  32
ENDBRANCH  28  30
ENDBRANCH  26  28
ENDBRANCH  21  26
ENDBRANCH  18  19
ENDBRANCH  11  18
ENDBRANCH   2   3
TORSDOF 8
ENDMDL
MODEL      255
REMARK 921   NORMALIZED FREE ENERGY PREDICTED BY IDOCK:   -2.48 KCAL/MOL
REMARK 922        TOTAL FREE ENERGY PREDICTED BY IDOCK:   -5.17 KCAL/MOL
REMARK 923 INTER-LIGAND FREE ENERGY PREDICTED BY IDOCK:   -5.18 KCAL/MOL
REMARK 924 INTRA-LIGAND FREE ENERGY PREDICTED BY IDOCK:    0.01 KCAL/MOL
REMARK 927      BINDING AFFINITY PREDICTED BY RF-SCORE:    0.00 PKD
ROOT
HETATM    1  C   UNL     1      -8.024   5.789  63.313  1.00  0.00    -0.105 C  
HETATM    2  O   UNL     1      -7.052   6.627  63.935  1.00  0.00    -0.049 OA 
ENDROOT
BRANCH   2   3
HETATM    3  C   UNL     1      -7.308   6.964  65.239  1.00  0.00    -0.084 A  
HETATM    4  C   UNL     1      -7.251   8.310  65.626  1.00  0.00    -0.071 A  
HETATM    5  N   UNL     1      -7.886   5.268  68.364  1.00  0.00    -0.087 NA 
HETATM    6  C   UNL     1      -7.449   8.650  66.983  1.00  0.00    -0.084 A  
HETATM    7  C   UNL     1      -7.717   6.305  67.542  1.00  0.00    -0.101 A  
HETATM    8  C   UNL     1      -7.681   7.652  67.968  1.00  0.00    -0.119 A  
HETATM    9  C   UNL     1      -7.931   5.515  69.676  1.00  0.00    -0.093 A  
HETATM   10  C   UNL     1      -7.534   5.989  66.211  1.00  0.00    -0.086 A  
HETATM   11  C   UNL     1      -7.838   7.886  69.367  1.00  0.00    -0.114 A  
HETATM   12  C   UNL     1      -7.859   6.782  70.212  1.00  0.00    -0.110 A  
BRANCH   4  13
HETATM   13  C   UNL     1      -7.045   9.378  64.603  1.00  0.00    -0.100 C  
HETATM   14  H2  UNL     1      -8.527  10.597  65.431  1.00  0.00     0.000 HD 
HETATM   15  H1  UNL     1      -7.688  11.227  63.996  1.00  0.00     0.000 HD 
HETATM   16  O   UNL     1      -6.226   9.287  63.698  1.00  0.00    -0.088 OA 
HETATM   17  N   UNL     1      -7.829  10.497  64.694  1.00  0.00    -0.067 N  
ENDBRANCH   4  13
BRANCH  11  18
HETATM   18  O   UNL     1      -7.825   9.201  69.796  1.00  0.00    -0.075 OA 
BRANCH  18  19
HETATM   19  C   UNL     1      -8.625  10.198  69.263  1.00  0.00    -0.174 A  
HETATM   20  C   UNL     1      -9.974   9.860  69.096  1.00  0.00    -0.205 A  
HETATM   21  C   UNL     1     -10.411  11.898  67.828  1.00  0.00    -0.202 A  
HETATM   22  C   UNL     1     -10.861  10.704  68.397  1.00  0.00    -0.282 A  
HETATM   23  C   UNL     1      -9.071  12.241  68.013  1.00  0.00    -0.191 A  
HETATM   24 CL   UNL     1      -8.417  13.699  67.333  1.00  0.00    -0.192 Cl 
HETATM   25  C   UNL     1      -8.200  11.408  68.723  1.00  0.00    -0.107 A  
BRANCH  21  26
HETATM   26  N   UNL     1     -11.211  12.755  67.039  1.00  0.00    -0.278 N  
HETATM   27  H   UNL     1     -11.201  12.587  66.033  1.00  0.00     0.000 HD 
BRANCH  26  28
HETATM   28  C   UNL     1     -11.998  13.785  67.476  1.00  0.00    -0.376 C  
HETATM   29  O   UNL     1     -12.230  14.047  68.652  1.00  0.00    -0.332 OA 
BRANCH  28  30
HETATM   30  N   UNL     1     -12.528  14.529  66.444  1.00  0.00    -0.405 N  
HETATM   31  H   UNL     1     -13.449  14.956  66.547  1.00  0.00     0.000 HD 
BRANCH  30  32
HETATM   32  C   UNL     1     -11.797  14.706  65.231  1.00  0.00    -0.324 C  
HETATM   33  C   UNL     1     -11.448  16.056  64.677  1.00  0.00    -0.252 C  
HETATM   34  C   UNL     1     -10.380  15.209  65.301  1.00  0.00    -0.425 C  
ENDBRANCH  30  32
ENDBRANCH  28  30
ENDBRANCH  26  28
ENDBRANCH  21  26
ENDBRANCH  18  19
ENDBRANCH  11  18
ENDBRANCH   2   3
TORSDOF 8
ENDMDL
MODEL      256
REMARK 921   NORMALIZED FREE ENERGY PREDICTED BY IDOCK:   -2.43 KCAL/MOL
REMARK 922        TOTAL FREE ENERGY PREDICTED BY IDOCK:   -5.11 KCAL/MOL
REMARK 923 INTER-LIGAND FREE ENERGY PREDICTED BY IDOCK:   -4.44 KCAL/MOL
REMARK 924 INTRA-LIGAND FREE ENERGY PREDICTED BY IDOCK:   -0.67 KCAL/MOL
REMARK 927      BINDING AFFINITY PREDICTED BY RF-SCORE:    0.00 PKD
ROOT
HETATM    1  C   UNL     1      -8.923   8.785  62.387  1.00  0.00     0.047 C  
HETATM    2  O   UNL     1      -8.994  10.160  62.759  1.00  0.00    -0.206 OA 
ENDROOT
BRANCH   2   3
HETATM    3  C   UNL     1      -8.722  10.432  64.074  1.00  0.00    -0.194 A  
HETATM    4  C   UNL     1      -9.487  11.393  64.750  1.00  0.00    -0.176 A  
HETATM    5  N   UNL     1      -6.230   9.544  66.519  1.00  0.00    -0.064 NA 
HETATM    6  C   UNL     1      -9.164  11.722  66.086  1.00  0.00    -0.218 A  
HETATM    7  C   UNL     1      -7.308  10.160  66.032  1.00  0.00    -0.118 A  
HETATM    8  C   UNL     1      -8.064  11.115  66.751  1.00  0.00    -0.155 A  
HETATM    9  C   UNL     1      -5.788   9.922  67.723  1.00  0.00    -0.039 A  
HETATM   10  C   UNL     1      -7.643   9.841  64.732  1.00  0.00    -0.129 A  
HETATM   11  C   UNL     1      -7.624  11.415  68.074  1.00  0.00    -0.110 A  
HETATM   12  C   UNL     1      -6.415  10.873  68.496  1.00  0.00    -0.054 A  
BRANCH   4  13
HETATM   13  C   UNL     1     -10.669  12.018  64.086  1.00  0.00    -0.357 C  
HETATM   14  H2  UNL     1     -11.756  10.234  64.115  1.00  0.00     0.000 HD 
HETATM   15  H1  UNL     1     -12.562  11.645  63.394  1.00  0.00     0.000 HD 
HETATM   16  O   UNL     1     -10.697  13.192  63.740  1.00  0.00    -0.298 OA 
HETATM   17  N   UNL     1     -11.755  11.218  63.848  1.00  0.00     0.035 N  
ENDBRANCH   4  13
BRANCH  11  18
HETATM   18  O   UNL     1      -8.366  12.333  68.797  1.00  0.00    -0.047 OA 
BRANCH  18  19
HETATM   19  C   UNL     1      -8.109  13.693  68.815  1.00  0.00     0.001 A  
HETATM   20  C   UNL     1      -8.836  14.455  67.891  1.00  0.00    -0.179 A  
HETATM   21  C   UNL     1      -7.500  16.443  68.355  1.00  0.00    -0.171 A  
HETATM   22  C   UNL     1      -8.544  15.816  67.669  1.00  0.00    -0.173 A  
HETATM   23  C   UNL     1      -6.791  15.687  69.289  1.00  0.00    -0.164 A  
HETATM   24 CL   UNL     1      -5.469  16.375  70.181  1.00  0.00    -0.178 Cl 
HETATM   25  C   UNL     1      -7.097  14.341  69.518  1.00  0.00    -0.045 A  
BRANCH  21  26
HETATM   26  N   UNL     1      -7.086  17.774  68.129  1.00  0.00    -0.212 N  
HETATM   27  H   UNL     1      -7.736  18.507  68.416  1.00  0.00     0.000 HD 
BRANCH  26  28
HETATM   28  C   UNL     1      -5.909  18.189  67.568  1.00  0.00    -0.147 C  
HETATM   29  O   UNL     1      -5.253  17.552  66.752  1.00  0.00    -0.131 OA 
BRANCH  28  30
HETATM   30  N   UNL     1      -5.511  19.430  68.017  1.00  0.00    -0.190 N  
HETATM   31  H   UNL     1      -4.873  19.502  68.810  1.00  0.00     0.000 HD 
BRANCH  30  32
HETATM   32  C   UNL     1      -5.984  20.616  67.380  1.00  0.00    -0.222 C  
HETATM   33  C   UNL     1      -5.540  21.042  66.012  1.00  0.00    -0.268 C  
HETATM   34  C   UNL     1      -6.920  20.490  66.207  1.00  0.00    -0.273 C  
ENDBRANCH  30  32
ENDBRANCH  28  30
ENDBRANCH  26  28
ENDBRANCH  21  26
ENDBRANCH  18  19
ENDBRANCH  11  18
ENDBRANCH   2   3
TORSDOF 8
ENDMDL
MODEL      257
REMARK 921   NORMALIZED FREE ENERGY PREDICTED BY IDOCK:   -2.41 KCAL/MOL
REMARK 922        TOTAL FREE ENERGY PREDICTED BY IDOCK:   -5.08 KCAL/MOL
REMARK 923 INTER-LIGAND FREE ENERGY PREDICTED BY IDOCK:   -3.84 KCAL/MOL
REMARK 924 INTRA-LIGAND FREE ENERGY PREDICTED BY IDOCK:   -1.23 KCAL/MOL
REMARK 927      BINDING AFFINITY PREDICTED BY RF-SCORE:    0.00 PKD
ROOT
HETATM    1  C   UNL     1      -8.601   8.495  62.358  1.00  0.00    -0.132 C  
HETATM    2  O   UNL     1      -8.368   9.849  62.743  1.00  0.00    -0.135 OA 
ENDROOT
BRANCH   2   3
HETATM    3  C   UNL     1      -8.457  10.106  64.086  1.00  0.00    -0.180 A  
HETATM    4  C   UNL     1      -7.304  10.026  64.879  1.00  0.00    -0.140 A  
HETATM    5  N   UNL     1     -11.044  10.734  66.513  1.00  0.00    -0.093 NA 
HETATM    6  C   UNL     1      -7.407  10.226  66.274  1.00  0.00    -0.118 A  
HETATM    7  C   UNL     1      -9.803  10.541  66.062  1.00  0.00    -0.222 A  
HETATM    8  C   UNL     1      -8.661  10.482  66.893  1.00  0.00    -0.130 A  
HETATM    9  C   UNL     1     -11.224  10.782  67.836  1.00  0.00    -0.318 A  
HETATM   10  C   UNL     1      -9.685  10.355  64.700  1.00  0.00    -0.392 A  
HETATM   11  C   UNL     1      -8.880  10.643  68.293  1.00  0.00    -0.139 A  
HETATM   12  C   UNL     1     -10.193  10.689  68.745  1.00  0.00    -0.204 A  
BRANCH   4  13
HETATM   13  C   UNL     1      -5.971   9.794  64.248  1.00  0.00    -0.099 C  
HETATM   14  H2  UNL     1      -5.821  11.775  63.598  1.00  0.00     0.000 HD 
HETATM   15  H1  UNL     1      -4.463  10.700  63.197  1.00  0.00     0.000 HD 
HETATM   16  O   UNL     1      -5.410   8.706  64.254  1.00  0.00    -0.053 OA 
HETATM   17  N   UNL     1      -5.373  10.859  63.627  1.00  0.00    -0.088 N  
ENDBRANCH   4  13
BRANCH  11  18
HETATM   18  O   UNL     1      -7.768  10.608  69.117  1.00  0.00    -0.117 OA 
BRANCH  18  19
HETATM   19  C   UNL     1      -7.429   9.526  69.912  1.00  0.00    -0.113 A  
HETATM   20  C   UNL     1      -6.954   8.401  69.226  1.00  0.00    -0.054 A  
HETATM   21  C   UNL     1      -7.035   7.034  71.245  1.00  0.00    -0.061 A  
HETATM   22  C   UNL     1      -6.749   7.171  69.884  1.00  0.00    -0.048 A  
HETATM   23  C   UNL     1      -7.489   8.161  71.930  1.00  0.00    -0.091 A  
HETATM   24 CL   UNL     1      -7.884   8.085  73.619  1.00  0.00    -0.215 Cl 
HETATM   25  C   UNL     1      -7.673   9.383  71.275  1.00  0.00     0.148 A  
BRANCH  21  26
HETATM   26  N   UNL     1      -6.942   5.818  71.959  1.00  0.00    -0.075 N  
HETATM   27  H   UNL     1      -6.141   5.719  72.583  1.00  0.00     0.000 HD 
BRANCH  26  28
HETATM   28  C   UNL     1      -7.808   4.761  71.905  1.00  0.00    -0.100 C  
HETATM   29  O   UNL     1      -8.492   4.360  72.841  1.00  0.00    -0.101 OA 
BRANCH  28  30
HETATM   30  N   UNL     1      -7.845   4.162  70.664  1.00  0.00    -0.051 N  
HETATM   31  H   UNL     1      -6.984   3.815  70.242  1.00  0.00     0.000 HD 
BRANCH  30  32
HETATM   32  C   UNL     1      -9.082   4.026  69.964  1.00  0.00    -0.119 C  
HETATM   33  C   UNL     1      -9.327   4.629  68.613  1.00  0.00    -0.193 C  
HETATM   34  C   UNL     1      -9.136   3.148  68.743  1.00  0.00    -0.209 C  
ENDBRANCH  30  32
ENDBRANCH  28  30
ENDBRANCH  26  28
ENDBRANCH  21  26
ENDBRANCH  18  19
ENDBRANCH  11  18
ENDBRANCH   2   3
TORSDOF 8
ENDMDL
MODEL      258
REMARK 921   NORMALIZED FREE ENERGY PREDICTED BY IDOCK:   -1.70 KCAL/MOL
REMARK 922        TOTAL FREE ENERGY PREDICTED BY IDOCK:   -4.03 KCAL/MOL
REMARK 923 INTER-LIGAND FREE ENERGY PREDICTED BY IDOCK:   -3.70 KCAL/MOL
REMARK 924 INTRA-LIGAND FREE ENERGY PREDICTED BY IDOCK:   -0.33 KCAL/MOL
REMARK 927      BINDING AFFINITY PREDICTED BY RF-SCORE:    0.00 PKD
ROOT
HETATM    1  C   UNL     1      -5.995  14.573  73.351  1.00  0.00     0.353 C  
HETATM    2  O   UNL     1      -5.139  14.540  72.210  1.00  0.00    -0.172 OA 
ENDROOT
BRANCH   2   3
HETATM    3  C   UNL     1      -5.389  13.537  71.311  1.00  0.00    -0.196 A  
HETATM    4  C   UNL     1      -5.723  13.865  69.989  1.00  0.00    -0.126 A  
HETATM    5  N   UNL     1      -5.751   9.953  71.350  1.00  0.00    -0.186 NA 
HETATM    6  C   UNL     1      -6.046  12.833  69.080  1.00  0.00    -0.089 A  
HETATM    7  C   UNL     1      -5.735  11.180  70.828  1.00  0.00    -0.089 A  
HETATM    8  C   UNL     1      -6.064  11.471  69.484  1.00  0.00    -0.100 A  
HETATM    9  C   UNL     1      -6.191   8.955  70.579  1.00  0.00    -0.042 A  
HETATM   10  C   UNL     1      -5.411  12.198  71.702  1.00  0.00     0.134 A  
HETATM   11  C   UNL     1      -6.427  10.364  68.660  1.00  0.00    -0.051 A  
HETATM   12  C   UNL     1      -6.581   9.124  69.269  1.00  0.00    -0.049 A  
BRANCH   4  13
HETATM   13  C   UNL     1      -5.676  15.285  69.532  1.00  0.00    -0.101 C  
HETATM   14  H2  UNL     1      -5.657  14.742  67.515  1.00  0.00     0.000 HD 
HETATM   15  H1  UNL     1      -5.615  16.483  67.870  1.00  0.00     0.000 HD 
HETATM   16  O   UNL     1      -5.651  16.235  70.305  1.00  0.00    -0.180 OA 
HETATM   17  N   UNL     1      -5.647  15.513  68.182  1.00  0.00    -0.114 N  
ENDBRANCH   4  13
BRANCH  11  18
HETATM   18  O   UNL     1      -6.731  10.631  67.337  1.00  0.00    -0.072 OA 
BRANCH  18  19
HETATM   19  C   UNL     1      -7.929  11.183  66.914  1.00  0.00    -0.151 A  
HETATM   20  C   UNL     1      -8.992  11.078  67.820  1.00  0.00    -0.140 A  
HETATM   21  C   UNL     1     -10.593  11.870  66.158  1.00  0.00    -0.258 A  
HETATM   22  C   UNL     1     -10.308  11.427  67.452  1.00  0.00    -0.232 A  
HETATM   23  C   UNL     1      -9.529  11.992  65.265  1.00  0.00    -0.026 A  
HETATM   24 CL   UNL     1      -9.786  12.523  63.631  1.00  0.00    -0.119 Cl 
HETATM   25  C   UNL     1      -8.223  11.662  65.641  1.00  0.00     0.449 A  
BRANCH  21  26
HETATM   26  N   UNL     1     -11.893  12.155  65.683  1.00  0.00    -0.349 N  
HETATM   27  H   UNL     1     -12.469  11.352  65.428  1.00  0.00     0.000 HD 
BRANCH  26  28
HETATM   28  C   UNL     1     -12.463  13.388  65.528  1.00  0.00    -0.483 C  
HETATM   29  O   UNL     1     -13.398  13.645  64.778  1.00  0.00    -0.338 OA 
BRANCH  28  30
HETATM   30  N   UNL     1     -11.874  14.353  66.317  1.00  0.00    -0.387 N  
HETATM   31  H   UNL     1     -11.087  14.893  65.956  1.00  0.00     0.000 HD 
BRANCH  30  32
HETATM   32  C   UNL     1     -12.358  14.603  67.636  1.00  0.00     0.137 C  
HETATM   33  C   UNL     1     -11.642  14.140  68.871  1.00  0.00    -0.345 C  
HETATM   34  C   UNL     1     -11.629  15.594  68.505  1.00  0.00    -0.378 C  
ENDBRANCH  30  32
ENDBRANCH  28  30
ENDBRANCH  26  28
ENDBRANCH  21  26
ENDBRANCH  18  19
ENDBRANCH  11  18
ENDBRANCH   2   3
TORSDOF 8
ENDMDL
MODEL      259
REMARK 921   NORMALIZED FREE ENERGY PREDICTED BY IDOCK:   -1.66 KCAL/MOL
REMARK 922        TOTAL FREE ENERGY PREDICTED BY IDOCK:   -3.98 KCAL/MOL
REMARK 923 INTER-LIGAND FREE ENERGY PREDICTED BY IDOCK:   -4.42 KCAL/MOL
REMARK 924 INTRA-LIGAND FREE ENERGY PREDICTED BY IDOCK:    0.44 KCAL/MOL
REMARK 927      BINDING AFFINITY PREDICTED BY RF-SCORE:    0.00 PKD
ROOT
HETATM    1  C   UNL     1     -10.447   5.891  70.596  1.00  0.00    -0.253 C  
HETATM    2  O   UNL     1      -9.036   5.852  70.386  1.00  0.00    -0.144 OA 
ENDROOT
BRANCH   2   3
HETATM    3  C   UNL     1      -8.409   7.070  70.356  1.00  0.00    -0.129 A  
HETATM    4  C   UNL     1      -8.479   7.851  69.194  1.00  0.00    -0.137 A  
HETATM    5  N   UNL     1      -6.188   8.976  72.456  1.00  0.00    -0.260 NA 
HETATM    6  C   UNL     1      -7.778   9.077  69.140  1.00  0.00    -0.092 A  
HETATM    7  C   UNL     1      -6.924   8.700  71.379  1.00  0.00    -0.085 A  
HETATM    8  C   UNL     1      -6.982   9.522  70.230  1.00  0.00    -0.099 A  
HETATM    9  C   UNL     1      -5.388  10.045  72.405  1.00  0.00     0.112 A  
HETATM   10  C   UNL     1      -7.625   7.512  71.422  1.00  0.00    -0.081 A  
HETATM   11  C   UNL     1      -6.195  10.711  70.254  1.00  0.00    -0.139 A  
HETATM   12  C   UNL     1      -5.324  10.893  71.322  1.00  0.00    -0.042 A  
BRANCH   4  13
HETATM   13  C   UNL     1      -9.337   7.422  68.050  1.00  0.00    -0.135 C  
HETATM   14  H2  UNL     1     -10.525   9.138  68.166  1.00  0.00     0.000 HD 
HETATM   15  H1  UNL     1     -10.943   7.964  66.898  1.00  0.00     0.000 HD 
HETATM   16  O   UNL     1      -9.173   6.367  67.452  1.00  0.00    -0.118 OA 
HETATM   17  N   UNL     1     -10.358   8.257  67.680  1.00  0.00    -0.237 N  
ENDBRANCH   4  13
BRANCH  11  18
HETATM   18  O   UNL     1      -6.257  11.536  69.144  1.00  0.00    -0.058 OA 
BRANCH  18  19
HETATM   19  C   UNL     1      -7.435  11.896  68.512  1.00  0.00    -0.117 A  
HETATM   20  C   UNL     1      -7.284  12.504  67.259  1.00  0.00    -0.114 A  
HETATM   21  C   UNL     1      -9.649  13.095  67.169  1.00  0.00    -0.235 A  
HETATM   22  C   UNL     1      -8.378  13.088  66.588  1.00  0.00     0.159 A  
HETATM   23  C   UNL     1      -9.800  12.471  68.408  1.00  0.00    -0.202 A  
HETATM   24 CL   UNL     1     -11.338  12.440  69.214  1.00  0.00    -0.322 Cl 
HETATM   25  C   UNL     1      -8.714  11.877  69.059  1.00  0.00     0.296 A  
BRANCH  21  26
HETATM   26  N   UNL     1     -10.777  13.733  66.607  1.00  0.00    -0.276 N  
HETATM   27  H   UNL     1     -11.472  13.127  66.170  1.00  0.00     0.000 HD 
BRANCH  26  28
HETATM   28  C   UNL     1     -11.040  15.075  66.585  1.00  0.00    -0.326 C  
HETATM   29  O   UNL     1     -10.948  15.797  65.598  1.00  0.00    -0.313 OA 
BRANCH  28  30
HETATM   30  N   UNL     1     -11.431  15.564  67.813  1.00  0.00    -0.292 N  
HETATM   31  H   UNL     1     -12.337  15.298  68.201  1.00  0.00     0.000 HD 
BRANCH  30  32
HETATM   32  C   UNL     1     -10.577  16.441  68.547  1.00  0.00    -0.304 C  
HETATM   33  C   UNL     1      -9.310  15.983  69.208  1.00  0.00    -0.244 C  
HETATM   34  C   UNL     1      -9.241  16.816  67.963  1.00  0.00    -0.228 C  
ENDBRANCH  30  32
ENDBRANCH  28  30
ENDBRANCH  26  28
ENDBRANCH  21  26
ENDBRANCH  18  19
ENDBRANCH  11  18
ENDBRANCH   2   3
TORSDOF 8
ENDMDL
MODEL      260
REMARK 921   NORMALIZED FREE ENERGY PREDICTED BY IDOCK:   -1.63 KCAL/MOL
REMARK 922        TOTAL FREE ENERGY PREDICTED BY IDOCK:   -3.93 KCAL/MOL
REMARK 923 INTER-LIGAND FREE ENERGY PREDICTED BY IDOCK:   -4.69 KCAL/MOL
REMARK 924 INTRA-LIGAND FREE ENERGY PREDICTED BY IDOCK:    0.76 KCAL/MOL
REMARK 927      BINDING AFFINITY PREDICTED BY RF-SCORE:    0.00 PKD
ROOT
HETATM    1  C   UNL     1     -10.447   5.891  70.596  1.00  0.00    -0.253 C  
HETATM    2  O   UNL     1      -9.036   5.852  70.386  1.00  0.00    -0.144 OA 
ENDROOT
BRANCH   2   3
HETATM    3  C   UNL     1      -8.409   7.070  70.356  1.00  0.00    -0.129 A  
HETATM    4  C   UNL     1      -8.479   7.851  69.194  1.00  0.00    -0.137 A  
HETATM    5  N   UNL     1      -6.188   8.976  72.456  1.00  0.00    -0.260 NA 
HETATM    6  C   UNL     1      -7.778   9.077  69.140  1.00  0.00    -0.092 A  
HETATM    7  C   UNL     1      -6.924   8.700  71.379  1.00  0.00    -0.085 A  
HETATM    8  C   UNL     1      -6.982   9.522  70.230  1.00  0.00    -0.099 A  
HETATM    9  C   UNL     1      -5.388  10.045  72.405  1.00  0.00     0.112 A  
HETATM   10  C   UNL     1      -7.625   7.512  71.422  1.00  0.00    -0.081 A  
HETATM   11  C   UNL     1      -6.195  10.711  70.254  1.00  0.00    -0.139 A  
HETATM   12  C   UNL     1      -5.324  10.893  71.322  1.00  0.00    -0.042 A  
BRANCH   4  13
HETATM   13  C   UNL     1      -9.337   7.422  68.050  1.00  0.00    -0.135 C  
HETATM   14  H2  UNL     1     -10.860   8.759  68.559  1.00  0.00     0.000 HD 
HETATM   15  H1  UNL     1     -11.138   7.744  67.127  1.00  0.00     0.000 HD 
HETATM   16  O   UNL     1      -9.006   6.550  67.258  1.00  0.00    -0.115 OA 
HETATM   17  N   UNL     1     -10.553   8.037  67.909  1.00  0.00    -0.185 N  
ENDBRANCH   4  13
BRANCH  11  18
HETATM   18  O   UNL     1      -6.257  11.536  69.144  1.00  0.00    -0.058 OA 
BRANCH  18  19
HETATM   19  C   UNL     1      -7.435  11.896  68.512  1.00  0.00    -0.117 A  
HETATM   20  C   UNL     1      -7.284  12.504  67.259  1.00  0.00    -0.114 A  
HETATM   21  C   UNL     1      -9.649  13.095  67.169  1.00  0.00    -0.235 A  
HETATM   22  C   UNL     1      -8.378  13.088  66.588  1.00  0.00     0.159 A  
HETATM   23  C   UNL     1      -9.800  12.471  68.408  1.00  0.00    -0.202 A  
HETATM   24 CL   UNL     1     -11.338  12.440  69.214  1.00  0.00    -0.322 Cl 
HETATM   25  C   UNL     1      -8.714  11.877  69.059  1.00  0.00     0.296 A  
BRANCH  21  26
HETATM   26  N   UNL     1     -10.777  13.733  66.607  1.00  0.00    -0.276 N  
HETATM   27  H   UNL     1     -11.041  14.631  67.014  1.00  0.00     0.000 HD 
BRANCH  26  28
HETATM   28  C   UNL     1     -11.554  13.280  65.576  1.00  0.00    -0.326 C  
HETATM   29  O   UNL     1     -12.683  12.816  65.694  1.00  0.00    -0.549 OA 
BRANCH  28  30
HETATM   30  N   UNL     1     -10.935  13.394  64.350  1.00  0.00    -0.388 N  
HETATM   31  H   UNL     1     -10.773  14.317  63.946  1.00  0.00     0.000 HD 
BRANCH  30  32
HETATM   32  C   UNL     1     -10.518  12.228  63.640  1.00  0.00    -0.450 C  
HETATM   33  C   UNL     1      -9.358  11.379  64.072  1.00  0.00    -0.081 C  
HETATM   34  C   UNL     1     -10.758  10.875  64.255  1.00  0.00    -0.241 C  
ENDBRANCH  30  32
ENDBRANCH  28  30
ENDBRANCH  26  28
ENDBRANCH  21  26
ENDBRANCH  18  19
ENDBRANCH  11  18
ENDBRANCH   2   3
TORSDOF 8
ENDMDL
MODEL      261
REMARK 921   NORMALIZED FREE ENERGY PREDICTED BY IDOCK:   -1.63 KCAL/MOL
REMARK 922        TOTAL FREE ENERGY PREDICTED BY IDOCK:   -3.92 KCAL/MOL
REMARK 923 INTER-LIGAND FREE ENERGY PREDICTED BY IDOCK:   -4.14 KCAL/MOL
REMARK 924 INTRA-LIGAND FREE ENERGY PREDICTED BY IDOCK:    0.22 KCAL/MOL
REMARK 927      BINDING AFFINITY PREDICTED BY RF-SCORE:    0.00 PKD
ROOT
HETATM    1  C   UNL     1     -10.986  17.198  70.977  1.00  0.00     1.130 C  
HETATM    2  O   UNL     1     -10.658  17.519  69.627  1.00  0.00    -0.080 OA 
ENDROOT
BRANCH   2   3
HETATM    3  C   UNL     1      -9.695  16.734  69.049  1.00  0.00    -0.244 A  
HETATM    4  C   UNL     1     -10.016  15.425  68.663  1.00  0.00    -0.210 A  
HETATM    5  N   UNL     1      -6.160  16.911  68.378  1.00  0.00    -0.136 NA 
HETATM    6  C   UNL     1      -9.007  14.593  68.128  1.00  0.00    -0.179 A  
HETATM    7  C   UNL     1      -7.379  16.369  68.409  1.00  0.00    -0.168 A  
HETATM    8  C   UNL     1      -7.667  15.048  67.996  1.00  0.00    -0.129 A  
HETATM    9  C   UNL     1      -5.140  16.125  68.021  1.00  0.00    -0.116 A  
HETATM   10  C   UNL     1      -8.377  17.174  68.919  1.00  0.00    -0.183 A  
HETATM   11  C   UNL     1      -6.568  14.272  67.521  1.00  0.00    -0.075 A  
HETATM   12  C   UNL     1      -5.292  14.810  67.644  1.00  0.00     0.057 A  
BRANCH   4  13
HETATM   13  C   UNL     1     -11.423  14.936  68.758  1.00  0.00    -0.307 C  
HETATM   14  H2  UNL     1     -10.923  13.459  70.149  1.00  0.00     0.000 HD 
HETATM   15  H1  UNL     1     -12.632  13.555  69.671  1.00  0.00     0.000 HD 
HETATM   16  O   UNL     1     -12.343  15.419  68.111  1.00  0.00     0.121 OA 
HETATM   17  N   UNL     1     -11.671  13.888  69.605  1.00  0.00    -0.293 N  
ENDBRANCH   4  13
BRANCH  11  18
HETATM   18  O   UNL     1      -6.838  12.984  67.095  1.00  0.00    -0.094 OA 
BRANCH  18  19
HETATM   19  C   UNL     1      -7.554  12.058  67.835  1.00  0.00    -0.124 A  
HETATM   20  C   UNL     1      -6.868  11.494  68.918  1.00  0.00    -0.095 A  
HETATM   21  C   UNL     1      -8.632   9.848  69.283  1.00  0.00    -0.167 A  
HETATM   22  C   UNL     1      -7.403  10.409  69.642  1.00  0.00    -0.156 A  
HETATM   23  C   UNL     1      -9.321  10.424  68.215  1.00  0.00    -0.149 A  
HETATM   24 CL   UNL     1     -10.849   9.789  67.687  1.00  0.00    -0.337 Cl 
HETATM   25  C   UNL     1      -8.794  11.513  67.513  1.00  0.00    -0.155 A  
BRANCH  21  26
HETATM   26  N   UNL     1      -9.196   8.708  69.897  1.00  0.00    -0.152 N  
HETATM   27  H   UNL     1      -9.031   7.814  69.434  1.00  0.00     0.000 HD 
BRANCH  26  28
HETATM   28  C   UNL     1      -9.938   8.670  71.045  1.00  0.00    -0.215 C  
HETATM   29  O   UNL     1      -9.532   8.980  72.160  1.00  0.00    -0.340 OA 
BRANCH  28  30
HETATM   30  N   UNL     1     -11.230   8.238  70.833  1.00  0.00    -0.262 N  
HETATM   31  H   UNL     1     -12.004   8.899  70.901  1.00  0.00     0.000 HD 
BRANCH  30  32
HETATM   32  C   UNL     1     -11.492   6.870  70.519  1.00  0.00    -0.342 C  
HETATM   33  C   UNL     1     -10.824   6.150  69.384  1.00  0.00    -0.420 C  
HETATM   34  C   UNL     1     -10.429   5.842  70.797  1.00  0.00    -0.324 C  
ENDBRANCH  30  32
ENDBRANCH  28  30
ENDBRANCH  26  28
ENDBRANCH  21  26
ENDBRANCH  18  19
ENDBRANCH  11  18
ENDBRANCH   2   3
TORSDOF 8
ENDMDL
MODEL      262
REMARK 921   NORMALIZED FREE ENERGY PREDICTED BY IDOCK:   -1.32 KCAL/MOL
REMARK 922        TOTAL FREE ENERGY PREDICTED BY IDOCK:   -3.48 KCAL/MOL
REMARK 923 INTER-LIGAND FREE ENERGY PREDICTED BY IDOCK:   -5.17 KCAL/MOL
REMARK 924 INTRA-LIGAND FREE ENERGY PREDICTED BY IDOCK:    1.69 KCAL/MOL
REMARK 927      BINDING AFFINITY PREDICTED BY RF-SCORE:    0.00 PKD
ROOT
HETATM    1  C   UNL     1      -5.319  14.296  70.298  1.00  0.00    -0.104 C  
HETATM    2  O   UNL     1      -6.254  15.285  69.872  1.00  0.00    -0.144 OA 
ENDROOT
BRANCH   2   3
HETATM    3  C   UNL     1      -7.387  14.808  69.265  1.00  0.00    -0.168 A  
HETATM    4  C   UNL     1      -7.269  13.857  68.241  1.00  0.00    -0.112 A  
HETATM    5  N   UNL     1     -10.923  15.492  69.306  1.00  0.00    -0.249 NA 
HETATM    6  C   UNL     1      -8.431  13.414  67.571  1.00  0.00    -0.192 A  
HETATM    7  C   UNL     1      -9.792  14.897  68.926  1.00  0.00    -0.230 A  
HETATM    8  C   UNL     1      -9.715  13.930  67.897  1.00  0.00    -0.231 A  
HETATM    9  C   UNL     1     -12.031  15.223  68.610  1.00  0.00    -0.235 A  
HETATM   10  C   UNL     1      -8.649  15.311  69.580  1.00  0.00    -0.184 A  
HETATM   11  C   UNL     1     -10.938  13.590  67.247  1.00  0.00    -0.280 A  
HETATM   12  C   UNL     1     -12.069  14.334  67.559  1.00  0.00    -0.347 A  
BRANCH   4  13
HETATM   13  C   UNL     1      -5.937  13.275  67.905  1.00  0.00    -0.138 C  
HETATM   14  H2  UNL     1      -6.270  11.577  69.076  1.00  0.00     0.000 HD 
HETATM   15  H1  UNL     1      -4.711  11.664  68.228  1.00  0.00     0.000 HD 
HETATM   16  O   UNL     1      -5.127  13.835  67.177  1.00  0.00    -0.190 OA 
HETATM   17  N   UNL     1      -5.621  12.062  68.458  1.00  0.00    -0.052 N  
ENDBRANCH   4  13
BRANCH  11  18
HETATM   18  O   UNL     1     -10.881  12.630  66.251  1.00  0.00    -0.265 OA 
BRANCH  18  19
HETATM   19  C   UNL     1     -10.215  11.423  66.377  1.00  0.00    -0.230 A  
HETATM   20  C   UNL     1      -9.020  11.317  65.653  1.00  0.00    -0.173 A  
HETATM   21  C   UNL     1      -8.848   8.931  66.129  1.00  0.00    -0.161 A  
HETATM   22  C   UNL     1      -8.337  10.089  65.539  1.00  0.00    -0.151 A  
HETATM   23  C   UNL     1     -10.028   9.043  66.865  1.00  0.00    -0.246 A  
HETATM   24 CL   UNL     1     -10.746   7.656  67.625  1.00  0.00    -0.281 Cl 
HETATM   25  C   UNL     1     -10.691  10.268  66.990  1.00  0.00    -0.281 A  
BRANCH  21  26
HETATM   26  N   UNL     1      -8.274   7.647  65.989  1.00  0.00    -0.121 N  
HETATM   27  H   UNL     1      -8.837   6.949  65.502  1.00  0.00     0.000 HD 
BRANCH  26  28
HETATM   28  C   UNL     1      -7.048   7.237  66.435  1.00  0.00    -0.077 C  
HETATM   29  O   UNL     1      -6.267   7.924  67.085  1.00  0.00    -0.051 OA 
BRANCH  28  30
HETATM   30  N   UNL     1      -6.754   5.940  66.075  1.00  0.00    -0.057 N  
HETATM   31  H   UNL     1      -6.023   5.429  66.572  1.00  0.00     0.000 HD 
BRANCH  30  32
HETATM   32  C   UNL     1      -7.464   5.305  65.013  1.00  0.00    -0.073 C  
HETATM   33  C   UNL     1      -6.916   4.139  64.244  1.00  0.00    -0.046 C  
HETATM   34  C   UNL     1      -8.024   3.925  65.231  1.00  0.00    -0.097 C  
ENDBRANCH  30  32
ENDBRANCH  28  30
ENDBRANCH  26  28
ENDBRANCH  21  26
ENDBRANCH  18  19
ENDBRANCH  11  18
ENDBRANCH   2   3
TORSDOF 8
ENDMDL
MODEL      263
REMARK 921   NORMALIZED FREE ENERGY PREDICTED BY IDOCK:   -1.20 KCAL/MOL
REMARK 922        TOTAL FREE ENERGY PREDICTED BY IDOCK:   -3.30 KCAL/MOL
REMARK 923 INTER-LIGAND FREE ENERGY PREDICTED BY IDOCK:   -4.56 KCAL/MOL
REMARK 924 INTRA-LIGAND FREE ENERGY PREDICTED BY IDOCK:    1.25 KCAL/MOL
REMARK 927      BINDING AFFINITY PREDICTED BY RF-SCORE:    0.00 PKD
ROOT
HETATM    1  C   UNL     1      -6.261  16.393  68.571  1.00  0.00    -0.128 C  
HETATM    2  O   UNL     1      -7.202  15.663  69.356  1.00  0.00    -0.188 OA 
ENDROOT
BRANCH   2   3
HETATM    3  C   UNL     1      -7.483  14.396  68.915  1.00  0.00    -0.132 A  
HETATM    4  C   UNL     1      -6.786  13.308  69.460  1.00  0.00     0.081 A  
HETATM    5  N   UNL     1      -9.475  12.850  66.343  1.00  0.00    -0.248 NA 
HETATM    6  C   UNL     1      -7.028  12.010  68.959  1.00  0.00    -0.094 A  
HETATM    7  C   UNL     1      -8.620  12.910  67.364  1.00  0.00    -0.195 A  
HETATM    8  C   UNL     1      -7.946  11.786  67.897  1.00  0.00    -0.141 A  
HETATM    9  C   UNL     1      -9.633  11.672  65.732  1.00  0.00    -0.232 A  
HETATM   10  C   UNL     1      -8.382  14.171  67.872  1.00  0.00    -0.162 A  
HETATM   11  C   UNL     1      -8.220  10.527  67.286  1.00  0.00    -0.119 A  
HETATM   12  C   UNL     1      -8.995  10.519  66.132  1.00  0.00    -0.178 A  
BRANCH   4  13
HETATM   13  C   UNL     1      -5.844  13.513  70.600  1.00  0.00    -0.171 C  
HETATM   14  H2  UNL     1      -5.332  15.436  69.963  1.00  0.00     0.000 HD 
HETATM   15  H1  UNL     1      -4.541  14.852  71.443  1.00  0.00     0.000 HD 
HETATM   16  O   UNL     1      -5.634  12.661  71.453  1.00  0.00    -0.379 OA 
HETATM   17  N   UNL     1      -5.185  14.712  70.665  1.00  0.00    -0.116 N  
ENDBRANCH   4  13
BRANCH  11  18
HETATM   18  O   UNL     1      -7.583   9.415  67.810  1.00  0.00    -0.087 OA 
BRANCH  18  19
HETATM   19  C   UNL     1      -8.095   8.644  68.839  1.00  0.00    -0.118 A  
HETATM   20  C   UNL     1      -9.422   8.920  69.196  1.00  0.00    -0.157 A  
HETATM   21  C   UNL     1      -9.273   7.497  71.172  1.00  0.00    -0.147 A  
HETATM   22  C   UNL     1     -10.009   8.347  70.341  1.00  0.00    -0.199 A  
HETATM   23  C   UNL     1      -7.958   7.208  70.803  1.00  0.00    -0.100 A  
HETATM   24 CL   UNL     1      -6.961   6.173  71.778  1.00  0.00    -0.075 Cl 
HETATM   25  C   UNL     1      -7.387   7.766  69.655  1.00  0.00    -0.088 A  
BRANCH  21  26
HETATM   26  N   UNL     1      -9.756   6.952  72.382  1.00  0.00    -0.154 N  
HETATM   27  H   UNL     1      -9.685   7.547  73.208  1.00  0.00     0.000 HD 
BRANCH  26  28
HETATM   28  C   UNL     1     -10.309   5.715  72.568  1.00  0.00    -0.201 C  
HETATM   29  O   UNL     1     -10.925   5.359  73.567  1.00  0.00    -0.285 OA 
BRANCH  28  30
HETATM   30  N   UNL     1     -10.106   4.871  71.497  1.00  0.00    -0.192 N  
HETATM   31  H   UNL     1     -10.165   5.236  70.546  1.00  0.00     0.000 HD 
BRANCH  30  32
HETATM   32  C   UNL     1      -9.812   3.491  71.709  1.00  0.00    -0.160 C  
HETATM   33  C   UNL     1      -9.286   2.958  73.008  1.00  0.00    -0.114 C  
HETATM   34  C   UNL     1     -10.706   2.686  72.614  1.00  0.00    -0.078 C  
ENDBRANCH  30  32
ENDBRANCH  28  30
ENDBRANCH  26  28
ENDBRANCH  21  26
ENDBRANCH  18  19
ENDBRANCH  11  18
ENDBRANCH   2   3
TORSDOF 8
ENDMDL
MODEL      264
REMARK 921   NORMALIZED FREE ENERGY PREDICTED BY IDOCK:   -1.18 KCAL/MOL
REMARK 922        TOTAL FREE ENERGY PREDICTED BY IDOCK:   -3.27 KCAL/MOL
REMARK 923 INTER-LIGAND FREE ENERGY PREDICTED BY IDOCK:   -3.49 KCAL/MOL
REMARK 924 INTRA-LIGAND FREE ENERGY PREDICTED BY IDOCK:    0.22 KCAL/MOL
REMARK 927      BINDING AFFINITY PREDICTED BY RF-SCORE:    0.00 PKD
ROOT
HETATM    1  C   UNL     1     -13.209  14.961  63.770  1.00  0.00     2.181 C  
HETATM    2  O   UNL     1     -11.792  15.040  63.627  1.00  0.00    -0.099 OA 
ENDROOT
BRANCH   2   3
HETATM    3  C   UNL     1     -11.115  15.533  64.711  1.00  0.00    -0.407 A  
HETATM    4  C   UNL     1     -10.714  14.656  65.729  1.00  0.00    -0.321 A  
HETATM    5  N   UNL     1     -10.169  18.751  66.025  1.00  0.00    -0.537 NA 
HETATM    6  C   UNL     1     -10.074  15.173  66.877  1.00  0.00    -0.256 A  
HETATM    7  C   UNL     1     -10.281  17.422  65.992  1.00  0.00    -0.300 A  
HETATM    8  C   UNL     1      -9.851  16.568  67.034  1.00  0.00    -0.259 A  
HETATM    9  C   UNL     1      -9.708  19.309  67.148  1.00  0.00    -0.330 A  
HETATM   10  C   UNL     1     -10.893  16.901  64.871  1.00  0.00    -0.012 A  
HETATM   11  C   UNL     1      -9.265  17.194  68.174  1.00  0.00    -0.261 A  
HETATM   12  C   UNL     1      -9.302  18.581  68.245  1.00  0.00    -0.350 A  
BRANCH   4  13
HETATM   13  C   UNL     1     -10.906  13.184  65.571  1.00  0.00    -0.283 C  
HETATM   14  H2  UNL     1     -12.755  13.219  66.544  1.00  0.00     0.000 HD 
HETATM   15  H1  UNL     1     -12.188  11.635  65.970  1.00  0.00     0.000 HD 
HETATM   16  O   UNL     1     -10.083  12.457  65.029  1.00  0.00    -0.277 OA 
HETATM   17  N   UNL     1     -12.057  12.640  66.078  1.00  0.00    -0.416 N  
ENDBRANCH   4  13
BRANCH  11  18
HETATM   18  O   UNL     1      -8.821  16.368  69.192  1.00  0.00    -0.244 OA 
BRANCH  18  19
HETATM   19  C   UNL     1      -7.891  15.357  69.019  1.00  0.00    -0.194 A  
HETATM   20  C   UNL     1      -6.737  15.716  68.309  1.00  0.00    -0.124 A  
HETATM   21  C   UNL     1      -6.001  13.394  68.171  1.00  0.00    -0.112 A  
HETATM   22  C   UNL     1      -5.797  14.749  67.899  1.00  0.00    -0.146 A  
HETATM   23  C   UNL     1      -7.142  13.042  68.895  1.00  0.00    -0.068 A  
HETATM   24 CL   UNL     1      -7.488  11.382  69.270  1.00  0.00    -0.058 Cl 
HETATM   25  C   UNL     1      -8.061  14.008  69.315  1.00  0.00     0.293 A  
BRANCH  21  26
HETATM   26  N   UNL     1      -5.157  12.355  67.721  1.00  0.00    -0.078 N  
HETATM   27  H   UNL     1      -4.153  12.535  67.764  1.00  0.00     0.000 HD 
BRANCH  26  28
HETATM   28  C   UNL     1      -5.536  11.135  67.233  1.00  0.00    -0.057 C  
HETATM   29  O   UNL     1      -5.310  10.057  67.772  1.00  0.00    -0.038 OA 
BRANCH  28  30
HETATM   30  N   UNL     1      -6.220  11.225  66.039  1.00  0.00    -0.359 N  
HETATM   31  H   UNL     1      -5.827  11.768  65.270  1.00  0.00     0.000 HD 
BRANCH  30  32
HETATM   32  C   UNL     1      -7.473  10.563  65.872  1.00  0.00    -0.147 C  
HETATM   33  C   UNL     1      -7.897   9.930  64.579  1.00  0.00    -0.142 C  
HETATM   34  C   UNL     1      -7.494   9.064  65.734  1.00  0.00    -0.090 C  
ENDBRANCH  30  32
ENDBRANCH  28  30
ENDBRANCH  26  28
ENDBRANCH  21  26
ENDBRANCH  18  19
ENDBRANCH  11  18
ENDBRANCH   2   3
TORSDOF 8
ENDMDL
MODEL      265
REMARK 921   NORMALIZED FREE ENERGY PREDICTED BY IDOCK:   -0.99 KCAL/MOL
REMARK 922        TOTAL FREE ENERGY PREDICTED BY IDOCK:   -2.99 KCAL/MOL
REMARK 923 INTER-LIGAND FREE ENERGY PREDICTED BY IDOCK:   -4.98 KCAL/MOL
REMARK 924 INTRA-LIGAND FREE ENERGY PREDICTED BY IDOCK:    1.99 KCAL/MOL
REMARK 927      BINDING AFFINITY PREDICTED BY RF-SCORE:    0.00 PKD
ROOT
HETATM    1  C   UNL     1     -10.515  19.846  68.407  1.00  0.00    -0.262 C  
HETATM    2  O   UNL     1     -10.634  18.520  68.921  1.00  0.00    -0.073 OA 
ENDROOT
BRANCH   2   3
HETATM    3  C   UNL     1      -9.663  17.641  68.519  1.00  0.00    -0.328 A  
HETATM    4  C   UNL     1      -9.819  16.274  68.790  1.00  0.00    -0.238 A  
HETATM    5  N   UNL     1      -6.373  17.787  67.062  1.00  0.00    -0.155 NA 
HETATM    6  C   UNL     1      -8.788  15.375  68.435  1.00  0.00    -0.177 A  
HETATM    7  C   UNL     1      -7.459  17.219  67.585  1.00  0.00    -0.174 A  
HETATM    8  C   UNL     1      -7.585  15.832  67.830  1.00  0.00    -0.144 A  
HETATM    9  C   UNL     1      -5.309  17.009  66.842  1.00  0.00    -0.159 A  
HETATM   10  C   UNL     1      -8.480  18.083  67.927  1.00  0.00    -0.253 A  
HETATM   11  C   UNL     1      -6.467  15.017  67.484  1.00  0.00    -0.092 A  
HETATM   12  C   UNL     1      -5.298  15.653  67.085  1.00  0.00     0.343 A  
BRANCH   4  13
HETATM   13  C   UNL     1     -11.087  15.766  69.391  1.00  0.00    -0.314 C  
HETATM   14  H2  UNL     1     -10.393  16.046  71.342  1.00  0.00     0.000 HD 
HETATM   15  H1  UNL     1     -12.035  15.388  71.169  1.00  0.00     0.000 HD 
HETATM   16  O   UNL     1     -12.033  15.372  68.721  1.00  0.00    -0.331 OA 
HETATM   17  N   UNL     1     -11.169  15.734  70.758  1.00  0.00    -0.355 N  
ENDBRANCH   4  13
BRANCH  11  18
HETATM   18  O   UNL     1      -6.584  13.655  67.700  1.00  0.00    -0.160 OA 
BRANCH  18  19
HETATM   19  C   UNL     1      -7.791  12.977  67.735  1.00  0.00    -0.157 A  
HETATM   20  C   UNL     1      -8.523  13.115  68.922  1.00  0.00     0.270 A  
HETATM   21  C   UNL     1     -10.105  11.386  68.242  1.00  0.00    -0.196 A  
HETATM   22  C   UNL     1      -9.673  12.338  69.170  1.00  0.00     0.430 A  
HETATM   23  C   UNL     1      -9.385  11.266  67.053  1.00  0.00    -0.172 A  
HETATM   24 CL   UNL     1      -9.838  10.103  65.845  1.00  0.00    -0.288 Cl 
HETATM   25  C   UNL     1      -8.256  12.053  66.804  1.00  0.00    -0.110 A  
BRANCH  21  26
HETATM   26  N   UNL     1     -11.191  10.508  68.450  1.00  0.00    -0.332 N  
HETATM   27  H   UNL     1     -11.470   9.934  67.654  1.00  0.00     0.000 HD 
BRANCH  26  28
HETATM   28  C   UNL     1     -11.910  10.342  69.602  1.00  0.00    -0.111 C  
HETATM   29  O   UNL     1     -12.625  11.194  70.118  1.00  0.00    -0.258 OA 
BRANCH  28  30
HETATM   30  N   UNL     1     -11.753   9.088  70.154  1.00  0.00    -0.463 N  
HETATM   31  H   UNL     1     -12.557   8.609  70.561  1.00  0.00     0.000 HD 
BRANCH  30  32
HETATM   32  C   UNL     1     -10.474   8.456  70.161  1.00  0.00    -0.228 C  
HETATM   33  C   UNL     1      -9.391   8.812  71.136  1.00  0.00    -0.297 C  
HETATM   34  C   UNL     1     -10.131   7.516  71.286  1.00  0.00    -0.197 C  
ENDBRANCH  30  32
ENDBRANCH  28  30
ENDBRANCH  26  28
ENDBRANCH  21  26
ENDBRANCH  18  19
ENDBRANCH  11  18
ENDBRANCH   2   3
TORSDOF 8
ENDMDL
MODEL      266
REMARK 921   NORMALIZED FREE ENERGY PREDICTED BY IDOCK:   -0.55 KCAL/MOL
REMARK 922        TOTAL FREE ENERGY PREDICTED BY IDOCK:   -2.34 KCAL/MOL
REMARK 923 INTER-LIGAND FREE ENERGY PREDICTED BY IDOCK:   -5.50 KCAL/MOL
REMARK 924 INTRA-LIGAND FREE ENERGY PREDICTED BY IDOCK:    3.15 KCAL/MOL
REMARK 927      BINDING AFFINITY PREDICTED BY RF-SCORE:    0.00 PKD
ROOT
HETATM    1  C   UNL     1      -5.202  15.243  71.298  1.00  0.00    -0.099 C  
HETATM    2  O   UNL     1      -5.127  13.841  71.551  1.00  0.00    -0.126 OA 
ENDROOT
BRANCH   2   3
HETATM    3  C   UNL     1      -5.793  13.043  70.658  1.00  0.00    -0.123 A  
HETATM    4  C   UNL     1      -6.453  13.630  69.570  1.00  0.00    -0.099 A  
HETATM    5  N   UNL     1      -6.687   9.567  70.344  1.00  0.00    -0.080 NA 
HETATM    6  C   UNL     1      -7.194  12.813  68.687  1.00  0.00    -0.104 A  
HETATM    7  C   UNL     1      -6.636  10.858  70.009  1.00  0.00    -0.151 A  
HETATM    8  C   UNL     1      -7.305  11.411  68.893  1.00  0.00    -0.114 A  
HETATM    9  C   UNL     1      -7.492   8.772  69.632  1.00  0.00    -0.071 A  
HETATM   10  C   UNL     1      -5.906  11.666  70.857  1.00  0.00     0.074 A  
HETATM   11  C   UNL     1      -8.070  10.511  68.095  1.00  0.00    -0.113 A  
HETATM   12  C   UNL     1      -8.227   9.208  68.553  1.00  0.00    -0.115 A  
BRANCH   4  13
HETATM   13  C   UNL     1      -6.323  15.094  69.312  1.00  0.00    -0.117 C  
HETATM   14  H2  UNL     1      -8.227  15.500  70.070  1.00  0.00     0.000 HD 
HETATM   15  H1  UNL     1      -7.293  16.892  69.478  1.00  0.00     0.000 HD 
HETATM   16  O   UNL     1      -5.329  15.597  68.804  1.00  0.00    -0.097 OA 
HETATM   17  N   UNL     1      -7.382  15.891  69.654  1.00  0.00    -0.156 N  
ENDBRANCH   4  13
BRANCH  11  18
HETATM   18  O   UNL     1      -8.714  11.035  66.987  1.00  0.00    -0.136 OA 
BRANCH  18  19
HETATM   19  C   UNL     1      -9.489  12.182  67.013  1.00  0.00    -0.201 A  
HETATM   20  C   UNL     1      -9.071  13.210  66.158  1.00  0.00     0.094 A  
HETATM   21  C   UNL     1     -10.649  14.786  67.148  1.00  0.00    -0.285 A  
HETATM   22  C   UNL     1      -9.650  14.494  66.215  1.00  0.00    -0.328 A  
HETATM   23  C   UNL     1     -11.076  13.754  67.986  1.00  0.00    -0.261 A  
HETATM   24 CL   UNL     1     -12.302  14.024  69.186  1.00  0.00    -0.282 Cl 
HETATM   25  C   UNL     1     -10.510  12.477  67.912  1.00  0.00    -0.226 A  
BRANCH  21  26
HETATM   26  N   UNL     1     -11.217  16.066  67.332  1.00  0.00    -0.163 N  
HETATM   27  H   UNL     1     -12.044  16.279  66.773  1.00  0.00     0.000 HD 
BRANCH  26  28
HETATM   28  C   UNL     1     -10.781  17.050  68.176  1.00  0.00    -0.374 C  
HETATM   29  O   UNL     1     -10.433  16.880  69.339  1.00  0.00    -0.321 OA 
BRANCH  28  30
HETATM   30  N   UNL     1     -10.767  18.295  67.584  1.00  0.00    -0.403 N  
HETATM   31  H   UNL     1     -11.640  18.808  67.461  1.00  0.00     0.000 HD 
BRANCH  30  32
HETATM   32  C   UNL     1      -9.538  18.871  67.142  1.00  0.00    -0.306 C  
HETATM   33  C   UNL     1      -9.107  20.260  67.512  1.00  0.00    -0.462 C  
HETATM   34  C   UNL     1      -8.430  19.078  68.139  1.00  0.00    -0.351 C  
ENDBRANCH  30  32
ENDBRANCH  28  30
ENDBRANCH  26  28
ENDBRANCH  21  26
ENDBRANCH  18  19
ENDBRANCH  11  18
ENDBRANCH   2   3
TORSDOF 8
ENDMDL
MODEL      267
REMARK 921   NORMALIZED FREE ENERGY PREDICTED BY IDOCK:   -0.52 KCAL/MOL
REMARK 922        TOTAL FREE ENERGY PREDICTED BY IDOCK:   -2.30 KCAL/MOL
REMARK 923 INTER-LIGAND FREE ENERGY PREDICTED BY IDOCK:   -3.36 KCAL/MOL
REMARK 924 INTRA-LIGAND FREE ENERGY PREDICTED BY IDOCK:    1.06 KCAL/MOL
REMARK 927      BINDING AFFINITY PREDICTED BY RF-SCORE:    0.00 PKD
ROOT
HETATM    1  C   UNL     1     -10.448  20.352  69.509  1.00  0.00     0.457 C  
HETATM    2  O   UNL     1     -10.349  18.953  69.770  1.00  0.00     0.284 OA 
ENDROOT
BRANCH   2   3
HETATM    3  C   UNL     1      -9.398  18.282  69.047  1.00  0.00    -0.093 A  
HETATM    4  C   UNL     1      -9.495  16.890  68.909  1.00  0.00    -0.241 A  
HETATM    5  N   UNL     1      -6.260  19.019  67.441  1.00  0.00    -0.177 NA 
HETATM    6  C   UNL     1      -8.479  16.190  68.220  1.00  0.00    -0.180 A  
HETATM    7  C   UNL     1      -7.279  18.267  67.856  1.00  0.00    -0.228 A  
HETATM    8  C   UNL     1      -7.348  16.865  67.685  1.00  0.00    -0.170 A  
HETATM    9  C   UNL     1      -5.201  18.396  66.914  1.00  0.00    -0.129 A  
HETATM   10  C   UNL     1      -8.285  18.939  68.521  1.00  0.00    -0.388 A  
HETATM   11  C   UNL     1      -6.247  16.247  67.023  1.00  0.00    -0.070 A  
HETATM   12  C   UNL     1      -5.135  17.031  66.739  1.00  0.00    -0.168 A  
BRANCH   4  13
HETATM   13  C   UNL     1     -10.690  16.163  69.431  1.00  0.00    -0.307 C  
HETATM   14  H2  UNL     1      -9.532  14.599  70.193  1.00  0.00     0.000 HD 
HETATM   15  H1  UNL     1     -11.289  14.478  70.431  1.00  0.00     0.000 HD 
HETATM   16  O   UNL     1     -11.834  16.577  69.296  1.00  0.00    -0.016 OA 
HETATM   17  N   UNL     1     -10.473  14.974  70.075  1.00  0.00    -0.167 N  
ENDBRANCH   4  13
BRANCH  11  18
HETATM   18  O   UNL     1      -6.310  14.878  66.831  1.00  0.00     0.017 OA 
BRANCH  18  19
HETATM   19  C   UNL     1      -7.356  14.083  67.264  1.00  0.00     0.003 A  
HETATM   20  C   UNL     1      -7.199  13.525  68.540  1.00  0.00    -0.110 A  
HETATM   21  C   UNL     1      -9.156  12.097  68.247  1.00  0.00    -0.191 A  
HETATM   22  C   UNL     1      -8.093  12.552  69.032  1.00  0.00     0.329 A  
HETATM   23  C   UNL     1      -9.321  12.668  66.984  1.00  0.00    -0.220 A  
HETATM   24 CL   UNL     1     -10.604  12.159  65.931  1.00  0.00    -0.284 Cl 
HETATM   25  C   UNL     1      -8.441  13.647  66.509  1.00  0.00     0.298 A  
BRANCH  21  26
HETATM   26  N   UNL     1     -10.042  11.065  68.627  1.00  0.00    -0.191 N  
HETATM   27  H   UNL     1     -10.802  10.857  67.979  1.00  0.00     0.000 HD 
BRANCH  26  28
HETATM   28  C   UNL     1      -9.991  10.312  69.769  1.00  0.00    -0.181 C  
HETATM   29  O   UNL     1      -9.271   9.335  69.939  1.00  0.00    -0.166 OA 
BRANCH  28  30
HETATM   30  N   UNL     1     -10.853  10.764  70.745  1.00  0.00    -0.093 N  
HETATM   31  H   UNL     1     -10.595  10.679  71.729  1.00  0.00     0.000 HD 
BRANCH  30  32
HETATM   32  C   UNL     1     -12.105  11.350  70.390  1.00  0.00    -0.384 C  
HETATM   33  C   UNL     1     -13.259  11.453  71.343  1.00  0.00    -0.245 C  
HETATM   34  C   UNL     1     -12.480  12.682  70.982  1.00  0.00    -0.354 C  
ENDBRANCH  30  32
ENDBRANCH  28  30
ENDBRANCH  26  28
ENDBRANCH  21  26
ENDBRANCH  18  19
ENDBRANCH  11  18
ENDBRANCH   2   3
TORSDOF 8
ENDMDL
MODEL      268
REMARK 921   NORMALIZED FREE ENERGY PREDICTED BY IDOCK:   -0.44 KCAL/MOL
REMARK 922        TOTAL FREE ENERGY PREDICTED BY IDOCK:   -2.17 KCAL/MOL
REMARK 923 INTER-LIGAND FREE ENERGY PREDICTED BY IDOCK:   -2.66 KCAL/MOL
REMARK 924 INTRA-LIGAND FREE ENERGY PREDICTED BY IDOCK:    0.48 KCAL/MOL
REMARK 927      BINDING AFFINITY PREDICTED BY RF-SCORE:    0.00 PKD
ROOT
HETATM    1  C   UNL     1      -6.392  13.943  73.437  1.00  0.00     1.421 C  
HETATM    2  O   UNL     1      -5.153  13.464  72.917  1.00  0.00    -0.312 OA 
ENDROOT
BRANCH   2   3
HETATM    3  C   UNL     1      -5.244  12.397  72.062  1.00  0.00     0.172 A  
HETATM    4  C   UNL     1      -5.530  12.623  70.708  1.00  0.00    -0.175 A  
HETATM    5  N   UNL     1      -5.229   8.801  72.276  1.00  0.00    -0.043 NA 
HETATM    6  C   UNL     1      -5.689  11.520  69.840  1.00  0.00    -0.104 A  
HETATM    7  C   UNL     1      -5.311   9.996  71.690  1.00  0.00    -0.047 A  
HETATM    8  C   UNL     1      -5.588  10.184  70.316  1.00  0.00    -0.054 A  
HETATM    9  C   UNL     1      -5.515   7.725  71.538  1.00  0.00    -0.035 A  
HETATM   10  C   UNL     1      -5.147  11.084  72.523  1.00  0.00     0.283 A  
HETATM   11  C   UNL     1      -5.784   9.006  69.536  1.00  0.00    -0.034 A  
HETATM   12  C   UNL     1      -5.843   7.788  70.202  1.00  0.00    -0.023 A  
BRANCH   4  13
HETATM   13  C   UNL     1      -5.606  14.016  70.178  1.00  0.00    -0.118 C  
HETATM   14  H2  UNL     1      -6.327  13.379  68.323  1.00  0.00     0.000 HD 
HETATM   15  H1  UNL     1      -6.106  15.130  68.532  1.00  0.00     0.000 HD 
HETATM   16  O   UNL     1      -5.276  14.998  70.831  1.00  0.00    -0.128 OA 
HETATM   17  N   UNL     1      -6.055  14.179  68.894  1.00  0.00    -0.082 N  
ENDBRANCH   4  13
BRANCH  11  18
HETATM   18  O   UNL     1      -6.035   9.174  68.185  1.00  0.00    -0.045 OA 
BRANCH  18  19
HETATM   19  C   UNL     1      -7.245   9.611  67.672  1.00  0.00    -0.089 A  
HETATM   20  C   UNL     1      -7.170  10.279  66.442  1.00  0.00    -0.113 A  
HETATM   21  C   UNL     1      -9.508  10.962  66.579  1.00  0.00    -0.185 A  
HETATM   22  C   UNL     1      -8.290  10.938  65.895  1.00  0.00    -0.149 A  
HETATM   23  C   UNL     1      -9.584  10.281  67.794  1.00  0.00    -0.152 A  
HETATM   24 CL   UNL     1     -11.052  10.265  68.723  1.00  0.00    -0.278 Cl 
HETATM   25  C   UNL     1      -8.475   9.613  68.323  1.00  0.00    -0.118 A  
BRANCH  21  26
HETATM   26  N   UNL     1     -10.650  11.672  66.145  1.00  0.00    -0.253 N  
HETATM   27  H   UNL     1     -11.273  11.181  65.503  1.00  0.00     0.000 HD 
BRANCH  26  28
HETATM   28  C   UNL     1     -11.012  12.945  66.491  1.00  0.00    -0.275 C  
HETATM   29  O   UNL     1     -10.260  13.789  66.966  1.00  0.00    -0.250 OA 
BRANCH  28  30
HETATM   30  N   UNL     1     -12.345  13.206  66.253  1.00  0.00    -0.351 N  
HETATM   31  H   UNL     1     -12.962  13.443  67.030  1.00  0.00     0.000 HD 
BRANCH  30  32
HETATM   32  C   UNL     1     -12.867  13.146  64.926  1.00  0.00    -0.280 C  
HETATM   33  C   UNL     1     -12.305  13.949  63.790  1.00  0.00    -0.260 C  
HETATM   34  C   UNL     1     -12.056  12.472  63.853  1.00  0.00    -0.581 C  
ENDBRANCH  30  32
ENDBRANCH  28  30
ENDBRANCH  26  28
ENDBRANCH  21  26
ENDBRANCH  18  19
ENDBRANCH  11  18
ENDBRANCH   2   3
TORSDOF 8
ENDMDL
MODEL      269
REMARK 921   NORMALIZED FREE ENERGY PREDICTED BY IDOCK:   -0.16 KCAL/MOL
REMARK 922        TOTAL FREE ENERGY PREDICTED BY IDOCK:   -1.77 KCAL/MOL
REMARK 923 INTER-LIGAND FREE ENERGY PREDICTED BY IDOCK:   -1.20 KCAL/MOL
REMARK 924 INTRA-LIGAND FREE ENERGY PREDICTED BY IDOCK:   -0.57 KCAL/MOL
REMARK 927      BINDING AFFINITY PREDICTED BY RF-SCORE:    0.00 PKD
ROOT
HETATM    1  C   UNL     1      -6.407  13.660  74.256  1.00  0.00     1.045 C  
HETATM    2  O   UNL     1      -5.207  13.152  73.675  1.00  0.00    -0.390 OA 
ENDROOT
BRANCH   2   3
HETATM    3  C   UNL     1      -5.320  12.696  72.387  1.00  0.00     0.407 A  
HETATM    4  C   UNL     1      -5.241  11.319  72.136  1.00  0.00     0.312 A  
HETATM    5  N   UNL     1      -5.520  14.094  69.073  1.00  0.00    -0.083 NA 
HETATM    6  C   UNL     1      -5.291  10.854  70.802  1.00  0.00    -0.110 A  
HETATM    7  C   UNL     1      -5.460  13.138  70.001  1.00  0.00    -0.110 A  
HETATM    8  C   UNL     1      -5.396  11.756  69.709  1.00  0.00    -0.075 A  
HETATM    9  C   UNL     1      -5.422  13.725  67.793  1.00  0.00    -0.042 A  
HETATM   10  C   UNL     1      -5.422  13.576  71.309  1.00  0.00    -0.207 A  
HETATM   11  C   UNL     1      -5.400  11.394  68.329  1.00  0.00    -0.042 A  
HETATM   12  C   UNL     1      -5.310  12.413  67.389  1.00  0.00    -0.107 A  
BRANCH   4  13
HETATM   13  C   UNL     1      -5.166  10.350  73.269  1.00  0.00     0.301 C  
HETATM   14  H2  UNL     1      -5.168   8.698  71.990  1.00  0.00     0.000 HD 
HETATM   15  H1  UNL     1      -5.087   8.355  73.732  1.00  0.00     0.000 HD 
HETATM   16  O   UNL     1      -5.142  10.697  74.443  1.00  0.00    -0.335 OA 
HETATM   17  N   UNL     1      -5.139   9.017  72.958  1.00  0.00    -0.067 N  
ENDBRANCH   4  13
BRANCH  11  18
HETATM   18  O   UNL     1      -5.358  10.043  68.028  1.00  0.00    -0.039 OA 
BRANCH  18  19
HETATM   19  C   UNL     1      -6.422   9.176  68.211  1.00  0.00    -0.055 A  
HETATM   20  C   UNL     1      -6.119   7.815  68.071  1.00  0.00    -0.045 A  
HETATM   21  C   UNL     1      -8.479   7.200  68.139  1.00  0.00    -0.123 A  
HETATM   22  C   UNL     1      -7.133   6.836  68.046  1.00  0.00    -0.085 A  
HETATM   23  C   UNL     1      -8.776   8.554  68.297  1.00  0.00    -0.143 A  
HETATM   24 CL   UNL     1     -10.420   9.104  68.408  1.00  0.00    -0.243 Cl 
HETATM   25  C   UNL     1      -7.764   9.519  68.340  1.00  0.00    -0.085 A  
BRANCH  21  26
HETATM   26  N   UNL     1      -9.557   6.293  68.033  1.00  0.00    -0.115 N  
HETATM   27  H   UNL     1      -9.982   6.198  67.110  1.00  0.00     0.000 HD 
BRANCH  26  28
HETATM   28  C   UNL     1     -10.094   5.529  69.033  1.00  0.00    -0.205 C  
HETATM   29  O   UNL     1     -11.272   5.540  69.375  1.00  0.00    -0.089 OA 
BRANCH  28  30
HETATM   30  N   UNL     1      -9.163   4.717  69.644  1.00  0.00    -0.113 N  
HETATM   31  H   UNL     1      -8.748   3.942  69.127  1.00  0.00     0.000 HD 
BRANCH  30  32
HETATM   32  C   UNL     1      -8.776   4.954  70.997  1.00  0.00    -0.125 C  
HETATM   33  C   UNL     1      -7.446   5.535  71.377  1.00  0.00    -0.098 C  
HETATM   34  C   UNL     1      -8.684   6.372  71.493  1.00  0.00    -0.134 C  
ENDBRANCH  30  32
ENDBRANCH  28  30
ENDBRANCH  26  28
ENDBRANCH  21  26
ENDBRANCH  18  19
ENDBRANCH  11  18
ENDBRANCH   2   3
TORSDOF 8
ENDMDL
MODEL      270
REMARK 921   NORMALIZED FREE ENERGY PREDICTED BY IDOCK:    0.19 KCAL/MOL
REMARK 922        TOTAL FREE ENERGY PREDICTED BY IDOCK:   -1.25 KCAL/MOL
REMARK 923 INTER-LIGAND FREE ENERGY PREDICTED BY IDOCK:   -2.54 KCAL/MOL
REMARK 924 INTRA-LIGAND FREE ENERGY PREDICTED BY IDOCK:    1.29 KCAL/MOL
REMARK 927      BINDING AFFINITY PREDICTED BY RF-SCORE:    0.00 PKD
ROOT
HETATM    1  C   UNL     1     -10.900  21.272  69.637  1.00  0.00     1.814 C  
HETATM    2  O   UNL     1     -10.599  19.878  69.696  1.00  0.00     0.134 OA 
ENDROOT
BRANCH   2   3
HETATM    3  C   UNL     1      -9.556  19.465  68.910  1.00  0.00    -0.415 A  
HETATM    4  C   UNL     1      -9.466  18.115  68.542  1.00  0.00    -0.339 A  
HETATM    5  N   UNL     1      -6.516  20.855  67.567  1.00  0.00    -0.312 NA 
HETATM    6  C   UNL     1      -8.355  17.675  67.787  1.00  0.00    -0.226 A  
HETATM    7  C   UNL     1      -7.435  19.920  67.815  1.00  0.00    -0.291 A  
HETATM    8  C   UNL     1      -7.315  18.569  67.414  1.00  0.00    -0.222 A  
HETATM    9  C   UNL     1      -5.376  20.468  66.986  1.00  0.00    -0.171 A  
HETATM   10  C   UNL     1      -8.531  20.337  68.542  1.00  0.00     0.176 A  
HETATM   11  C   UNL     1      -6.130  18.216  66.702  1.00  0.00    -0.163 A  
HETATM   12  C   UNL     1      -5.127  19.172  66.593  1.00  0.00    -0.159 A  
BRANCH   4  13
HETATM   13  C   UNL     1     -10.563  17.165  68.892  1.00  0.00    -0.314 C  
HETATM   14  H2  UNL     1     -11.521  17.437  67.055  1.00  0.00     0.000 HD 
HETATM   15  H1  UNL     1     -12.290  16.310  68.195  1.00  0.00     0.000 HD 
HETATM   16  O   UNL     1     -10.625  16.584  69.968  1.00  0.00    -0.276 OA 
HETATM   17  N   UNL     1     -11.541  16.959  67.956  1.00  0.00     0.235 N  
ENDBRANCH   4  13
BRANCH  11  18
HETATM   18  O   UNL     1      -6.008  16.901  66.286  1.00  0.00    -0.290 OA 
BRANCH  18  19
HETATM   19  C   UNL     1      -6.673  15.839  66.874  1.00  0.00     0.171 A  
HETATM   20  C   UNL     1      -7.916  15.521  66.310  1.00  0.00     0.411 A  
HETATM   21  C   UNL     1      -8.432  13.970  68.122  1.00  0.00    -0.172 A  
HETATM   22  C   UNL     1      -8.782  14.590  66.919  1.00  0.00    -0.237 A  
HETATM   23  C   UNL     1      -7.186  14.275  68.670  1.00  0.00    -0.125 A  
HETATM   24 CL   UNL     1      -6.668  13.565  70.168  1.00  0.00     0.172 Cl 
HETATM   25  C   UNL     1      -6.323  15.185  68.051  1.00  0.00    -0.158 A  
BRANCH  21  26
HETATM   26  N   UNL     1      -9.276  13.096  68.841  1.00  0.00    -0.373 N  
HETATM   27  H   UNL     1      -9.069  12.978  69.833  1.00  0.00     0.000 HD 
BRANCH  26  28
HETATM   28  C   UNL     1     -10.342  12.389  68.354  1.00  0.00    -0.229 C  
HETATM   29  O   UNL     1     -11.368  12.883  67.898  1.00  0.00    -0.258 OA 
BRANCH  28  30
HETATM   30  N   UNL     1     -10.156  11.025  68.422  1.00  0.00    -0.177 N  
HETATM   31  H   UNL     1      -9.918  10.502  67.579  1.00  0.00     0.000 HD 
BRANCH  30  32
HETATM   32  C   UNL     1     -10.294  10.339  69.666  1.00  0.00    -0.248 C  
HETATM   33  C   UNL     1     -10.559   8.865  69.761  1.00  0.00    -0.230 C  
HETATM   34  C   UNL     1      -9.202   9.401  70.107  1.00  0.00    -0.268 C  
ENDBRANCH  30  32
ENDBRANCH  28  30
ENDBRANCH  26  28
ENDBRANCH  21  26
ENDBRANCH  18  19
ENDBRANCH  11  18
ENDBRANCH   2   3
TORSDOF 8
ENDMDL
MODEL      271
REMARK 921   NORMALIZED FREE ENERGY PREDICTED BY IDOCK:    0.29 KCAL/MOL
REMARK 922        TOTAL FREE ENERGY PREDICTED BY IDOCK:   -1.11 KCAL/MOL
REMARK 923 INTER-LIGAND FREE ENERGY PREDICTED BY IDOCK:   -1.17 KCAL/MOL
REMARK 924 INTRA-LIGAND FREE ENERGY PREDICTED BY IDOCK:    0.06 KCAL/MOL
REMARK 927      BINDING AFFINITY PREDICTED BY RF-SCORE:    0.00 PKD
ROOT
HETATM    1  C   UNL     1      -6.431  13.656  74.255  1.00  0.00     1.367 C  
HETATM    2  O   UNL     1      -5.221  13.144  73.701  1.00  0.00    -0.390 OA 
ENDROOT
BRANCH   2   3
HETATM    3  C   UNL     1      -5.315  12.656  72.423  1.00  0.00     0.407 A  
HETATM    4  C   UNL     1      -5.256  11.272  72.209  1.00  0.00     0.373 A  
HETATM    5  N   UNL     1      -5.416  13.970  69.071  1.00  0.00    -0.082 NA 
HETATM    6  C   UNL     1      -5.286  10.773  70.888  1.00  0.00    -0.105 A  
HETATM    7  C   UNL     1      -5.394  13.038  70.024  1.00  0.00    -0.102 A  
HETATM    8  C   UNL     1      -5.350  11.648  69.769  1.00  0.00    -0.070 A  
HETATM    9  C   UNL     1      -5.297  13.565  67.803  1.00  0.00    -0.058 A  
HETATM   10  C   UNL     1      -5.376  13.510  71.321  1.00  0.00    -0.196 A  
HETATM   11  C   UNL     1      -5.331  11.249  68.400  1.00  0.00    -0.042 A  
HETATM   12  C   UNL     1      -5.200  12.241  67.435  1.00  0.00    -0.105 A  
BRANCH   4  13
HETATM   13  C   UNL     1      -5.224  10.332  73.369  1.00  0.00     0.238 C  
HETATM   14  H2  UNL     1      -5.228   8.647  72.133  1.00  0.00     0.000 HD 
HETATM   15  H1  UNL     1      -5.192   8.349  73.885  1.00  0.00     0.000 HD 
HETATM   16  O   UNL     1      -5.219  10.709  74.533  1.00  0.00    -0.352 OA 
HETATM   17  N   UNL     1      -5.214   8.991  73.093  1.00  0.00    -0.072 N  
ENDBRANCH   4  13
BRANCH  11  18
HETATM   18  O   UNL     1      -5.307   9.891  68.135  1.00  0.00    -0.039 OA 
BRANCH  18  19
HETATM   19  C   UNL     1      -6.324   9.212  67.485  1.00  0.00    -0.063 A  
HETATM   20  C   UNL     1      -6.150   7.825  67.379  1.00  0.00    -0.049 A  
HETATM   21  C   UNL     1      -8.048   7.620  65.861  1.00  0.00    -0.122 A  
HETATM   22  C   UNL     1      -7.007   7.036  66.586  1.00  0.00    -0.073 A  
HETATM   23  C   UNL     1      -8.231   8.998  65.984  1.00  0.00    -0.113 A  
HETATM   24 CL   UNL     1      -9.491   9.816  65.111  1.00  0.00    -0.322 Cl 
HETATM   25  C   UNL     1      -7.389   9.774  66.787  1.00  0.00    -0.091 A  
BRANCH  21  26
HETATM   26  N   UNL     1      -8.895   6.916  64.976  1.00  0.00    -0.343 N  
HETATM   27  H   UNL     1      -9.789   7.356  64.756  1.00  0.00     0.000 HD 
BRANCH  26  28
HETATM   28  C   UNL     1      -8.647   5.709  64.381  1.00  0.00     0.016 C  
HETATM   29  O   UNL     1      -7.617   5.413  63.786  1.00  0.00    -0.063 OA 
BRANCH  28  30
HETATM   30  N   UNL     1      -9.695   4.823  64.512  1.00  0.00    -0.362 N  
HETATM   31  H   UNL     1     -10.125   4.677  65.425  1.00  0.00     0.000 HD 
BRANCH  30  32
HETATM   32  C   UNL     1     -10.184   4.109  63.377  1.00  0.00    -0.056 C  
HETATM   33  C   UNL     1      -9.493   2.903  62.811  1.00  0.00    -0.092 C  
HETATM   34  C   UNL     1     -10.772   2.738  63.576  1.00  0.00    -0.209 C  
ENDBRANCH  30  32
ENDBRANCH  28  30
ENDBRANCH  26  28
ENDBRANCH  21  26
ENDBRANCH  18  19
ENDBRANCH  11  18
ENDBRANCH   2   3
TORSDOF 8
ENDMDL
MODEL      272
REMARK 921   NORMALIZED FREE ENERGY PREDICTED BY IDOCK:    0.61 KCAL/MOL
REMARK 922        TOTAL FREE ENERGY PREDICTED BY IDOCK:   -0.64 KCAL/MOL
REMARK 923 INTER-LIGAND FREE ENERGY PREDICTED BY IDOCK:   -2.10 KCAL/MOL
REMARK 924 INTRA-LIGAND FREE ENERGY PREDICTED BY IDOCK:    1.46 KCAL/MOL
REMARK 927      BINDING AFFINITY PREDICTED BY RF-SCORE:    0.00 PKD
ROOT
HETATM    1  C   UNL     1     -10.900  21.270  69.636  1.00  0.00     1.814 C  
HETATM    2  O   UNL     1     -10.604  19.875  69.679  1.00  0.00     0.134 OA 
ENDROOT
BRANCH   2   3
HETATM    3  C   UNL     1      -9.563  19.466  68.887  1.00  0.00    -0.415 A  
HETATM    4  C   UNL     1      -9.484  18.123  68.495  1.00  0.00    -0.339 A  
HETATM    5  N   UNL     1      -6.508  20.853  67.576  1.00  0.00    -0.312 NA 
HETATM    6  C   UNL     1      -8.376  17.687  67.735  1.00  0.00    -0.226 A  
HETATM    7  C   UNL     1      -7.435  19.922  67.805  1.00  0.00    -0.291 A  
HETATM    8  C   UNL     1      -7.327  18.578  67.380  1.00  0.00    -0.222 A  
HETATM    9  C   UNL     1      -5.370  20.467  66.991  1.00  0.00    -0.171 A  
HETATM   10  C   UNL     1      -8.530  20.336  68.537  1.00  0.00     0.176 A  
HETATM   11  C   UNL     1      -6.144  18.227  66.664  1.00  0.00    -0.159 A  
HETATM   12  C   UNL     1      -5.132  19.176  66.575  1.00  0.00    -0.154 A  
BRANCH   4  13
HETATM   13  C   UNL     1     -10.590  17.176  68.825  1.00  0.00    -0.336 C  
HETATM   14  H2  UNL     1     -11.542  17.490  66.992  1.00  0.00     0.000 HD 
HETATM   15  H1  UNL     1     -12.324  16.350  68.109  1.00  0.00     0.000 HD 
HETATM   16  O   UNL     1     -10.660  16.577  69.890  1.00  0.00    -0.294 OA 
HETATM   17  N   UNL     1     -11.568  16.997  67.884  1.00  0.00     0.352 N  
ENDBRANCH   4  13
BRANCH  11  18
HETATM   18  O   UNL     1      -6.033  16.920  66.224  1.00  0.00    -0.290 OA 
BRANCH  18  19
HETATM   19  C   UNL     1      -6.713  15.853  66.788  1.00  0.00     0.258 A  
HETATM   20  C   UNL     1      -5.914  14.922  67.466  1.00  0.00     0.031 A  
HETATM   21  C   UNL     1      -7.781  13.368  67.697  1.00  0.00    -0.177 A  
HETATM   22  C   UNL     1      -6.443  13.699  67.926  1.00  0.00    -0.159 A  
HETATM   23  C   UNL     1      -8.578  14.306  67.039  1.00  0.00    -0.192 A  
HETATM   24 CL   UNL     1     -10.250  13.980  66.699  1.00  0.00    -0.270 Cl 
HETATM   25  C   UNL     1      -8.052  15.526  66.602  1.00  0.00    -0.189 A  
BRANCH  21  26
HETATM   26  N   UNL     1      -8.366  12.130  68.045  1.00  0.00    -0.159 N  
HETATM   27  H   UNL     1      -9.217  11.873  67.545  1.00  0.00     0.000 HD 
BRANCH  26  28
HETATM   28  C   UNL     1      -7.915  11.238  68.979  1.00  0.00    -0.061 C  
HETATM   29  O   UNL     1      -6.849  10.635  68.924  1.00  0.00    -0.057 OA 
BRANCH  28  30
HETATM   30  N   UNL     1      -8.797  11.069  70.026  1.00  0.00     0.474 N  
HETATM   31  H   UNL     1      -8.609  11.514  70.924  1.00  0.00     0.000 HD 
BRANCH  30  32
HETATM   32  C   UNL     1      -9.971  10.274  69.861  1.00  0.00    -0.135 C  
HETATM   33  C   UNL     1     -10.719   9.673  71.014  1.00  0.00    -0.393 C  
HETATM   34  C   UNL     1     -11.301  10.842  70.278  1.00  0.00    -0.342 C  
ENDBRANCH  30  32
ENDBRANCH  28  30
ENDBRANCH  26  28
ENDBRANCH  21  26
ENDBRANCH  18  19
ENDBRANCH  11  18
ENDBRANCH   2   3
TORSDOF 8
ENDMDL
MODEL      273
REMARK 921   NORMALIZED FREE ENERGY PREDICTED BY IDOCK:    0.90 KCAL/MOL
REMARK 922        TOTAL FREE ENERGY PREDICTED BY IDOCK:   -0.22 KCAL/MOL
REMARK 923 INTER-LIGAND FREE ENERGY PREDICTED BY IDOCK:   -3.15 KCAL/MOL
REMARK 924 INTRA-LIGAND FREE ENERGY PREDICTED BY IDOCK:    2.93 KCAL/MOL
REMARK 927      BINDING AFFINITY PREDICTED BY RF-SCORE:    0.00 PKD
ROOT
HETATM    1  C   UNL     1     -10.761  20.761  70.046  1.00  0.00     1.488 C  
HETATM    2  O   UNL     1     -10.623  19.343  69.987  1.00  0.00     0.661 OA 
ENDROOT
BRANCH   2   3
HETATM    3  C   UNL     1      -9.593  18.880  69.211  1.00  0.00    -0.072 A  
HETATM    4  C   UNL     1      -9.601  17.545  68.782  1.00  0.00    -0.277 A  
HETATM    5  N   UNL     1      -6.411  20.073  68.016  1.00  0.00    -0.245 NA 
HETATM    6  C   UNL     1      -8.508  17.049  68.037  1.00  0.00    -0.216 A  
HETATM    7  C   UNL     1      -7.410  19.207  68.195  1.00  0.00    -0.270 A  
HETATM    8  C   UNL     1      -7.388  17.870  67.734  1.00  0.00    -0.209 A  
HETATM    9  C   UNL     1      -5.289  19.620  67.448  1.00  0.00    -0.161 A  
HETATM   10  C   UNL     1      -8.490  19.680  68.911  1.00  0.00    -0.230 A  
HETATM   11  C   UNL     1      -6.215  17.453  67.038  1.00  0.00    -0.168 A  
HETATM   12  C   UNL     1      -5.135  18.327  67.002  1.00  0.00    -0.139 A  
BRANCH   4  13
HETATM   13  C   UNL     1     -10.782  16.673  69.058  1.00  0.00    -0.343 C  
HETATM   14  H2  UNL     1      -9.704  15.455  70.369  1.00  0.00     0.000 HD 
HETATM   15  H1  UNL     1     -11.413  15.035  70.115  1.00  0.00     0.000 HD 
HETATM   16  O   UNL     1     -11.875  16.847  68.536  1.00  0.00     0.268 OA 
HETATM   17  N   UNL     1     -10.606  15.630  69.927  1.00  0.00    -0.300 N  
ENDBRANCH   4  13
BRANCH  11  18
HETATM   18  O   UNL     1      -6.187  16.153  66.564  1.00  0.00    -0.158 OA 
BRANCH  18  19
HETATM   19  C   UNL     1      -7.201  15.232  66.771  1.00  0.00     0.464 A  
HETATM   20  C   UNL     1      -8.437  15.560  66.199  1.00  0.00     0.047 A  
HETATM   21  C   UNL     1      -9.554  13.731  67.366  1.00  0.00    -0.229 A  
HETATM   22  C   UNL     1      -9.599  14.814  66.483  1.00  0.00    -0.304 A  
HETATM   23  C   UNL     1      -8.317  13.395  67.918  1.00  0.00    -0.166 A  
HETATM   24 CL   UNL     1      -8.164  12.074  69.035  1.00  0.00     0.144 Cl 
HETATM   25  C   UNL     1      -7.164  14.128  67.618  1.00  0.00    -0.195 A  
BRANCH  21  26
HETATM   26  N   UNL     1     -10.684  12.988  67.772  1.00  0.00    -0.225 N  
HETATM   27  H   UNL     1     -11.186  13.335  68.590  1.00  0.00     0.000 HD 
BRANCH  26  28
HETATM   28  C   UNL     1     -11.181  11.855  67.188  1.00  0.00    -0.319 C  
HETATM   29  O   UNL     1     -12.155  11.224  67.585  1.00  0.00    -0.600 OA 
BRANCH  28  30
HETATM   30  N   UNL     1     -10.466  11.470  66.075  1.00  0.00    -0.244 N  
HETATM   31  H   UNL     1      -9.474  11.247  66.161  1.00  0.00     0.000 HD 
BRANCH  30  32
HETATM   32  C   UNL     1     -11.103  11.379  64.801  1.00  0.00    -0.188 C  
HETATM   33  C   UNL     1     -11.216  12.542  63.859  1.00  0.00    -0.496 C  
HETATM   34  C   UNL     1     -10.257  11.429  63.557  1.00  0.00    -0.461 C  
ENDBRANCH  30  32
ENDBRANCH  28  30
ENDBRANCH  26  28
ENDBRANCH  21  26
ENDBRANCH  18  19
ENDBRANCH  11  18
ENDBRANCH   2   3
TORSDOF 8
ENDMDL
MODEL      274
REMARK 921   NORMALIZED FREE ENERGY PREDICTED BY IDOCK:    1.51 KCAL/MOL
REMARK 922        TOTAL FREE ENERGY PREDICTED BY IDOCK:    0.68 KCAL/MOL
REMARK 923 INTER-LIGAND FREE ENERGY PREDICTED BY IDOCK:    0.51 KCAL/MOL
REMARK 924 INTRA-LIGAND FREE ENERGY PREDICTED BY IDOCK:    0.16 KCAL/MOL
REMARK 927      BINDING AFFINITY PREDICTED BY RF-SCORE:    0.00 PKD
ROOT
HETATM    1  C   UNL     1      -5.987  16.741  70.241  1.00  0.00    -0.043 C  
HETATM    2  O   UNL     1      -6.983  15.998  69.542  1.00  0.00    -0.207 OA 
ENDROOT
BRANCH   2   3
HETATM    3  C   UNL     1      -6.687  14.680  69.314  1.00  0.00    -0.134 A  
HETATM    4  C   UNL     1      -6.383  13.846  70.400  1.00  0.00    -0.041 A  
HETATM    5  N   UNL     1      -6.134  12.523  66.483  1.00  0.00     0.322 NA 
HETATM    6  C   UNL     1      -6.013  12.504  70.160  1.00  0.00    -0.142 A  
HETATM    7  C   UNL     1      -6.220  12.862  67.770  1.00  0.00    -0.144 A  
HETATM    8  C   UNL     1      -5.919  11.988  68.839  1.00  0.00    -0.060 A  
HETATM    9  C   UNL     1      -5.648  11.313  66.190  1.00  0.00    -0.101 A  
HETATM   10  C   UNL     1      -6.591  14.168  68.020  1.00  0.00    -0.156 A  
HETATM   11  C   UNL     1      -5.504  10.669  68.489  1.00  0.00    -0.040 A  
HETATM   12  C   UNL     1      -5.278  10.393  67.146  1.00  0.00    -0.040 A  
BRANCH   4  13
HETATM   13  C   UNL     1      -6.509  14.355  71.797  1.00  0.00     0.932 C  
HETATM   14  H2  UNL     1      -4.630  13.621  72.342  1.00  0.00     0.000 HD 
HETATM   15  H1  UNL     1      -5.549  14.470  73.605  1.00  0.00     0.000 HD 
HETATM   16  O   UNL     1      -7.499  14.949  72.205  1.00  0.00     2.733 OA 
HETATM   17  N   UNL     1      -5.463  14.122  72.650  1.00  0.00    -0.196 N  
ENDBRANCH   4  13
BRANCH  11  18
HETATM   18  O   UNL     1      -5.225   9.795  69.526  1.00  0.00    -0.035 OA 
BRANCH  18  19
HETATM   19  C   UNL     1      -6.179   9.017  70.160  1.00  0.00    -0.038 A  
HETATM   20  C   UNL     1      -6.992   8.253  69.313  1.00  0.00    -0.058 A  
HETATM   21  C   UNL     1      -8.472   7.638  71.152  1.00  0.00    -0.116 A  
HETATM   22  C   UNL     1      -8.119   7.562  69.802  1.00  0.00    -0.126 A  
HETATM   23  C   UNL     1      -7.649   8.385  71.997  1.00  0.00    -0.117 A  
HETATM   24 CL   UNL     1      -8.013   8.548  73.687  1.00  0.00    -0.155 Cl 
HETATM   25  C   UNL     1      -6.521   9.053  71.509  1.00  0.00    -0.071 A  
BRANCH  21  26
HETATM   26  N   UNL     1      -9.631   7.051  71.706  1.00  0.00    -0.156 N  
HETATM   27  H   UNL     1      -9.772   7.182  72.708  1.00  0.00     0.000 HD 
BRANCH  26  28
HETATM   28  C   UNL     1     -10.586   6.327  71.046  1.00  0.00    -0.238 C  
HETATM   29  O   UNL     1     -11.308   6.758  70.153  1.00  0.00    -0.311 OA 
BRANCH  28  30
HETATM   30  N   UNL     1     -10.670   5.024  71.488  1.00  0.00    -0.109 N  
HETATM   31  H   UNL     1     -10.683   4.259  70.814  1.00  0.00     0.000 HD 
BRANCH  30  32
HETATM   32  C   UNL     1     -10.738   4.738  72.885  1.00  0.00    -0.232 C  
HETATM   33  C   UNL     1     -10.641   3.347  73.440  1.00  0.00    -0.283 C  
HETATM   34  C   UNL     1      -9.490   4.294  73.600  1.00  0.00    -0.123 C  
ENDBRANCH  30  32
ENDBRANCH  28  30
ENDBRANCH  26  28
ENDBRANCH  21  26
ENDBRANCH  18  19
ENDBRANCH  11  18
ENDBRANCH   2   3
TORSDOF 8
ENDMDL
MODEL      275
REMARK 921   NORMALIZED FREE ENERGY PREDICTED BY IDOCK:    1.78 KCAL/MOL
REMARK 922        TOTAL FREE ENERGY PREDICTED BY IDOCK:    1.08 KCAL/MOL
REMARK 923 INTER-LIGAND FREE ENERGY PREDICTED BY IDOCK:   -2.47 KCAL/MOL
REMARK 924 INTRA-LIGAND FREE ENERGY PREDICTED BY IDOCK:    3.55 KCAL/MOL
REMARK 927      BINDING AFFINITY PREDICTED BY RF-SCORE:    0.00 PKD
ROOT
HETATM    1  C   UNL     1      -8.991   4.789  65.154  1.00  0.00    -0.152 C  
HETATM    2  O   UNL     1      -9.595   4.816  66.446  1.00  0.00    -0.146 OA 
ENDROOT
BRANCH   2   3
HETATM    3  C   UNL     1      -9.643   6.044  67.051  1.00  0.00    -0.133 A  
HETATM    4  C   UNL     1      -8.774   7.057  66.621  1.00  0.00    -0.131 A  
HETATM    5  N   UNL     1     -11.295   7.565  69.868  1.00  0.00    -0.111 NA 
HETATM    6  C   UNL     1      -8.777   8.302  67.289  1.00  0.00    -0.126 A  
HETATM    7  C   UNL     1     -10.478   7.491  68.816  1.00  0.00    -0.194 A  
HETATM    8  C   UNL     1      -9.626   8.541  68.403  1.00  0.00    -0.157 A  
HETATM    9  C   UNL     1     -11.235   8.663  70.627  1.00  0.00    -0.252 A  
HETATM   10  C   UNL     1     -10.473   6.284  68.147  1.00  0.00    -0.278 A  
HETATM   11  C   UNL     1      -9.667   9.739  69.176  1.00  0.00    -0.184 A  
HETATM   12  C   UNL     1     -10.411   9.731  70.350  1.00  0.00    -0.354 A  
BRANCH   4  13
HETATM   13  C   UNL     1      -7.899   6.842  65.431  1.00  0.00    -0.115 C  
HETATM   14  H2  UNL     1      -6.636   5.540  66.468  1.00  0.00     0.000 HD 
HETATM   15  H1  UNL     1      -6.231   5.855  64.766  1.00  0.00     0.000 HD 
HETATM   16  O   UNL     1      -8.093   7.389  64.353  1.00  0.00    -0.134 OA 
HETATM   17  N   UNL     1      -6.828   6.002  65.579  1.00  0.00    -0.051 N  
ENDBRANCH   4  13
BRANCH  11  18
HETATM   18  O   UNL     1      -8.852  10.783  68.772  1.00  0.00    -0.151 OA 
BRANCH  18  19
HETATM   19  C   UNL     1      -9.220  12.117  68.826  1.00  0.00     0.095 A  
HETATM   20  C   UNL     1     -10.216  12.429  69.761  1.00  0.00     1.310 A  
HETATM   21  C   UNL     1     -10.450  14.691  68.879  1.00  0.00    -0.248 A  
HETATM   22  C   UNL     1     -10.817  13.703  69.796  1.00  0.00     0.215 A  
HETATM   23  C   UNL     1      -9.445  14.384  67.961  1.00  0.00    -0.209 A  
HETATM   24 CL   UNL     1      -8.929  15.542  66.774  1.00  0.00    -0.269 Cl 
HETATM   25  C   UNL     1      -8.839  13.123  67.944  1.00  0.00    -0.196 A  
BRANCH  21  26
HETATM   26  N   UNL     1     -11.063  15.961  68.788  1.00  0.00    -0.306 N  
HETATM   27  H   UNL     1     -11.117  16.374  67.857  1.00  0.00     0.000 HD 
BRANCH  26  28
HETATM   28  C   UNL     1     -11.593  16.697  69.813  1.00  0.00     0.377 C  
HETATM   29  O   UNL     1     -11.107  17.727  70.267  1.00  0.00     1.123 OA 
BRANCH  28  30
HETATM   30  N   UNL     1     -12.761  16.159  70.309  1.00  0.00    -0.496 N  
HETATM   31  H   UNL     1     -13.483  15.834  69.666  1.00  0.00     0.000 HD 
BRANCH  30  32
HETATM   32  C   UNL     1     -12.967  16.055  71.718  1.00  0.00    -0.159 C  
HETATM   33  C   UNL     1     -13.972  15.125  72.330  1.00  0.00    -0.631 C  
HETATM   34  C   UNL     1     -12.510  14.811  72.432  1.00  0.00    -0.410 C  
ENDBRANCH  30  32
ENDBRANCH  28  30
ENDBRANCH  26  28
ENDBRANCH  21  26
ENDBRANCH  18  19
ENDBRANCH  11  18
ENDBRANCH   2   3
TORSDOF 8
ENDMDL
MODEL      276
REMARK 921   NORMALIZED FREE ENERGY PREDICTED BY IDOCK:    2.46 KCAL/MOL
REMARK 922        TOTAL FREE ENERGY PREDICTED BY IDOCK:    2.07 KCAL/MOL
REMARK 923 INTER-LIGAND FREE ENERGY PREDICTED BY IDOCK:    0.28 KCAL/MOL
REMARK 924 INTRA-LIGAND FREE ENERGY PREDICTED BY IDOCK:    1.79 KCAL/MOL
REMARK 927      BINDING AFFINITY PREDICTED BY RF-SCORE:    0.00 PKD
ROOT
HETATM    1  C   UNL     1      -6.736  13.696  74.247  1.00  0.00     2.099 C  
HETATM    2  O   UNL     1      -5.651  13.999  73.371  1.00  0.00    -0.430 OA 
ENDROOT
BRANCH   2   3
HETATM    3  C   UNL     1      -5.692  13.386  72.145  1.00  0.00     0.337 A  
HETATM    4  C   UNL     1      -5.457  12.007  72.058  1.00  0.00     0.559 A  
HETATM    5  N   UNL     1      -5.988  14.358  68.689  1.00  0.00    -0.081 NA 
HETATM    6  C   UNL     1      -5.434  11.388  70.788  1.00  0.00    -0.126 A  
HETATM    7  C   UNL     1      -5.839  13.529  69.724  1.00  0.00    -0.117 A  
HETATM    8  C   UNL     1      -5.619  12.139  69.596  1.00  0.00    -0.090 A  
HETATM    9  C   UNL     1      -5.828  13.856  67.462  1.00  0.00     0.096 A  
HETATM   10  C   UNL     1      -5.871  14.119  70.971  1.00  0.00    -0.217 A  
HETATM   11  C   UNL     1      -5.559  11.620  68.268  1.00  0.00    -0.045 A  
HETATM   12  C   UNL     1      -5.566  12.527  67.215  1.00  0.00    -0.066 A  
BRANCH   4  13
HETATM   13  C   UNL     1      -5.296  11.191  73.297  1.00  0.00     0.830 C  
HETATM   14  H2  UNL     1      -5.492   9.389  72.258  1.00  0.00     0.000 HD 
HETATM   15  H1  UNL     1      -5.238   9.272  74.014  1.00  0.00     0.000 HD 
HETATM   16  O   UNL     1      -5.134  11.686  74.405  1.00  0.00    -0.385 OA 
HETATM   17  N   UNL     1      -5.348   9.829  73.167  1.00  0.00     0.016 N  
ENDBRANCH   4  13
BRANCH  11  18
HETATM   18  O   UNL     1      -5.364  10.257  68.128  1.00  0.00    -0.035 OA 
BRANCH  18  19
HETATM   19  C   UNL     1      -6.230   9.296  68.622  1.00  0.00    -0.045 A  
HETATM   20  C   UNL     1      -7.512   9.756  68.955  1.00  0.00    -0.075 A  
HETATM   21  C   UNL     1      -8.082   7.638  70.024  1.00  0.00    -0.120 A  
HETATM   22  C   UNL     1      -8.432   8.935  69.638  1.00  0.00    -0.129 A  
HETATM   23  C   UNL     1      -6.812   7.177  69.674  1.00  0.00    -0.050 A  
HETATM   24 CL   UNL     1      -6.283   5.585  70.121  1.00  0.00    -0.025 Cl 
HETATM   25  C   UNL     1      -5.910   7.990  68.980  1.00  0.00    -0.035 A  
BRANCH  21  26
HETATM   26  N   UNL     1      -8.910   6.784  70.787  1.00  0.00    -0.149 N  
HETATM   27  H   UNL     1      -8.649   6.653  71.764  1.00  0.00     0.000 HD 
BRANCH  26  28
HETATM   28  C   UNL     1     -10.023   6.115  70.358  1.00  0.00    -0.181 C  
HETATM   29  O   UNL     1     -11.141   6.215  70.851  1.00  0.00    -0.286 OA 
BRANCH  28  30
HETATM   30  N   UNL     1      -9.770   5.287  69.285  1.00  0.00    -0.155 N  
HETATM   31  H   UNL     1      -9.735   4.277  69.421  1.00  0.00     0.000 HD 
BRANCH  30  32
HETATM   32  C   UNL     1      -9.556   5.834  67.985  1.00  0.00    -0.119 C  
HETATM   33  C   UNL     1     -10.418   5.497  66.804  1.00  0.00    -0.355 C  
HETATM   34  C   UNL     1     -10.533   6.846  67.449  1.00  0.00    -0.339 C  
ENDBRANCH  30  32
ENDBRANCH  28  30
ENDBRANCH  26  28
ENDBRANCH  21  26
ENDBRANCH  18  19
ENDBRANCH  11  18
ENDBRANCH   2   3
TORSDOF 8
ENDMDL
MODEL      277
REMARK 921   NORMALIZED FREE ENERGY PREDICTED BY IDOCK:    2.54 KCAL/MOL
REMARK 922        TOTAL FREE ENERGY PREDICTED BY IDOCK:    2.19 KCAL/MOL
REMARK 923 INTER-LIGAND FREE ENERGY PREDICTED BY IDOCK:    1.34 KCAL/MOL
REMARK 924 INTRA-LIGAND FREE ENERGY PREDICTED BY IDOCK:    0.86 KCAL/MOL
REMARK 927      BINDING AFFINITY PREDICTED BY RF-SCORE:    0.00 PKD
ROOT
HETATM    1  C   UNL     1     -11.080  17.814  71.441  1.00  0.00     2.453 C  
HETATM    2  O   UNL     1     -10.695  18.514  70.259  1.00  0.00     1.241 OA 
ENDROOT
BRANCH   2   3
HETATM    3  C   UNL     1      -9.805  17.860  69.448  1.00  0.00     0.087 A  
HETATM    4  C   UNL     1     -10.140  16.600  68.934  1.00  0.00    -0.274 A  
HETATM    5  N   UNL     1      -6.414  18.299  68.314  1.00  0.00    -0.196 NA 
HETATM    6  C   UNL     1      -9.196  15.897  68.152  1.00  0.00    -0.190 A  
HETATM    7  C   UNL     1      -7.598  17.699  68.443  1.00  0.00    -0.260 A  
HETATM    8  C   UNL     1      -7.904  16.431  67.896  1.00  0.00    -0.161 A  
HETATM    9  C   UNL     1      -5.434  17.619  67.712  1.00  0.00    -0.138 A  
HETATM   10  C   UNL     1      -8.534  18.379  69.194  1.00  0.00     0.062 A  
HETATM   11  C   UNL     1      -6.864  15.781  67.168  1.00  0.00    -0.135 A  
HETATM   12  C   UNL     1      -5.600  16.359  67.182  1.00  0.00    -0.111 A  
BRANCH   4  13
HETATM   13  C   UNL     1     -11.503  16.033  69.159  1.00  0.00    -0.347 C  
HETATM   14  H2  UNL     1     -10.743  14.236  69.906  1.00  0.00     0.000 HD 
HETATM   15  H1  UNL     1     -12.513  14.383  69.835  1.00  0.00     0.000 HD 
HETATM   16  O   UNL     1     -12.531  16.640  68.888  1.00  0.00     0.677 OA 
HETATM   17  N   UNL     1     -11.582  14.769  69.680  1.00  0.00    -0.286 N  
ENDBRANCH   4  13
BRANCH  11  18
HETATM   18  O   UNL     1      -7.155  14.548  66.610  1.00  0.00     0.488 OA 
BRANCH  18  19
HETATM   19  C   UNL     1      -7.586  13.452  67.338  1.00  0.00    -0.128 A  
HETATM   20  C   UNL     1      -6.735  13.046  68.375  1.00  0.00    -0.093 A  
HETATM   21  C   UNL     1      -8.015  11.001  68.737  1.00  0.00    -0.144 A  
HETATM   22  C   UNL     1      -6.951  11.842  69.074  1.00  0.00    -0.107 A  
HETATM   23  C   UNL     1      -8.872  11.417  67.717  1.00  0.00    -0.143 A  
HETATM   24 CL   UNL     1     -10.215  10.435  67.218  1.00  0.00    -0.243 Cl 
HETATM   25  C   UNL     1      -8.663  12.623  67.039  1.00  0.00    -0.198 A  
BRANCH  21  26
HETATM   26  N   UNL     1      -8.250   9.739  69.325  1.00  0.00    -0.120 N  
HETATM   27  H   UNL     1      -8.688   9.742  70.247  1.00  0.00     0.000 HD 
BRANCH  26  28
HETATM   28  C   UNL     1      -7.956   8.513  68.795  1.00  0.00    -0.119 C  
HETATM   29  O   UNL     1      -8.528   8.001  67.839  1.00  0.00    -0.124 OA 
BRANCH  28  30
HETATM   30  N   UNL     1      -6.924   7.879  69.454  1.00  0.00    -0.058 N  
HETATM   31  H   UNL     1      -7.119   7.327  70.289  1.00  0.00     0.000 HD 
BRANCH  30  32
HETATM   32  C   UNL     1      -5.584   7.990  68.974  1.00  0.00    -0.034 C  
HETATM   33  C   UNL     1      -5.238   8.009  67.515  1.00  0.00    -0.032 C  
HETATM   34  C   UNL     1      -5.149   9.272  68.317  1.00  0.00    -0.030 C  
ENDBRANCH  30  32
ENDBRANCH  28  30
ENDBRANCH  26  28
ENDBRANCH  21  26
ENDBRANCH  18  19
ENDBRANCH  11  18
ENDBRANCH   2   3
TORSDOF 8
ENDMDL
MODEL      278
REMARK 921   NORMALIZED FREE ENERGY PREDICTED BY IDOCK:    3.22 KCAL/MOL
REMARK 922        TOTAL FREE ENERGY PREDICTED BY IDOCK:    3.19 KCAL/MOL
REMARK 923 INTER-LIGAND FREE ENERGY PREDICTED BY IDOCK:   -2.87 KCAL/MOL
REMARK 924 INTRA-LIGAND FREE ENERGY PREDICTED BY IDOCK:    6.07 KCAL/MOL
REMARK 927      BINDING AFFINITY PREDICTED BY RF-SCORE:    0.00 PKD
ROOT
HETATM    1  C   UNL     1     -12.905  13.533  65.105  1.00  0.00    -0.322 C  
HETATM    2  O   UNL     1     -11.816  13.201  64.246  1.00  0.00    -0.364 OA 
ENDROOT
BRANCH   2   3
HETATM    3  C   UNL     1     -10.989  12.204  64.695  1.00  0.00    -0.312 A  
HETATM    4  C   UNL     1     -10.893  11.961  66.073  1.00  0.00    -0.342 A  
HETATM    5  N   UNL     1      -8.536   9.953  63.321  1.00  0.00    -0.184 NA 
HETATM    6  C   UNL     1      -9.991  10.978  66.541  1.00  0.00    -0.253 A  
HETATM    7  C   UNL     1      -9.278  10.533  64.266  1.00  0.00    -0.245 A  
HETATM    8  C   UNL     1      -9.162  10.249  65.646  1.00  0.00    -0.225 A  
HETATM    9  C   UNL     1      -7.565   9.124  63.715  1.00  0.00    -0.113 A  
HETATM   10  C   UNL     1     -10.172  11.486  63.822  1.00  0.00    -0.429 A  
HETATM   11  C   UNL     1      -8.186   9.280  66.020  1.00  0.00    -0.111 A  
HETATM   12  C   UNL     1      -7.327   8.808  65.034  1.00  0.00    -0.089 A  
BRANCH   4  13
HETATM   13  C   UNL     1     -11.778  12.688  67.029  1.00  0.00    -0.369 C  
HETATM   14  H2  UNL     1     -13.414  12.611  65.732  1.00  0.00     0.000 HD 
HETATM   15  H1  UNL     1     -13.675  13.419  67.293  1.00  0.00     0.000 HD 
HETATM   16  O   UNL     1     -11.396  13.087  68.122  1.00  0.00    -0.258 OA 
HETATM   17  N   UNL     1     -13.070  12.922  66.640  1.00  0.00     1.834 N  
ENDBRANCH   4  13
BRANCH  11  18
HETATM   18  O   UNL     1      -8.075   8.977  67.366  1.00  0.00    -0.106 OA 
BRANCH  18  19
HETATM   19  C   UNL     1      -7.781   7.715  67.854  1.00  0.00    -0.115 A  
HETATM   20  C   UNL     1      -8.811   6.772  67.739  1.00  0.00    -0.118 A  
HETATM   21  C   UNL     1      -7.605   5.166  69.125  1.00  0.00    -0.069 A  
HETATM   22  C   UNL     1      -8.722   5.508  68.357  1.00  0.00    -0.105 A  
HETATM   23  C   UNL     1      -6.574   6.101  69.222  1.00  0.00    -0.047 A  
HETATM   24 CL   UNL     1      -5.152   5.772  70.164  1.00  0.00    -0.005 Cl 
HETATM   25  C   UNL     1      -6.660   7.346  68.591  1.00  0.00    -0.045 A  
BRANCH  21  26
HETATM   26  N   UNL     1      -7.476   3.960  69.848  1.00  0.00    -0.048 N  
HETATM   27  H   UNL     1      -7.944   3.142  69.455  1.00  0.00     0.000 HD 
BRANCH  26  28
HETATM   28  C   UNL     1      -6.792   3.766  71.016  1.00  0.00    -0.032 C  
HETATM   29  O   UNL     1      -5.662   3.298  71.104  1.00  0.00    -0.012 OA 
BRANCH  28  30
HETATM   30  N   UNL     1      -7.509   4.157  72.127  1.00  0.00    -0.068 N  
HETATM   31  H   UNL     1      -8.107   3.483  72.607  1.00  0.00     0.000 HD 
BRANCH  30  32
HETATM   32  C   UNL     1      -7.421   5.496  72.611  1.00  0.00    -0.097 C  
HETATM   33  C   UNL     1      -8.381   6.576  72.206  1.00  0.00    -0.106 C  
HETATM   34  C   UNL     1      -8.457   5.990  73.584  1.00  0.00    -0.118 C  
ENDBRANCH  30  32
ENDBRANCH  28  30
ENDBRANCH  26  28
ENDBRANCH  21  26
ENDBRANCH  18  19
ENDBRANCH  11  18
ENDBRANCH   2   3
TORSDOF 8
ENDMDL
MODEL      279
REMARK 921   NORMALIZED FREE ENERGY PREDICTED BY IDOCK:    3.28 KCAL/MOL
REMARK 922        TOTAL FREE ENERGY PREDICTED BY IDOCK:    3.28 KCAL/MOL
REMARK 923 INTER-LIGAND FREE ENERGY PREDICTED BY IDOCK:    2.18 KCAL/MOL
REMARK 924 INTRA-LIGAND FREE ENERGY PREDICTED BY IDOCK:    1.11 KCAL/MOL
REMARK 927      BINDING AFFINITY PREDICTED BY RF-SCORE:    0.00 PKD
ROOT
HETATM    1  C   UNL     1      -6.797  13.043  74.384  1.00  0.00     3.313 C  
HETATM    2  O   UNL     1      -5.706  13.448  73.559  1.00  0.00    -0.331 OA 
ENDROOT
BRANCH   2   3
HETATM    3  C   UNL     1      -5.674  12.895  72.306  1.00  0.00     0.899 A  
HETATM    4  C   UNL     1      -5.464  11.516  72.168  1.00  0.00     0.664 A  
HETATM    5  N   UNL     1      -5.707  14.034  68.889  1.00  0.00    -0.080 NA 
HETATM    6  C   UNL     1      -5.365  10.956  70.875  1.00  0.00    -0.113 A  
HETATM    7  C   UNL     1      -5.648  13.154  69.890  1.00  0.00    -0.112 A  
HETATM    8  C   UNL     1      -5.450  11.766  69.710  1.00  0.00    -0.082 A  
HETATM    9  C   UNL     1      -5.473  13.585  67.652  1.00  0.00    -0.007 A  
HETATM   10  C   UNL     1      -5.755  13.685  71.159  1.00  0.00    -0.196 A  
HETATM   11  C   UNL     1      -5.309  11.308  68.367  1.00  0.00    -0.042 A  
HETATM   12  C   UNL     1      -5.222  12.263  67.360  1.00  0.00    -0.105 A  
BRANCH   4  13
HETATM   13  C   UNL     1      -5.406  10.639  73.375  1.00  0.00     0.587 C  
HETATM   14  H2  UNL     1      -5.549   8.892  72.238  1.00  0.00     0.000 HD 
HETATM   15  H1  UNL     1      -5.429   8.687  73.999  1.00  0.00     0.000 HD 
HETATM   16  O   UNL     1      -5.321  11.077  74.515  1.00  0.00    -0.358 OA 
HETATM   17  N   UNL     1      -5.468   9.285  73.175  1.00  0.00    -0.087 N  
ENDBRANCH   4  13
BRANCH  11  18
HETATM   18  O   UNL     1      -5.134   9.949  68.174  1.00  0.00    -0.036 OA 
BRANCH  18  19
HETATM   19  C   UNL     1      -6.042   8.986  68.581  1.00  0.00    -0.045 A  
HETATM   20  C   UNL     1      -7.369   9.208  68.188  1.00  0.00    -0.079 A  
HETATM   21  C   UNL     1      -8.177   7.394  69.605  1.00  0.00    -0.130 A  
HETATM   22  C   UNL     1      -8.424   8.415  68.684  1.00  0.00    -0.128 A  
HETATM   23  C   UNL     1      -6.853   7.163  69.980  1.00  0.00    -0.056 A  
HETATM   24 CL   UNL     1      -6.448   5.924  71.128  1.00  0.00    -0.043 Cl 
HETATM   25  C   UNL     1      -5.808   7.941  69.469  1.00  0.00    -0.027 A  
BRANCH  21  26
HETATM   26  N   UNL     1      -9.183   6.614  70.217  1.00  0.00    -0.155 N  
HETATM   27  H   UNL     1      -9.352   5.692  69.814  1.00  0.00     0.000 HD 
BRANCH  26  28
HETATM   28  C   UNL     1      -9.956   6.959  71.292  1.00  0.00    -0.179 C  
HETATM   29  O   UNL     1     -11.157   6.736  71.399  1.00  0.00    -0.240 OA 
BRANCH  28  30
HETATM   30  N   UNL     1      -9.242   7.602  72.280  1.00  0.00    -0.137 N  
HETATM   31  H   UNL     1      -8.605   8.360  72.033  1.00  0.00     0.000 HD 
BRANCH  30  32
HETATM   32  C   UNL     1      -9.389   7.216  73.646  1.00  0.00    -0.212 C  
HETATM   33  C   UNL     1      -9.046   5.845  74.149  1.00  0.00    -0.128 C  
HETATM   34  C   UNL     1      -8.154   7.003  74.480  1.00  0.00    -0.176 C  
ENDBRANCH  30  32
ENDBRANCH  28  30
ENDBRANCH  26  28
ENDBRANCH  21  26
ENDBRANCH  18  19
ENDBRANCH  11  18
ENDBRANCH   2   3
TORSDOF 8
ENDMDL
MODEL      280
REMARK 921   NORMALIZED FREE ENERGY PREDICTED BY IDOCK:    4.76 KCAL/MOL
REMARK 922        TOTAL FREE ENERGY PREDICTED BY IDOCK:    5.45 KCAL/MOL
REMARK 923 INTER-LIGAND FREE ENERGY PREDICTED BY IDOCK:    2.29 KCAL/MOL
REMARK 924 INTRA-LIGAND FREE ENERGY PREDICTED BY IDOCK:    3.16 KCAL/MOL
REMARK 927      BINDING AFFINITY PREDICTED BY RF-SCORE:    0.00 PKD
ROOT
HETATM    1  C   UNL     1      -9.007   5.185  65.463  1.00  0.00    -0.155 C  
HETATM    2  O   UNL     1      -9.425   5.423  66.806  1.00  0.00    -0.128 OA 
ENDROOT
BRANCH   2   3
HETATM    3  C   UNL     1      -9.149   6.671  67.299  1.00  0.00    -0.118 A  
HETATM    4  C   UNL     1      -8.181   7.463  66.665  1.00  0.00    -0.125 A  
HETATM    5  N   UNL     1     -10.042   8.662  70.165  1.00  0.00    -0.181 NA 
HETATM    6  C   UNL     1      -7.849   8.722  67.212  1.00  0.00    -0.097 A  
HETATM    7  C   UNL     1      -9.422   8.362  69.024  1.00  0.00    -0.151 A  
HETATM    8  C   UNL     1      -8.460   9.194  68.406  1.00  0.00    -0.128 A  
HETATM    9  C   UNL     1      -9.663   9.771  70.807  1.00  0.00     0.016 A  
HETATM   10  C   UNL     1      -9.744   7.139  68.471  1.00  0.00    -0.143 A  
HETATM   11  C   UNL     1      -8.157  10.422  69.066  1.00  0.00    -0.138 A  
HETATM   12  C   UNL     1      -8.704  10.634  70.326  1.00  0.00     1.182 A  
BRANCH   4  13
HETATM   13  C   UNL     1      -7.551   7.005  65.391  1.00  0.00    -0.097 C  
HETATM   14  H2  UNL     1      -6.534   5.443  66.337  1.00  0.00     0.000 HD 
HETATM   15  H1  UNL     1      -6.288   5.607  64.584  1.00  0.00     0.000 HD 
HETATM   16  O   UNL     1      -7.739   7.560  64.317  1.00  0.00    -0.114 OA 
HETATM   17  N   UNL     1      -6.718   5.920  65.454  1.00  0.00    -0.046 N  
ENDBRANCH   4  13
BRANCH  11  18
HETATM   18  O   UNL     1      -7.232  11.255  68.462  1.00  0.00    -0.081 OA 
BRANCH  18  19
HETATM   19  C   UNL     1      -7.330  12.636  68.444  1.00  0.00    -0.118 A  
HETATM   20  C   UNL     1      -8.628  13.148  68.578  1.00  0.00    -0.056 A  
HETATM   21  C   UNL     1      -7.879  15.408  68.043  1.00  0.00    -0.127 A  
HETATM   22  C   UNL     1      -8.900  14.519  68.391  1.00  0.00    -0.180 A  
HETATM   23  C   UNL     1      -6.585  14.898  67.930  1.00  0.00    -0.158 A  
HETATM   24 CL   UNL     1      -5.254  15.923  67.489  1.00  0.00    -0.121 Cl 
HETATM   25  C   UNL     1      -6.319  13.541  68.135  1.00  0.00    -0.124 A  
BRANCH  21  26
HETATM   26  N   UNL     1      -8.080  16.775  67.752  1.00  0.00    -0.176 N  
HETATM   27  H   UNL     1      -7.479  17.180  67.034  1.00  0.00     0.000 HD 
BRANCH  26  28
HETATM   28  C   UNL     1      -8.993  17.616  68.327  1.00  0.00    -0.276 C  
HETATM   29  O   UNL     1      -8.742  18.443  69.197  1.00  0.00    -0.088 OA 
BRANCH  28  30
HETATM   30  N   UNL     1     -10.266  17.447  67.826  1.00  0.00    -0.329 N  
HETATM   31  H   UNL     1     -10.399  17.248  66.835  1.00  0.00     0.000 HD 
BRANCH  30  32
HETATM   32  C   UNL     1     -11.401  17.548  68.686  1.00  0.00     0.723 C  
HETATM   33  C   UNL     1     -12.753  17.010  68.322  1.00  0.00     3.748 C  
HETATM   34  C   UNL     1     -11.924  16.304  69.353  1.00  0.00     0.072 C  
ENDBRANCH  30  32
ENDBRANCH  28  30
ENDBRANCH  26  28
ENDBRANCH  21  26
ENDBRANCH  18  19
ENDBRANCH  11  18
ENDBRANCH   2   3
TORSDOF 8
ENDMDL
MODEL      281
REMARK 921   NORMALIZED FREE ENERGY PREDICTED BY IDOCK:    4.99 KCAL/MOL
REMARK 922        TOTAL FREE ENERGY PREDICTED BY IDOCK:    5.78 KCAL/MOL
REMARK 923 INTER-LIGAND FREE ENERGY PREDICTED BY IDOCK:    2.28 KCAL/MOL
REMARK 924 INTRA-LIGAND FREE ENERGY PREDICTED BY IDOCK:    3.51 KCAL/MOL
REMARK 927      BINDING AFFINITY PREDICTED BY RF-SCORE:    0.00 PKD
ROOT
HETATM    1  C   UNL     1     -12.684  17.579  72.429  1.00  0.00     5.367 C  
HETATM    2  O   UNL     1     -11.461  16.846  72.474  1.00  0.00    -0.110 OA 
ENDROOT
BRANCH   2   3
HETATM    3  C   UNL     1     -11.260  15.966  71.444  1.00  0.00    -0.228 A  
HETATM    4  C   UNL     1     -11.857  14.698  71.496  1.00  0.00    -0.347 A  
HETATM    5  N   UNL     1      -9.261  15.776  68.453  1.00  0.00    -0.188 NA 
HETATM    6  C   UNL     1     -11.596  13.767  70.466  1.00  0.00    -0.087 A  
HETATM    7  C   UNL     1     -10.129  15.364  69.379  1.00  0.00    -0.269 A  
HETATM    8  C   UNL     1     -10.722  14.080  69.390  1.00  0.00    -0.085 A  
HETATM    9  C   UNL     1      -8.862  14.889  67.536  1.00  0.00    -0.188 A  
HETATM   10  C   UNL     1     -10.402  16.267  70.385  1.00  0.00     0.316 A  
HETATM   11  C   UNL     1     -10.352  13.196  68.334  1.00  0.00    -0.253 A  
HETATM   12  C   UNL     1      -9.335  13.597  67.475  1.00  0.00    -0.223 A  
BRANCH   4  13
HETATM   13  C   UNL     1     -12.806  14.358  72.597  1.00  0.00    -0.395 C  
HETATM   14  H2  UNL     1     -11.321  13.409  73.720  1.00  0.00     0.000 HD 
HETATM   15  H1  UNL     1     -12.953  13.443  74.425  1.00  0.00     0.000 HD 
HETATM   16  O   UNL     1     -13.994  14.650  72.568  1.00  0.00    -0.459 OA 
HETATM   17  N   UNL     1     -12.305  13.675  73.673  1.00  0.00     1.722 N  
ENDBRANCH   4  13
BRANCH  11  18
HETATM   18  O   UNL     1     -10.940  11.943  68.320  1.00  0.00    -0.204 OA 
BRANCH  18  19
HETATM   19  C   UNL     1     -10.237  10.760  68.170  1.00  0.00    -0.172 A  
HETATM   20  C   UNL     1     -10.988   9.668  67.714  1.00  0.00    -0.203 A  
HETATM   21  C   UNL     1      -9.152   8.120  68.147  1.00  0.00    -0.134 A  
HETATM   22  C   UNL     1     -10.450   8.365  67.692  1.00  0.00    -0.307 A  
HETATM   23  C   UNL     1      -8.400   9.213  68.582  1.00  0.00    -0.126 A  
HETATM   24 CL   UNL     1      -6.782   9.007  69.178  1.00  0.00    -0.050 Cl 
HETATM   25  C   UNL     1      -8.933  10.506  68.584  1.00  0.00    -0.162 A  
BRANCH  21  26
HETATM   26  N   UNL     1      -8.570   6.837  68.242  1.00  0.00    -0.124 N  
HETATM   27  H   UNL     1      -8.132   6.473  67.395  1.00  0.00     0.000 HD 
BRANCH  26  28
HETATM   28  C   UNL     1      -8.530   6.027  69.344  1.00  0.00    -0.115 C  
HETATM   29  O   UNL     1      -7.731   5.114  69.521  1.00  0.00    -0.067 OA 
BRANCH  28  30
HETATM   30  N   UNL     1      -9.501   6.338  70.272  1.00  0.00    -0.160 N  
HETATM   31  H   UNL     1      -9.548   5.821  71.150  1.00  0.00     0.000 HD 
BRANCH  30  32
HETATM   32  C   UNL     1     -10.441   7.381  70.013  1.00  0.00    -0.226 C  
HETATM   33  C   UNL     1     -11.924   7.156  69.989  1.00  0.00     0.041 C  
HETATM   34  C   UNL     1     -11.300   7.885  71.141  1.00  0.00    -0.289 C  
ENDBRANCH  30  32
ENDBRANCH  28  30
ENDBRANCH  26  28
ENDBRANCH  21  26
ENDBRANCH  18  19
ENDBRANCH  11  18
ENDBRANCH   2   3
TORSDOF 8
ENDMDL
MODEL      282
REMARK 921   NORMALIZED FREE ENERGY PREDICTED BY IDOCK:    7.95 KCAL/MOL
REMARK 922        TOTAL FREE ENERGY PREDICTED BY IDOCK:   10.13 KCAL/MOL
REMARK 923 INTER-LIGAND FREE ENERGY PREDICTED BY IDOCK:    9.74 KCAL/MOL
REMARK 924 INTRA-LIGAND FREE ENERGY PREDICTED BY IDOCK:    0.39 KCAL/MOL
REMARK 927      BINDING AFFINITY PREDICTED BY RF-SCORE:    0.00 PKD
ROOT
HETATM    1  C   UNL     1     -11.638  19.091  70.975  1.00  0.00     7.666 C  
HETATM    2  O   UNL     1     -10.768  19.977  70.272  1.00  0.00     0.684 OA 
ENDROOT
BRANCH   2   3
HETATM    3  C   UNL     1      -9.723  19.382  69.615  1.00  0.00     0.133 A  
HETATM    4  C   UNL     1      -9.984  18.565  68.506  1.00  0.00    -0.419 A  
HETATM    5  N   UNL     1      -6.166  19.015  70.047  1.00  0.00    -0.202 NA 
HETATM    6  C   UNL     1      -8.913  17.899  67.869  1.00  0.00    -0.264 A  
HETATM    7  C   UNL     1      -7.358  18.843  69.473  1.00  0.00     0.061 A  
HETATM    8  C   UNL     1      -7.580  18.021  68.345  1.00  0.00    -0.288 A  
HETATM    9  C   UNL     1      -5.141  18.295  69.580  1.00  0.00    -0.184 A  
HETATM   10  C   UNL     1      -8.412  19.496  70.078  1.00  0.00     1.002 A  
HETATM   11  C   UNL     1      -6.441  17.350  67.808  1.00  0.00    -0.150 A  
HETATM   12  C   UNL     1      -5.247  17.428  68.516  1.00  0.00    -0.139 A  
BRANCH   4  13
HETATM   13  C   UNL     1     -11.371  18.449  67.966  1.00  0.00     0.788 C  
HETATM   14  H2  UNL     1     -11.169  16.401  67.606  1.00  0.00     0.000 HD 
HETATM   15  H1  UNL     1     -12.732  17.133  67.181  1.00  0.00     0.000 HD 
HETATM   16  O   UNL     1     -12.133  19.403  67.872  1.00  0.00     1.882 OA 
HETATM   17  N   UNL     1     -11.785  17.212  67.550  1.00  0.00     0.822 N  
ENDBRANCH   4  13
BRANCH  11  18
HETATM   18  O   UNL     1      -6.639  16.558  66.691  1.00  0.00    -0.233 OA 
BRANCH  18  19
HETATM   19  C   UNL     1      -7.550  15.517  66.632  1.00  0.00     0.135 A  
HETATM   20  C   UNL     1      -7.187  14.360  67.334  1.00  0.00    -0.148 A  
HETATM   21  C   UNL     1      -9.031  13.093  66.362  1.00  0.00     0.020 A  
HETATM   22  C   UNL     1      -7.923  13.164  67.211  1.00  0.00    -0.140 A  
HETATM   23  C   UNL     1      -9.401  14.252  65.679  1.00  0.00     0.180 A  
HETATM   24 CL   UNL     1     -10.756  14.257  64.592  1.00  0.00    -0.419 Cl 
HETATM   25  C   UNL     1      -8.677  15.440  65.820  1.00  0.00     0.531 A  
BRANCH  21  26
HETATM   26  N   UNL     1      -9.768  11.914  66.114  1.00  0.00    -0.227 N  
HETATM   27  H   UNL     1     -10.090  11.772  65.156  1.00  0.00     0.000 HD 
BRANCH  26  28
HETATM   28  C   UNL     1     -10.098  10.940  67.017  1.00  0.00    -0.205 C  
HETATM   29  O   UNL     1      -9.313  10.132  67.502  1.00  0.00    -0.149 OA 
BRANCH  28  30
HETATM   30  N   UNL     1     -11.436  10.946  67.346  1.00  0.00    -0.200 N  
HETATM   31  H   UNL     1     -12.084  10.338  66.844  1.00  0.00     0.000 HD 
BRANCH  30  32
HETATM   32  C   UNL     1     -11.923  11.796  68.383  1.00  0.00    -0.183 C  
HETATM   33  C   UNL     1     -11.455  11.699  69.806  1.00  0.00    -0.339 C  
HETATM   34  C   UNL     1     -11.009  12.848  68.952  1.00  0.00    -0.271 C  
ENDBRANCH  30  32
ENDBRANCH  28  30
ENDBRANCH  26  28
ENDBRANCH  21  26
ENDBRANCH  18  19
ENDBRANCH  11  18
ENDBRANCH   2   3
TORSDOF 8
ENDMDL
MODEL      283
REMARK 921   NORMALIZED FREE ENERGY PREDICTED BY IDOCK:    8.26 KCAL/MOL
REMARK 922        TOTAL FREE ENERGY PREDICTED BY IDOCK:   10.58 KCAL/MOL
REMARK 923 INTER-LIGAND FREE ENERGY PREDICTED BY IDOCK:    9.45 KCAL/MOL
REMARK 924 INTRA-LIGAND FREE ENERGY PREDICTED BY IDOCK:    1.13 KCAL/MOL
REMARK 927      BINDING AFFINITY PREDICTED BY RF-SCORE:    0.00 PKD
ROOT
HETATM    1  C   UNL     1     -11.626  19.089  70.974  1.00  0.00     7.666 C  
HETATM    2  O   UNL     1     -10.730  19.922  70.240  1.00  0.00     0.753 OA 
ENDROOT
BRANCH   2   3
HETATM    3  C   UNL     1      -9.698  19.273  69.614  1.00  0.00     0.175 A  
HETATM    4  C   UNL     1      -9.976  18.400  68.553  1.00  0.00    -0.415 A  
HETATM    5  N   UNL     1      -6.146  18.868  70.058  1.00  0.00    -0.220 NA 
HETATM    6  C   UNL     1      -8.919  17.681  67.952  1.00  0.00    -0.250 A  
HETATM    7  C   UNL     1      -7.342  18.685  69.498  1.00  0.00     0.133 A  
HETATM    8  C   UNL     1      -7.582  17.806  68.417  1.00  0.00    -0.269 A  
HETATM    9  C   UNL     1      -5.135  18.106  69.630  1.00  0.00    -0.185 A  
HETATM   10  C   UNL     1      -8.383  19.390  70.067  1.00  0.00     1.004 A  
HETATM   11  C   UNL     1      -6.457  17.087  67.916  1.00  0.00    -0.141 A  
HETATM   12  C   UNL     1      -5.259  17.183  68.616  1.00  0.00    -0.140 A  
BRANCH   4  13
HETATM   13  C   UNL     1     -11.367  18.279  68.024  1.00  0.00     0.759 C  
HETATM   14  H2  UNL     1     -11.204  16.210  67.784  1.00  0.00     0.000 HD 
HETATM   15  H1  UNL     1     -12.754  16.945  67.320  1.00  0.00     0.000 HD 
HETATM   16  O   UNL     1     -12.110  19.240  67.875  1.00  0.00     1.906 OA 
HETATM   17  N   UNL     1     -11.804  17.027  67.681  1.00  0.00     0.912 N  
ENDBRANCH   4  13
BRANCH  11  18
HETATM   18  O   UNL     1      -6.672  16.237  66.845  1.00  0.00    -0.201 OA 
BRANCH  18  19
HETATM   19  C   UNL     1      -7.604  15.213  66.845  1.00  0.00     0.046 A  
HETATM   20  C   UNL     1      -7.265  14.091  67.613  1.00  0.00    -0.190 A  
HETATM   21  C   UNL     1      -9.134  12.808  66.713  1.00  0.00    -0.209 A  
HETATM   22  C   UNL     1      -8.025  12.906  67.558  1.00  0.00    -0.178 A  
HETATM   23  C   UNL     1      -9.480  13.933  65.963  1.00  0.00    -0.118 A  
HETATM   24 CL   UNL     1     -10.834  13.903  64.875  1.00  0.00    -0.386 Cl 
HETATM   25  C   UNL     1      -8.732  15.112  66.036  1.00  0.00     0.201 A  
BRANCH  21  26
HETATM   26  N   UNL     1      -9.895  11.631  66.532  1.00  0.00    -0.200 N  
HETATM   27  H   UNL     1     -10.527  11.378  67.292  1.00  0.00     0.000 HD 
BRANCH  26  28
HETATM   28  C   UNL     1      -9.878  10.796  65.449  1.00  0.00    -0.262 C  
HETATM   29  O   UNL     1     -10.345  11.059  64.346  1.00  0.00    -0.317 OA 
BRANCH  28  30
HETATM   30  N   UNL     1      -9.270   9.587  65.715  1.00  0.00    -0.194 N  
HETATM   31  H   UNL     1      -9.835   8.788  66.002  1.00  0.00     0.000 HD 
BRANCH  30  32
HETATM   32  C   UNL     1      -7.855   9.448  65.592  1.00  0.00    -0.099 C  
HETATM   33  C   UNL     1      -7.122   9.663  64.300  1.00  0.00    -0.119 C  
HETATM   34  C   UNL     1      -7.015  10.681  65.396  1.00  0.00    -0.013 C  
ENDBRANCH  30  32
ENDBRANCH  28  30
ENDBRANCH  26  28
ENDBRANCH  21  26
ENDBRANCH  18  19
ENDBRANCH  11  18
ENDBRANCH   2   3
TORSDOF 8
ENDMDL
MODEL      284
REMARK 921   NORMALIZED FREE ENERGY PREDICTED BY IDOCK:   13.18 KCAL/MOL
REMARK 922        TOTAL FREE ENERGY PREDICTED BY IDOCK:   17.81 KCAL/MOL
REMARK 923 INTER-LIGAND FREE ENERGY PREDICTED BY IDOCK:   18.07 KCAL/MOL
REMARK 924 INTRA-LIGAND FREE ENERGY PREDICTED BY IDOCK:   -0.25 KCAL/MOL
REMARK 927      BINDING AFFINITY PREDICTED BY RF-SCORE:    0.00 PKD
ROOT
HETATM    1  C   UNL     1     -11.782   5.779  64.424  1.00  0.00     6.059 C  
HETATM    2  O   UNL     1     -11.908   5.955  65.834  1.00  0.00     1.568 OA 
ENDROOT
BRANCH   2   3
HETATM    3  C   UNL     1     -11.332   7.090  66.342  1.00  0.00     1.599 A  
HETATM    4  C   UNL     1      -9.978   7.071  66.703  1.00  0.00    -0.224 A  
HETATM    5  N   UNL     1     -12.385  10.370  67.393  1.00  0.00     2.464 NA 
HETATM    6  C   UNL     1      -9.401   8.221  67.289  1.00  0.00    -0.181 A  
HETATM    7  C   UNL     1     -11.538   9.363  67.178  1.00  0.00     2.110 A  
HETATM    8  C   UNL     1     -10.172   9.387  67.543  1.00  0.00    -0.288 A  
HETATM    9  C   UNL     1     -11.934  11.426  68.077  1.00  0.00    -0.090 A  
HETATM   10  C   UNL     1     -12.085   8.237  66.595  1.00  0.00     6.968 A  
HETATM   11  C   UNL     1      -9.700  10.575  68.176  1.00  0.00    -0.153 A  
HETATM   12  C   UNL     1     -10.636  11.542  68.524  1.00  0.00    -0.236 A  
BRANCH   4  13
HETATM   13  C   UNL     1      -9.138   5.871  66.414  1.00  0.00    -0.149 C  
HETATM   14  H2  UNL     1     -10.266   4.652  67.682  1.00  0.00     0.000 HD 
HETATM   15  H1  UNL     1      -8.901   3.881  66.845  1.00  0.00     0.000 HD 
HETATM   16  O   UNL     1      -8.173   5.897  65.661  1.00  0.00    -0.121 OA 
HETATM   17  N   UNL     1      -9.474   4.701  67.042  1.00  0.00    -0.148 N  
ENDBRANCH   4  13
BRANCH  11  18
HETATM   18  O   UNL     1      -8.361  10.620  68.521  1.00  0.00    -0.116 OA 
BRANCH  18  19
HETATM   19  C   UNL     1      -7.729  11.745  69.023  1.00  0.00     0.027 A  
HETATM   20  C   UNL     1      -7.781  12.881  68.203  1.00  0.00    -0.138 A  
HETATM   21  C   UNL     1      -6.186  14.072  69.613  1.00  0.00    -0.127 A  
HETATM   22  C   UNL     1      -7.028  14.035  68.498  1.00  0.00    -0.103 A  
HETATM   23  C   UNL     1      -6.152  12.947  70.438  1.00  0.00    -0.030 A  
HETATM   24 CL   UNL     1      -5.127  12.895  71.839  1.00  0.00    -0.117 Cl 
HETATM   25  C   UNL     1      -6.915  11.812  70.150  1.00  0.00     0.714 A  
BRANCH  21  26
HETATM   26  N   UNL     1      -5.333  15.153  69.931  1.00  0.00    -0.102 N  
HETATM   27  H   UNL     1      -4.475  14.922  70.433  1.00  0.00     0.000 HD 
BRANCH  26  28
HETATM   28  C   UNL     1      -5.531  16.474  69.638  1.00  0.00    -0.157 C  
HETATM   29  O   UNL     1      -5.858  17.336  70.447  1.00  0.00    -0.197 OA 
BRANCH  28  30
HETATM   30  N   UNL     1      -5.324  16.764  68.307  1.00  0.00    -0.113 N  
HETATM   31  H   UNL     1      -4.587  16.282  67.791  1.00  0.00     0.000 HD 
BRANCH  30  32
HETATM   32  C   UNL     1      -6.133  17.735  67.644  1.00  0.00    -0.155 C  
HETATM   33  C   UNL     1      -6.282  17.794  66.152  1.00  0.00    -0.276 C  
HETATM   34  C   UNL     1      -7.417  17.294  66.995  1.00  0.00    -0.223 C  
ENDBRANCH  30  32
ENDBRANCH  28  30
ENDBRANCH  26  28
ENDBRANCH  21  26
ENDBRANCH  18  19
ENDBRANCH  11  18
ENDBRANCH   2   3
TORSDOF 8
ENDMDL
MODEL      285
REMARK 921   NORMALIZED FREE ENERGY PREDICTED BY IDOCK:   21.13 KCAL/MOL
REMARK 922        TOTAL FREE ENERGY PREDICTED BY IDOCK:   29.47 KCAL/MOL
REMARK 923 INTER-LIGAND FREE ENERGY PREDICTED BY IDOCK:   17.83 KCAL/MOL
REMARK 924 INTRA-LIGAND FREE ENERGY PREDICTED BY IDOCK:   11.64 KCAL/MOL
REMARK 927      BINDING AFFINITY PREDICTED BY RF-SCORE:    0.00 PKD
ROOT
HETATM    1  C   UNL     1      -5.136   4.540  65.518  1.00  0.00    -0.009 C  
HETATM    2  O   UNL     1      -6.108   3.496  65.505  1.00  0.00    -0.022 OA 
ENDROOT
BRANCH   2   3
HETATM    3  C   UNL     1      -7.245   3.755  64.786  1.00  0.00    -0.067 A  
HETATM    4  C   UNL     1      -7.520   5.070  64.385  1.00  0.00    -0.068 A  
HETATM    5  N   UNL     1     -10.187   1.972  63.718  1.00  0.00    -0.128 NA 
HETATM    6  C   UNL     1      -8.726   5.349  63.703  1.00  0.00     0.071 A  
HETATM    7  C   UNL     1      -9.370   3.016  63.867  1.00  0.00    -0.108 A  
HETATM    8  C   UNL     1      -9.677   4.327  63.436  1.00  0.00    -0.062 A  
HETATM    9  C   UNL     1     -11.403   2.202  63.212  1.00  0.00     0.005 A  
HETATM   10  C   UNL     1      -8.184   2.757  64.523  1.00  0.00    -0.086 A  
HETATM   11  C   UNL     1     -10.942   4.513  62.804  1.00  0.00     0.544 A  
HETATM   12  C   UNL     1     -11.830   3.444  62.800  1.00  0.00     1.510 A  
BRANCH   4  13
HETATM   13  C   UNL     1      -6.521   6.154  64.623  1.00  0.00    -0.034 C  
HETATM   14  H2  UNL     1      -5.243   5.441  63.131  1.00  0.00     0.000 HD 
HETATM   15  H1  UNL     1      -4.712   6.894  64.007  1.00  0.00     0.000 HD 
HETATM   16  O   UNL     1      -6.664   7.017  65.479  1.00  0.00    -0.049 OA 
HETATM   17  N   UNL     1      -5.394   6.154  63.845  1.00  0.00    -0.017 N  
ENDBRANCH   4  13
BRANCH  11  18
HETATM   18  O   UNL     1     -11.247   5.787  62.358  1.00  0.00     2.776 OA 
BRANCH  18  19
HETATM   19  C   UNL     1     -10.345   6.837  62.339  1.00  0.00     5.255 A  
HETATM   20  C   UNL     1      -8.993   6.469  62.358  1.00  0.00     0.523 A  
HETATM   21  C   UNL     1      -8.285   8.778  62.708  1.00  0.00    -0.195 A  
HETATM   22  C   UNL     1      -7.973   7.427  62.530  1.00  0.00    -0.130 A  
HETATM   23  C   UNL     1      -9.631   9.143  62.670  1.00  0.00     1.161 A  
HETATM   24 CL   UNL     1     -10.118  10.795  62.895  1.00  0.00    -0.243 Cl 
HETATM   25  C   UNL     1     -10.638   8.191  62.481  1.00  0.00     8.300 A  
BRANCH  21  26
HETATM   26  N   UNL     1      -7.333   9.786  62.974  1.00  0.00    -0.114 N  
HETATM   27  H   UNL     1      -7.132  10.434  62.212  1.00  0.00     0.000 HD 
BRANCH  26  28
HETATM   28  C   UNL     1      -6.650   9.990  64.142  1.00  0.00    -0.130 C  
HETATM   29  O   UNL     1      -5.506   9.609  64.368  1.00  0.00    -0.059 OA 
BRANCH  28  30
HETATM   30  N   UNL     1      -7.386  10.685  65.078  1.00  0.00    -0.350 N  
HETATM   31  H   UNL     1      -7.631  11.661  64.908  1.00  0.00     0.000 HD 
BRANCH  30  32
HETATM   32  C   UNL     1      -7.809  10.048  66.283  1.00  0.00    -0.111 C  
HETATM   33  C   UNL     1      -8.709  10.709  67.284  1.00  0.00    -0.129 C  
HETATM   34  C   UNL     1      -9.245   9.614  66.413  1.00  0.00    -0.205 C  
ENDBRANCH  30  32
ENDBRANCH  28  30
ENDBRANCH  26  28
ENDBRANCH  21  26
ENDBRANCH  18  19
ENDBRANCH  11  18
ENDBRANCH   2   3
TORSDOF 8
ENDMDL
MODEL      286
REMARK 921   NORMALIZED FREE ENERGY PREDICTED BY IDOCK:   36.21 KCAL/MOL
REMARK 922        TOTAL FREE ENERGY PREDICTED BY IDOCK:   51.60 KCAL/MOL
REMARK 923 INTER-LIGAND FREE ENERGY PREDICTED BY IDOCK:   45.20 KCAL/MOL
REMARK 924 INTRA-LIGAND FREE ENERGY PREDICTED BY IDOCK:    6.40 KCAL/MOL
REMARK 927      BINDING AFFINITY PREDICTED BY RF-SCORE:    0.00 PKD
ROOT
HETATM    1  C   UNL     1      -6.360  13.757  73.895  1.00  0.00     1.227 C  
HETATM    2  O   UNL     1      -7.093  14.876  73.399  1.00  0.00     2.981 OA 
ENDROOT
BRANCH   2   3
HETATM    3  C   UNL     1      -8.140  14.576  72.568  1.00  0.00     7.124 A  
HETATM    4  C   UNL     1      -8.035  13.484  71.695  1.00  0.00     8.755 A  
HETATM    5  N   UNL     1     -11.307  16.022  71.643  1.00  0.00    -0.311 NA 
HETATM    6  C   UNL     1      -9.087  13.214  70.792  1.00  0.00     7.934 A  
HETATM    7  C   UNL     1     -10.304  15.143  71.618  1.00  0.00     1.335 A  
HETATM    8  C   UNL     1     -10.240  14.043  70.732  1.00  0.00     2.643 A  
HETATM    9  C   UNL     1     -12.259  15.905  70.712  1.00  0.00    -0.333 A  
HETATM   10  C   UNL     1      -9.274  15.387  72.503  1.00  0.00     7.482 A  
HETATM   11  C   UNL     1     -11.329  13.889  69.824  1.00  0.00    -0.156 A  
HETATM   12  C   UNL     1     -12.279  14.902  69.769  1.00  0.00    -0.328 A  
BRANCH   4  13
HETATM   13  C   UNL     1      -6.850  12.578  71.764  1.00  0.00     5.456 C  
HETATM   14  H2  UNL     1      -7.890  10.985  70.899  1.00  0.00     0.000 HD 
HETATM   15  H1  UNL     1      -6.192  10.685  71.332  1.00  0.00     0.000 HD 
HETATM   16  O   UNL     1      -5.773  12.922  72.233  1.00  0.00    -0.174 OA 
HETATM   17  N   UNL     1      -7.002  11.304  71.286  1.00  0.00     2.758 N  
ENDBRANCH   4  13
BRANCH  11  18
HETATM   18  O   UNL     1     -11.289  12.805  68.964  1.00  0.00    -0.264 OA 
BRANCH  18  19
HETATM   19  C   UNL     1     -10.241  12.541  68.099  1.00  0.00    -0.231 A  
HETATM   20  C   UNL     1     -10.475  12.863  66.755  1.00  0.00    -0.262 A  
HETATM   21  C   UNL     1      -8.426  11.744  66.046  1.00  0.00     0.126 A  
HETATM   22  C   UNL     1      -9.575  12.479  65.740  1.00  0.00    -0.137 A  
HETATM   23  C   UNL     1      -8.186  11.442  67.387  1.00  0.00    -0.145 A  
HETATM   24 CL   UNL     1      -6.793  10.522  67.863  1.00  0.00    -0.069 Cl 
HETATM   25  C   UNL     1      -9.074  11.841  68.391  1.00  0.00    -0.176 A  
BRANCH  21  26
HETATM   26  N   UNL     1      -7.521  11.246  65.083  1.00  0.00     0.002 N  
HETATM   27  H   UNL     1      -7.931  10.785  64.269  1.00  0.00     0.000 HD 
BRANCH  26  28
HETATM   28  C   UNL     1      -6.155  11.313  65.120  1.00  0.00     0.817 C  
HETATM   29  O   UNL     1      -5.491  11.650  66.095  1.00  0.00    -0.282 OA 
BRANCH  28  30
HETATM   30  N   UNL     1      -5.569  10.959  63.924  1.00  0.00    -0.361 N  
HETATM   31  H   UNL     1      -5.194  11.681  63.309  1.00  0.00     0.000 HD 
BRANCH  30  32
HETATM   32  C   UNL     1      -5.482   9.587  63.540  1.00  0.00    -0.072 C  
HETATM   33  C   UNL     1      -5.503   8.458  64.529  1.00  0.00    -0.047 C  
HETATM   34  C   UNL     1      -6.703   8.715  63.668  1.00  0.00    -0.088 C  
ENDBRANCH  30  32
ENDBRANCH  28  30
ENDBRANCH  26  28
ENDBRANCH  21  26
ENDBRANCH  18  19
ENDBRANCH  11  18
ENDBRANCH   2   3
TORSDOF 8
ENDMDL
MODEL      287
REMARK 921   NORMALIZED FREE ENERGY PREDICTED BY IDOCK:   48.61 KCAL/MOL
REMARK 922        TOTAL FREE ENERGY PREDICTED BY IDOCK:   69.80 KCAL/MOL
REMARK 923 INTER-LIGAND FREE ENERGY PREDICTED BY IDOCK:   45.70 KCAL/MOL
REMARK 924 INTRA-LIGAND FREE ENERGY PREDICTED BY IDOCK:   24.11 KCAL/MOL
REMARK 927      BINDING AFFINITY PREDICTED BY RF-SCORE:    0.00 PKD
ROOT
HETATM    1  C   UNL     1      -5.168   5.436  65.417  1.00  0.00    -0.009 C  
HETATM    2  O   UNL     1      -6.150   4.404  65.505  1.00  0.00    -0.025 OA 
ENDROOT
BRANCH   2   3
HETATM    3  C   UNL     1      -7.324   4.646  64.841  1.00  0.00    -0.071 A  
HETATM    4  C   UNL     1      -7.728   5.970  64.620  1.00  0.00    -0.099 A  
HETATM    5  N   UNL     1     -10.115   2.747  63.585  1.00  0.00    -0.152 NA 
HETATM    6  C   UNL     1      -8.971   6.220  63.995  1.00  0.00     0.814 A  
HETATM    7  C   UNL     1      -9.394   3.835  63.860  1.00  0.00    -0.143 A  
HETATM    8  C   UNL     1      -9.830   5.156  63.608  1.00  0.00     0.899 A  
HETATM    9  C   UNL     1     -11.359   2.925  63.130  1.00  0.00     0.249 A  
HETATM   10  C   UNL     1      -8.173   3.606  64.461  1.00  0.00    -0.093 A  
HETATM   11  C   UNL     1     -11.122   5.303  63.022  1.00  0.00     2.811 A  
HETATM   12  C   UNL     1     -11.909   4.164  62.889  1.00  0.00     1.763 A  
BRANCH   4  13
HETATM   13  C   UNL     1      -6.827   7.103  64.985  1.00  0.00    -0.047 C  
HETATM   14  H2  UNL     1      -8.152   8.533  64.230  1.00  0.00     0.000 HD 
HETATM   15  H1  UNL     1      -6.638   9.143  64.935  1.00  0.00     0.000 HD 
HETATM   16  O   UNL     1      -5.738   6.944  65.520  1.00  0.00    -0.029 OA 
HETATM   17  N   UNL     1      -7.254   8.370  64.685  1.00  0.00    -0.080 N  
ENDBRANCH   4  13
BRANCH  11  18
HETATM   18  O   UNL     1     -11.554   6.589  62.751  1.00  0.00     9.022 OA 
BRANCH  18  19
HETATM   19  C   UNL     1     -10.887   7.732  63.159  1.00  0.00    13.461 A  
HETATM   20  C   UNL     1      -9.539   7.552  63.496  1.00  0.00     3.709 A  
HETATM   21  C   UNL     1      -9.381   9.811  64.405  1.00  0.00    -0.215 A  
HETATM   22  C   UNL     1      -8.790   8.582  64.102  1.00  0.00     0.252 A  
HETATM   23  C   UNL     1     -10.719   9.993  64.051  1.00  0.00     2.079 A  
HETATM   24 CL   UNL     1     -11.544  11.481  64.399  1.00  0.00    -0.255 Cl 
HETATM   25  C   UNL     1     -11.451   8.974  63.433  1.00  0.00    13.128 A  
BRANCH  21  26
HETATM   26  N   UNL     1      -8.729  10.860  65.090  1.00  0.00    -0.314 N  
HETATM   27  H   UNL     1      -7.718  10.775  65.195  1.00  0.00     0.000 HD 
BRANCH  26  28
HETATM   28  C   UNL     1      -9.305  11.979  65.627  1.00  0.00    -0.078 C  
HETATM   29  O   UNL     1      -9.719  12.938  64.984  1.00  0.00    -0.090 OA 
BRANCH  28  30
HETATM   30  N   UNL     1      -9.380  11.935  67.002  1.00  0.00    -0.183 N  
HETATM   31  H   UNL     1      -8.551  11.698  67.548  1.00  0.00     0.000 HD 
BRANCH  30  32
HETATM   32  C   UNL     1     -10.609  12.218  67.669  1.00  0.00    -0.215 C  
HETATM   33  C   UNL     1     -11.851  11.399  67.476  1.00  0.00    -0.105 C  
HETATM   34  C   UNL     1     -11.080  11.291  68.757  1.00  0.00    -0.288 C  
ENDBRANCH  30  32
ENDBRANCH  28  30
ENDBRANCH  26  28
ENDBRANCH  21  26
ENDBRANCH  18  19
ENDBRANCH  11  18
ENDBRANCH   2   3
TORSDOF 8
ENDMDL
MODEL      288
REMARK 921   NORMALIZED FREE ENERGY PREDICTED BY IDOCK:   69.25 KCAL/MOL
REMARK 922        TOTAL FREE ENERGY PREDICTED BY IDOCK:  100.10 KCAL/MOL
REMARK 923 INTER-LIGAND FREE ENERGY PREDICTED BY IDOCK:   96.90 KCAL/MOL
REMARK 924 INTRA-LIGAND FREE ENERGY PREDICTED BY IDOCK:    3.20 KCAL/MOL
REMARK 927      BINDING AFFINITY PREDICTED BY RF-SCORE:    0.00 PKD
ROOT
HETATM    1  C   UNL     1     -10.846  17.006  72.963  1.00  0.00     3.340 C  
HETATM    2  O   UNL     1     -10.067  16.133  73.780  1.00  0.00     7.064 OA 
ENDROOT
BRANCH   2   3
HETATM    3  C   UNL     1      -9.547  15.037  73.144  1.00  0.00     7.507 A  
HETATM    4  C   UNL     1     -10.354  13.907  72.950  1.00  0.00     7.643 A  
HETATM    5  N   UNL     1      -6.343  13.937  71.919  1.00  0.00     0.240 NA 
HETATM    6  C   UNL     1      -9.799  12.752  72.354  1.00  0.00    17.973 A  
HETATM    7  C   UNL     1      -7.646  13.858  72.194  1.00  0.00     6.581 A  
HETATM    8  C   UNL     1      -8.431  12.704  71.970  1.00  0.00    18.450 A  
HETATM    9  C   UNL     1      -5.729  12.830  71.492  1.00  0.00     0.342 A  
HETATM   10  C   UNL     1      -8.205  14.982  72.766  1.00  0.00     8.120 A  
HETATM   11  C   UNL     1      -7.763  11.574  71.413  1.00  0.00     7.627 A  
HETATM   12  C   UNL     1      -6.381  11.636  71.280  1.00  0.00     1.644 A  
BRANCH   4  13
HETATM   13  C   UNL     1     -11.802  13.946  73.312  1.00  0.00     1.653 C  
HETATM   14  H2  UNL     1     -11.501  12.821  75.048  1.00  0.00     0.000 HD 
HETATM   15  H1  UNL     1     -13.170  13.332  74.710  1.00  0.00     0.000 HD 
HETATM   16  O   UNL     1     -12.647  14.506  72.627  1.00  0.00    -0.339 OA 
HETATM   17  N   UNL     1     -12.181  13.305  74.462  1.00  0.00     7.265 N  
ENDBRANCH   4  13
BRANCH  11  18
HETATM   18  O   UNL     1      -8.524  10.443  71.169  1.00  0.00     1.414 OA 
BRANCH  18  19
HETATM   19  C   UNL     1      -7.993   9.179  70.980  1.00  0.00    -0.125 A  
HETATM   20  C   UNL     1      -8.791   8.296  70.241  1.00  0.00    -0.141 A  
HETATM   21  C   UNL     1      -7.340   6.409  70.775  1.00  0.00    -0.076 A  
HETATM   22  C   UNL     1      -8.464   6.929  70.129  1.00  0.00    -0.140 A  
HETATM   23  C   UNL     1      -6.537   7.294  71.495  1.00  0.00    -0.047 A  
HETATM   24 CL   UNL     1      -5.126   6.739  72.341  1.00  0.00    -0.031 Cl 
HETATM   25  C   UNL     1      -6.856   8.653  71.586  1.00  0.00    -0.088 A  
BRANCH  21  26
HETATM   26  N   UNL     1      -6.992   5.040  70.787  1.00  0.00    -0.046 N  
HETATM   27  H   UNL     1      -6.157   4.779  70.262  1.00  0.00     0.000 HD 
BRANCH  26  28
HETATM   28  C   UNL     1      -7.651   4.026  71.426  1.00  0.00    -0.063 C  
HETATM   29  O   UNL     1      -7.118   3.151  72.101  1.00  0.00    -0.036 OA 
BRANCH  28  30
HETATM   30  N   UNL     1      -9.016   4.073  71.238  1.00  0.00    -0.102 N  
HETATM   31  H   UNL     1      -9.631   3.527  71.842  1.00  0.00     0.000 HD 
BRANCH  30  32
HETATM   32  C   UNL     1      -9.575   4.881  70.203  1.00  0.00    -0.193 C  
HETATM   33  C   UNL     1     -10.365   4.313  69.060  1.00  0.00     0.517 C  
HETATM   34  C   UNL     1     -11.068   5.067  70.149  1.00  0.00     0.945 C  
ENDBRANCH  30  32
ENDBRANCH  28  30
ENDBRANCH  26  28
ENDBRANCH  21  26
ENDBRANCH  18  19
ENDBRANCH  11  18
ENDBRANCH   2   3
TORSDOF 8
ENDMDL
MODEL      289
REMARK 921   NORMALIZED FREE ENERGY PREDICTED BY IDOCK:   76.95 KCAL/MOL
REMARK 922        TOTAL FREE ENERGY PREDICTED BY IDOCK:  111.40 KCAL/MOL
REMARK 923 INTER-LIGAND FREE ENERGY PREDICTED BY IDOCK:   83.22 KCAL/MOL
REMARK 924 INTRA-LIGAND FREE ENERGY PREDICTED BY IDOCK:   28.17 KCAL/MOL
REMARK 927      BINDING AFFINITY PREDICTED BY RF-SCORE:    0.00 PKD
ROOT
HETATM    1  C   UNL     1      -5.714   5.158  64.187  1.00  0.00    -0.017 C  
HETATM    2  O   UNL     1      -6.532   4.084  64.651  1.00  0.00    -0.039 OA 
ENDROOT
BRANCH   2   3
HETATM    3  C   UNL     1      -7.841   4.120  64.248  1.00  0.00    -0.085 A  
HETATM    4  C   UNL     1      -8.391   5.332  63.806  1.00  0.00    -0.123 A  
HETATM    5  N   UNL     1     -10.679   1.903  64.207  1.00  0.00     0.397 NA 
HETATM    6  C   UNL     1      -9.758   5.384  63.453  1.00  0.00     1.153 A  
HETATM    7  C   UNL     1     -10.006   3.039  64.022  1.00  0.00    -0.162 A  
HETATM    8  C   UNL     1     -10.593   4.239  63.560  1.00  0.00     0.091 A  
HETATM    9  C   UNL     1     -12.004   1.929  64.032  1.00  0.00     3.100 A  
HETATM   10  C   UNL     1      -8.666   3.000  64.352  1.00  0.00    -0.096 A  
HETATM   11  C   UNL     1     -11.992   4.201  63.282  1.00  0.00     2.473 A  
HETATM   12  C   UNL     1     -12.692   3.051  63.628  1.00  0.00     8.214 A  
BRANCH   4  13
HETATM   13  C   UNL     1      -7.526   6.539  63.652  1.00  0.00    -0.082 C  
HETATM   14  H2  UNL     1      -9.104   7.701  62.925  1.00  0.00     0.000 HD 
HETATM   15  H1  UNL     1      -7.523   8.502  63.064  1.00  0.00     0.000 HD 
HETATM   16  O   UNL     1      -6.333   6.544  63.923  1.00  0.00    -0.033 OA 
HETATM   17  N   UNL     1      -8.114   7.678  63.169  1.00  0.00    -0.106 N  
ENDBRANCH   4  13
BRANCH  11  18
HETATM   18  O   UNL     1     -12.577   5.363  62.809  1.00  0.00     3.846 OA 
BRANCH  18  19
HETATM   19  C   UNL     1     -11.919   6.577  62.714  1.00  0.00    11.788 A  
HETATM   20  C   UNL     1     -10.520   6.507  62.748  1.00  0.00     6.257 A  
HETATM   21  C   UNL     1     -10.321   8.931  62.938  1.00  0.00     5.290 A  
HETATM   22  C   UNL     1      -9.728   7.669  62.847  1.00  0.00     3.975 A  
HETATM   23  C   UNL     1     -11.714   8.999  62.885  1.00  0.00    14.262 A  
HETATM   24 CL   UNL     1     -12.542  10.521  63.003  1.00  0.00     3.635 Cl 
HETATM   25  C   UNL     1     -12.493   7.843  62.767  1.00  0.00    21.250 A  
BRANCH  21  26
HETATM   26  N   UNL     1      -9.607  10.135  63.128  1.00  0.00    -0.448 N  
HETATM   27  H   UNL     1      -8.594  10.084  63.017  1.00  0.00     0.000 HD 
BRANCH  26  28
HETATM   28  C   UNL     1     -10.124  11.361  63.445  1.00  0.00    -0.405 C  
HETATM   29  O   UNL     1     -10.830  12.042  62.709  1.00  0.00     0.063 OA 
BRANCH  28  30
HETATM   30  N   UNL     1      -9.769  11.781  64.709  1.00  0.00    -0.378 N  
HETATM   31  H   UNL     1      -9.917  12.753  64.981  1.00  0.00     0.000 HD 
BRANCH  30  32
HETATM   32  C   UNL     1      -9.196  10.864  65.641  1.00  0.00    -0.203 C  
HETATM   33  C   UNL     1      -8.970   9.414  65.328  1.00  0.00    -0.250 C  
HETATM   34  C   UNL     1      -7.802  10.352  65.397  1.00  0.00    -0.143 C  
ENDBRANCH  30  32
ENDBRANCH  28  30
ENDBRANCH  26  28
ENDBRANCH  21  26
ENDBRANCH  18  19
ENDBRANCH  11  18
ENDBRANCH   2   3
TORSDOF 8
ENDMDL
