MODEL        1
REMARK 921   NORMALIZED FREE ENERGY PREDICTED BY IDOCK:   -7.66 KCAL/MOL
REMARK 922        TOTAL FREE ENERGY PREDICTED BY IDOCK:  -13.16 KCAL/MOL
REMARK 923 INTER-LIGAND FREE ENERGY PREDICTED BY IDOCK:  -11.25 KCAL/MOL
REMARK 924 INTRA-LIGAND FREE ENERGY PREDICTED BY IDOCK:   -1.91 KCAL/MOL
REMARK 927      BINDING AFFINITY PREDICTED BY RF-SCORE:    0.00 PKD
ROOT
HETATM    1  C   UNL     1     -10.208   5.995  74.564  1.00  0.00    -0.290 C  
HETATM    2  O   UNL     1      -9.519   5.109  73.677  1.00  0.00    -0.132 OA 
ENDROOT
BRANCH   2   3
HETATM    3  C   UNL     1     -10.352   4.416  72.855  1.00  0.00    -0.178 C  
HETATM    4  O   UNL     1     -11.407   3.915  73.212  1.00  0.00    -0.196 OA 
BRANCH   3   5
HETATM    5  C   UNL     1      -9.804   4.357  71.473  1.00  0.00    -0.259 C  
HETATM    6  C   UNL     1      -8.770   3.536  71.163  1.00  0.00    -0.078 C  
HETATM    7  N   UNL     1      -8.329   3.459  69.854  1.00  0.00    -0.051 NA 
HETATM    8  C   UNL     1      -7.977   2.659  72.103  1.00  0.00    -0.054 C  
HETATM    9  C   UNL     1      -8.724   4.292  68.829  1.00  0.00    -0.095 C  
HETATM   10  C   UNL     1      -7.997   4.086  67.517  1.00  0.00    -0.091 C  
HETATM   11  C   UNL     1      -9.706   5.200  69.044  1.00  0.00    -0.227 C  
HETATM   12  C   UNL     1     -10.436   5.264  70.394  1.00  0.00    -0.322 C  
BRANCH  11  13
HETATM   13  C   UNL     1     -10.003   6.171  67.958  1.00  0.00    -0.141 C  
HETATM   14  O   UNL     1     -10.997   6.084  67.253  1.00  0.00    -0.313 OA 
BRANCH  13  15
HETATM   15  O   UNL     1      -9.106   7.184  67.921  1.00  0.00    -0.129 OA 
HETATM   16  C   UNL     1      -7.809   8.995  66.855  1.00  0.00    -0.101 C  
HETATM   17  C   UNL     1     -10.301   8.719  66.455  1.00  0.00    -0.254 C  
HETATM   18  C   UNL     1      -8.982   7.965  66.693  1.00  0.00    -0.151 C  
HETATM   19  C   UNL     1      -8.605   7.103  65.466  1.00  0.00    -0.093 C  
BRANCH  16  20
HETATM   20  N   UNL     1      -7.896  10.030  67.917  1.00  0.00    -0.090 NA 
HETATM   21  C   UNL     1      -6.582  10.265  68.522  1.00  0.00    -0.052 C  
BRANCH  20  22
HETATM   22  C   UNL     1      -8.347  11.321  67.354  1.00  0.00    -0.137 C  
BRANCH  22  23
HETATM   23  C   UNL     1      -9.443  12.052  68.132  1.00  0.00    -0.200 C  
HETATM   24  C   UNL     1     -10.016  13.349  67.503  1.00  0.00    -0.230 C  
HETATM   25  C   UNL     1     -10.831  14.059  68.597  1.00  0.00    -0.272 A  
HETATM   26  C   UNL     1     -10.724  13.081  66.172  1.00  0.00    -0.288 A  
HETATM   27  C   UNL     1     -10.496  15.362  68.994  1.00  0.00    -0.249 A  
HETATM   28  C   UNL     1     -12.081  12.742  66.065  1.00  0.00    -0.458 A  
HETATM   29  C   UNL     1     -11.076  15.930  70.133  1.00  0.00    -0.369 A  
HETATM   30  C   UNL     1     -12.644  12.385  64.836  1.00  0.00    -0.372 A  
HETATM   31  C   UNL     1     -11.865  12.363  63.686  1.00  0.00    -0.610 A  
HETATM   32  C   UNL     1     -12.011  15.214  70.880  1.00  0.00    -0.378 A  
HETATM   33  C   UNL     1     -12.391  13.941  70.474  1.00  0.00    -0.439 A  
HETATM   34  C   UNL     1     -10.522  12.717  63.759  1.00  0.00    -0.411 A  
HETATM   35  C   UNL     1      -9.962  13.080  64.989  1.00  0.00    -0.158 A  
HETATM   36  C   UNL     1     -11.807  13.370  69.345  1.00  0.00    -0.390 A  
ENDBRANCH  22  23
ENDBRANCH  20  22
ENDBRANCH  16  20
ENDBRANCH  13  15
ENDBRANCH  11  13
BRANCH  12  37
HETATM   37  C   UNL     1     -10.569   6.712  70.877  1.00  0.00    -0.263 A  
HETATM   38  O   UNL     1     -14.297   8.432  71.449  1.00  0.00    -0.406 OA 
HETATM   39  C   UNL     1     -11.845   7.251  71.135  1.00  0.00    -0.345 A  
HETATM   40  O   UNL     1     -13.408  10.366  71.978  1.00  0.00    -0.433 OA 
HETATM   41  C   UNL     1      -9.586   8.865  71.428  1.00  0.00    -0.359 A  
HETATM   42  C   UNL     1     -11.982   8.602  71.480  1.00  0.00    -0.306 A  
HETATM   43  N   UNL     1     -13.326   9.172  71.652  1.00  0.00    -0.366 N  
HETATM   44  C   UNL     1     -10.854   9.411  71.631  1.00  0.00    -0.348 A  
HETATM   45  C   UNL     1      -9.444   7.527  71.049  1.00  0.00    -0.162 A  
ENDBRANCH  12  37
ENDBRANCH   3   5
ENDBRANCH   2   3
TORSDOF 8
ENDMDL
MODEL        2
REMARK 921   NORMALIZED FREE ENERGY PREDICTED BY IDOCK:   -7.20 KCAL/MOL
REMARK 922        TOTAL FREE ENERGY PREDICTED BY IDOCK:  -12.48 KCAL/MOL
REMARK 923 INTER-LIGAND FREE ENERGY PREDICTED BY IDOCK:  -10.30 KCAL/MOL
REMARK 924 INTRA-LIGAND FREE ENERGY PREDICTED BY IDOCK:   -2.18 KCAL/MOL
REMARK 927      BINDING AFFINITY PREDICTED BY RF-SCORE:    0.00 PKD
ROOT
HETATM    1  C   UNL     1      -7.790  17.223  66.106  1.00  0.00    -0.270 C  
HETATM    2  O   UNL     1      -8.312  15.929  66.427  1.00  0.00    -0.288 OA 
ENDROOT
BRANCH   2   3
HETATM    3  C   UNL     1      -9.641  15.805  66.162  1.00  0.00    -0.332 C  
HETATM    4  O   UNL     1     -10.163  16.128  65.107  1.00  0.00    -0.542 OA 
BRANCH   3   5
HETATM    5  C   UNL     1     -10.361  15.224  67.328  1.00  0.00    -0.264 C  
HETATM    6  C   UNL     1     -10.700  15.989  68.395  1.00  0.00    -0.289 C  
HETATM    7  N   UNL     1     -11.426  15.432  69.432  1.00  0.00    -0.300 NA 
HETATM    8  C   UNL     1     -10.361  17.443  68.631  1.00  0.00    -0.364 C  
HETATM    9  C   UNL     1     -11.695  14.088  69.584  1.00  0.00    -0.311 C  
HETATM   10  C   UNL     1     -12.396  13.715  70.872  1.00  0.00    -0.450 C  
HETATM   11  C   UNL     1     -11.340  13.218  68.607  1.00  0.00    -0.324 C  
HETATM   12  C   UNL     1     -10.707  13.719  67.301  1.00  0.00    -0.286 C  
BRANCH  11  13
HETATM   13  C   UNL     1     -11.518  11.767  68.872  1.00  0.00    -0.297 C  
HETATM   14  O   UNL     1     -12.528  11.159  68.549  1.00  0.00    -0.452 OA 
BRANCH  13  15
HETATM   15  O   UNL     1     -10.412  11.208  69.415  1.00  0.00    -0.191 OA 
HETATM   16  C   UNL     1      -9.122   9.443  70.565  1.00  0.00    -0.256 C  
HETATM   17  C   UNL     1     -10.718   8.911  68.663  1.00  0.00    -0.118 C  
HETATM   18  C   UNL     1     -10.481   9.823  69.878  1.00  0.00    -0.261 C  
HETATM   19  C   UNL     1     -11.564   9.604  70.959  1.00  0.00    -0.436 C  
BRANCH  16  20
HETATM   20  N   UNL     1      -7.871   9.479  69.765  1.00  0.00    -0.111 NA 
HETATM   21  C   UNL     1      -6.856  10.305  70.425  1.00  0.00    -0.102 C  
BRANCH  20  22
HETATM   22  C   UNL     1      -7.299   8.122  69.628  1.00  0.00    -0.073 C  
BRANCH  22  23
HETATM   23  C   UNL     1      -8.060   7.155  68.718  1.00  0.00    -0.121 C  
HETATM   24  C   UNL     1      -8.377   5.747  69.285  1.00  0.00    -0.108 C  
HETATM   25  C   UNL     1      -8.831   4.876  68.103  1.00  0.00    -0.113 A  
HETATM   26  C   UNL     1      -9.308   5.810  70.499  1.00  0.00    -0.189 A  
HETATM   27  C   UNL     1      -8.132   3.703  67.781  1.00  0.00    -0.084 A  
HETATM   28  C   UNL     1     -10.708   5.802  70.410  1.00  0.00    -0.372 A  
HETATM   29  C   UNL     1      -8.389   3.027  66.583  1.00  0.00    -0.094 A  
HETATM   30  C   UNL     1     -11.508   5.988  71.541  1.00  0.00    -0.280 A  
HETATM   31  C   UNL     1     -10.927   6.184  72.788  1.00  0.00    -0.294 A  
HETATM   32  C   UNL     1      -9.358   3.502  65.700  1.00  0.00    -0.158 A  
HETATM   33  C   UNL     1     -10.093   4.635  66.025  1.00  0.00    -0.287 A  
HETATM   34  C   UNL     1      -9.543   6.174  72.910  1.00  0.00    -0.155 A  
HETATM   35  C   UNL     1      -8.744   5.980  71.778  1.00  0.00    -0.138 A  
HETATM   36  C   UNL     1      -9.832   5.314  67.213  1.00  0.00    -0.183 A  
ENDBRANCH  22  23
ENDBRANCH  20  22
ENDBRANCH  16  20
ENDBRANCH  13  15
ENDBRANCH  11  13
BRANCH  12  37
HETATM   37  C   UNL     1      -9.495  12.865  66.915  1.00  0.00    -0.237 A  
HETATM   38  O   UNL     1      -9.766  10.011  63.922  1.00  0.00    -0.257 OA 
HETATM   39  C   UNL     1      -9.590  11.954  65.845  1.00  0.00    -0.248 A  
HETATM   40  O   UNL     1      -7.695   9.363  64.247  1.00  0.00    -0.108 OA 
HETATM   41  C   UNL     1      -7.213  12.122  67.300  1.00  0.00    -0.144 A  
HETATM   42  C   UNL     1      -8.521  11.098  65.551  1.00  0.00    -0.003 A  
HETATM   43  N   UNL     1      -8.671  10.088  64.495  1.00  0.00    -0.179 N  
HETATM   44  C   UNL     1      -7.328  11.183  66.274  1.00  0.00    -0.055 A  
HETATM   45  C   UNL     1      -8.290  12.954  67.622  1.00  0.00    -0.176 A  
ENDBRANCH  12  37
ENDBRANCH   3   5
ENDBRANCH   2   3
TORSDOF 8
ENDMDL
MODEL        3
REMARK 921   NORMALIZED FREE ENERGY PREDICTED BY IDOCK:   -7.15 KCAL/MOL
REMARK 922        TOTAL FREE ENERGY PREDICTED BY IDOCK:  -12.41 KCAL/MOL
REMARK 923 INTER-LIGAND FREE ENERGY PREDICTED BY IDOCK:  -11.40 KCAL/MOL
REMARK 924 INTRA-LIGAND FREE ENERGY PREDICTED BY IDOCK:   -1.02 KCAL/MOL
REMARK 927      BINDING AFFINITY PREDICTED BY RF-SCORE:    0.00 PKD
ROOT
HETATM    1  C   UNL     1     -11.584  16.111  64.393  1.00  0.00    -0.146 C  
HETATM    2  O   UNL     1     -12.446  15.053  63.961  1.00  0.00    -0.796 OA 
ENDROOT
BRANCH   2   3
HETATM    3  C   UNL     1     -12.645  14.101  64.912  1.00  0.00    -0.342 C  
HETATM    4  O   UNL     1     -13.602  14.079  65.671  1.00  0.00    -0.499 OA 
BRANCH   3   5
HETATM    5  C   UNL     1     -11.546  13.098  64.896  1.00  0.00    -0.356 C  
HETATM    6  C   UNL     1     -11.532  12.088  63.992  1.00  0.00    -0.404 C  
HETATM    7  N   UNL     1     -10.462  11.212  63.963  1.00  0.00    -0.362 NA 
HETATM    8  C   UNL     1     -12.589  11.756  62.965  1.00  0.00    -0.049 C  
HETATM    9  C   UNL     1      -9.460  11.146  64.908  1.00  0.00    -0.219 C  
HETATM   10  C   UNL     1      -8.474  10.014  64.722  1.00  0.00    -0.180 C  
HETATM   11  C   UNL     1      -9.414  12.067  65.901  1.00  0.00    -0.207 C  
HETATM   12  C   UNL     1     -10.419  13.227  65.945  1.00  0.00    -0.289 C  
BRANCH  11  13
HETATM   13  C   UNL     1      -8.406  11.878  66.977  1.00  0.00    -0.178 C  
HETATM   14  O   UNL     1      -7.638  12.764  67.321  1.00  0.00    -0.156 OA 
BRANCH  13  15
HETATM   15  O   UNL     1      -8.513  10.665  67.568  1.00  0.00    -0.121 OA 
HETATM   16  C   UNL     1      -7.691   8.687  68.797  1.00  0.00    -0.097 C  
HETATM   17  C   UNL     1      -7.109  11.050  69.521  1.00  0.00    -0.113 C  
HETATM   18  C   UNL     1      -7.366  10.142  68.307  1.00  0.00    -0.081 C  
HETATM   19  C   UNL     1      -6.097  10.007  67.433  1.00  0.00    -0.058 C  
BRANCH  16  20
HETATM   20  N   UNL     1      -8.830   8.474  69.727  1.00  0.00    -0.135 NA 
HETATM   21  C   UNL     1      -9.797   7.531  69.157  1.00  0.00    -0.170 C  
BRANCH  20  22
HETATM   22  C   UNL     1      -8.361   7.890  71.003  1.00  0.00    -0.111 C  
BRANCH  22  23
HETATM   23  C   UNL     1      -8.815   6.459  71.298  1.00  0.00    -0.138 C  
HETATM   24  C   UNL     1      -9.771   6.252  72.502  1.00  0.00    -0.163 C  
HETATM   25  C   UNL     1      -9.811   4.742  72.792  1.00  0.00    -0.184 A  
HETATM   26  C   UNL     1     -11.116   6.955  72.298  1.00  0.00    -0.284 A  
HETATM   27  C   UNL     1      -9.426   4.255  74.051  1.00  0.00    -0.119 A  
HETATM   28  C   UNL     1     -12.217   6.365  71.659  1.00  0.00    -0.271 A  
HETATM   29  C   UNL     1      -9.240   2.884  74.256  1.00  0.00    -0.098 A  
HETATM   30  C   UNL     1     -13.377   7.096  71.389  1.00  0.00    -0.380 A  
HETATM   31  C   UNL     1     -13.465   8.433  71.755  1.00  0.00    -0.388 A  
HETATM   32  C   UNL     1      -9.451   1.980  73.216  1.00  0.00    -0.100 A  
HETATM   33  C   UNL     1      -9.878   2.440  71.977  1.00  0.00    -0.223 A  
HETATM   34  C   UNL     1     -12.399   9.038  72.411  1.00  0.00    -0.350 A  
HETATM   35  C   UNL     1     -11.241   8.302  72.686  1.00  0.00    -0.410 A  
HETATM   36  C   UNL     1     -10.056   3.806  71.768  1.00  0.00    -0.174 A  
ENDBRANCH  22  23
ENDBRANCH  20  22
ENDBRANCH  16  20
ENDBRANCH  13  15
ENDBRANCH  11  13
BRANCH  12  37
HETATM   37  C   UNL     1     -10.979  13.415  67.358  1.00  0.00    -0.287 A  
HETATM   38  O   UNL     1     -10.612  17.041  69.332  1.00  0.00    -0.335 OA 
HETATM   39  C   UNL     1     -10.909  14.676  67.981  1.00  0.00    -0.260 A  
HETATM   40  O   UNL     1     -11.557  16.239  71.142  1.00  0.00    -0.427 OA 
HETATM   41  C   UNL     1     -11.994  12.516  69.377  1.00  0.00    -0.315 A  
HETATM   42  C   UNL     1     -11.326  14.833  69.308  1.00  0.00    -0.294 A  
HETATM   43  N   UNL     1     -11.156  16.132  69.973  1.00  0.00    -0.347 N  
HETATM   44  C   UNL     1     -11.873  13.755  70.009  1.00  0.00    -0.377 A  
HETATM   45  C   UNL     1     -11.546  12.346  68.064  1.00  0.00    -0.403 A  
ENDBRANCH  12  37
ENDBRANCH   3   5
ENDBRANCH   2   3
TORSDOF 8
ENDMDL
MODEL        4
REMARK 921   NORMALIZED FREE ENERGY PREDICTED BY IDOCK:   -7.05 KCAL/MOL
REMARK 922        TOTAL FREE ENERGY PREDICTED BY IDOCK:  -12.26 KCAL/MOL
REMARK 923 INTER-LIGAND FREE ENERGY PREDICTED BY IDOCK:  -10.69 KCAL/MOL
REMARK 924 INTRA-LIGAND FREE ENERGY PREDICTED BY IDOCK:   -1.57 KCAL/MOL
REMARK 927      BINDING AFFINITY PREDICTED BY RF-SCORE:    0.00 PKD
ROOT
HETATM    1  C   UNL     1     -12.264  15.796  70.149  1.00  0.00    -0.314 C  
HETATM    2  O   UNL     1     -10.912  16.240  70.307  1.00  0.00    -0.347 OA 
ENDROOT
BRANCH   2   3
HETATM    3  C   UNL     1     -10.315  16.571  69.131  1.00  0.00    -0.316 C  
HETATM    4  O   UNL     1     -10.730  17.431  68.369  1.00  0.00    -0.358 OA 
BRANCH   3   5
HETATM    5  C   UNL     1      -9.094  15.750  68.907  1.00  0.00    -0.225 C  
HETATM    6  C   UNL     1      -7.863  16.317  68.876  1.00  0.00    -0.224 C  
HETATM    7  N   UNL     1      -6.745  15.515  68.732  1.00  0.00    -0.110 NA 
HETATM    8  C   UNL     1      -7.524  17.787  68.966  1.00  0.00    -0.170 C  
HETATM    9  C   UNL     1      -6.763  14.171  68.423  1.00  0.00    -0.105 C  
HETATM   10  C   UNL     1      -5.404  13.548  68.189  1.00  0.00    -0.107 C  
HETATM   11  C   UNL     1      -7.946  13.514  68.359  1.00  0.00    -0.142 C  
HETATM   12  C   UNL     1      -9.262  14.228  68.699  1.00  0.00    -0.167 C  
BRANCH  11  13
HETATM   13  C   UNL     1      -7.932  12.105  67.885  1.00  0.00    -0.150 C  
HETATM   14  O   UNL     1      -8.054  11.807  66.707  1.00  0.00    -0.166 OA 
BRANCH  13  15
HETATM   15  O   UNL     1      -7.679  11.232  68.889  1.00  0.00    -0.133 OA 
HETATM   16  C   UNL     1      -8.164   9.322  70.377  1.00  0.00    -0.178 C  
HETATM   17  C   UNL     1      -8.542   9.195  67.870  1.00  0.00    -0.121 C  
HETATM   18  C   UNL     1      -8.601  10.118  69.098  1.00  0.00    -0.165 C  
HETATM   19  C   UNL     1     -10.051  10.581  69.377  1.00  0.00    -0.233 C  
BRANCH  16  20
HETATM   20  N   UNL     1      -6.827   8.675  70.405  1.00  0.00    -0.040 NA 
HETATM   21  C   UNL     1      -5.920   9.394  71.305  1.00  0.00    -0.076 C  
BRANCH  20  22
HETATM   22  C   UNL     1      -6.927   7.289  70.913  1.00  0.00    -0.056 C  
BRANCH  22  23
HETATM   23  C   UNL     1      -7.701   6.302  70.036  1.00  0.00    -0.101 C  
HETATM   24  C   UNL     1      -8.814   5.468  70.720  1.00  0.00    -0.143 C  
HETATM   25  C   UNL     1      -9.201   4.345  69.743  1.00  0.00    -0.199 A  
HETATM   26  C   UNL     1      -9.949   6.347  71.253  1.00  0.00    -0.204 A  
HETATM   27  C   UNL     1      -9.078   3.001  70.128  1.00  0.00    -0.189 A  
HETATM   28  C   UNL     1     -11.065   6.727  70.492  1.00  0.00    -0.346 A  
HETATM   29  C   UNL     1      -9.207   1.976  69.184  1.00  0.00    -0.193 A  
HETATM   30  C   UNL     1     -12.007   7.632  70.988  1.00  0.00    -0.296 A  
HETATM   31  C   UNL     1     -11.858   8.176  72.257  1.00  0.00    -0.441 A  
HETATM   32  C   UNL     1      -9.478   2.277  67.850  1.00  0.00    -0.172 A  
HETATM   33  C   UNL     1      -9.650   3.599  67.461  1.00  0.00    -0.194 A  
HETATM   34  C   UNL     1     -10.774   7.800  73.043  1.00  0.00    -0.446 A  
HETATM   35  C   UNL     1      -9.836   6.888  72.547  1.00  0.00    -0.174 A  
HETATM   36  C   UNL     1      -9.513   4.621  68.398  1.00  0.00    -0.201 A  
ENDBRANCH  22  23
ENDBRANCH  20  22
ENDBRANCH  16  20
ENDBRANCH  13  15
ENDBRANCH  11  13
BRANCH  12  37
HETATM   37  C   UNL     1     -10.342  13.914  67.658  1.00  0.00    -0.242 A  
HETATM   38  O   UNL     1     -10.916  16.376  64.374  1.00  0.00    -0.798 OA 
HETATM   39  C   UNL     1     -10.470  14.723  66.512  1.00  0.00    -0.291 A  
HETATM   40  O   UNL     1     -12.617  15.179  63.678  1.00  0.00    -0.614 OA 
HETATM   41  C   UNL     1     -12.250  12.609  66.907  1.00  0.00    -0.034 A  
HETATM   42  C   UNL     1     -11.516  14.505  65.608  1.00  0.00    -0.341 A  
HETATM   43  N   UNL     1     -11.693  15.417  64.470  1.00  0.00    -0.349 N  
HETATM   44  C   UNL     1     -12.407  13.445  65.800  1.00  0.00    -0.513 A  
HETATM   45  C   UNL     1     -11.228  12.845  67.832  1.00  0.00    -0.306 A  
ENDBRANCH  12  37
ENDBRANCH   3   5
ENDBRANCH   2   3
TORSDOF 8
ENDMDL
MODEL        5
REMARK 921   NORMALIZED FREE ENERGY PREDICTED BY IDOCK:   -7.03 KCAL/MOL
REMARK 922        TOTAL FREE ENERGY PREDICTED BY IDOCK:  -12.23 KCAL/MOL
REMARK 923 INTER-LIGAND FREE ENERGY PREDICTED BY IDOCK:  -11.29 KCAL/MOL
REMARK 924 INTRA-LIGAND FREE ENERGY PREDICTED BY IDOCK:   -0.94 KCAL/MOL
REMARK 927      BINDING AFFINITY PREDICTED BY RF-SCORE:    0.00 PKD
ROOT
HETATM    1  C   UNL     1     -11.172   5.122  72.922  1.00  0.00    -0.294 C  
HETATM    2  O   UNL     1     -11.801   6.344  72.523  1.00  0.00    -0.236 OA 
ENDROOT
BRANCH   2   3
HETATM    3  C   UNL     1     -11.013   7.438  72.703  1.00  0.00    -0.317 C  
HETATM    4  O   UNL     1     -10.272   7.599  73.660  1.00  0.00    -0.320 OA 
BRANCH   3   5
HETATM    5  C   UNL     1     -11.176   8.399  71.579  1.00  0.00    -0.328 C  
HETATM    6  C   UNL     1     -12.252   9.222  71.510  1.00  0.00    -0.362 C  
HETATM    7  N   UNL     1     -12.338  10.149  70.487  1.00  0.00    -0.269 NA 
HETATM    8  C   UNL     1     -13.444   9.259  72.438  1.00  0.00    -0.526 C  
HETATM    9  C   UNL     1     -11.507  10.203  69.388  1.00  0.00    -0.142 C  
HETATM   10  C   UNL     1     -11.890  11.228  68.343  1.00  0.00    -0.331 C  
HETATM   11  C   UNL     1     -10.434   9.377  69.318  1.00  0.00    -0.230 C  
HETATM   12  C   UNL     1     -10.092   8.433  70.479  1.00  0.00    -0.211 C  
BRANCH  11  13
HETATM   13  C   UNL     1      -9.648   9.368  68.057  1.00  0.00    -0.138 C  
HETATM   14  O   UNL     1      -9.968   8.698  67.087  1.00  0.00    -0.188 OA 
BRANCH  13  15
HETATM   15  O   UNL     1      -8.617  10.246  68.093  1.00  0.00    -0.117 OA 
HETATM   16  C   UNL     1      -6.872  11.698  67.122  1.00  0.00    -0.143 C  
HETATM   17  C   UNL     1      -9.244  11.670  66.219  1.00  0.00    -0.225 C  
HETATM   18  C   UNL     1      -8.131  10.807  66.834  1.00  0.00    -0.132 C  
HETATM   19  C   UNL     1      -7.650   9.726  65.839  1.00  0.00    -0.103 C  
BRANCH  16  20
HETATM   20  N   UNL     1      -7.013  12.888  68.001  1.00  0.00    -0.093 NA 
HETATM   21  C   UNL     1      -5.817  13.733  67.927  1.00  0.00    -0.131 C  
BRANCH  20  22
HETATM   22  C   UNL     1      -8.156  13.724  67.571  1.00  0.00    -0.185 C  
BRANCH  22  23
HETATM   23  C   UNL     1      -9.329  13.818  68.548  1.00  0.00    -0.144 C  
HETATM   24  C   UNL     1     -10.336  14.978  68.339  1.00  0.00    -0.231 C  
HETATM   25  C   UNL     1     -11.203  15.059  69.606  1.00  0.00    -0.296 A  
HETATM   26  C   UNL     1     -11.071  14.870  67.000  1.00  0.00    -0.338 A  
HETATM   27  C   UNL     1     -11.239  16.239  70.364  1.00  0.00    -0.336 A  
HETATM   28  C   UNL     1     -12.263  14.152  66.820  1.00  0.00    -0.429 A  
HETATM   29  C   UNL     1     -11.836  16.254  71.629  1.00  0.00    -0.482 A  
HETATM   30  C   UNL     1     -12.823  13.982  65.551  1.00  0.00    -0.453 A  
HETATM   31  C   UNL     1     -12.207  14.529  64.433  1.00  0.00    -0.480 A  
HETATM   32  C   UNL     1     -12.419  15.099  72.148  1.00  0.00    -0.420 A  
HETATM   33  C   UNL     1     -12.434  13.934  71.392  1.00  0.00    -0.424 A  
HETATM   34  C   UNL     1     -11.037  15.264  64.583  1.00  0.00    -0.346 A  
HETATM   35  C   UNL     1     -10.482  15.439  65.856  1.00  0.00    -0.354 A  
HETATM   36  C   UNL     1     -11.833  13.914  70.135  1.00  0.00    -0.368 A  
ENDBRANCH  22  23
ENDBRANCH  20  22
ENDBRANCH  16  20
ENDBRANCH  13  15
ENDBRANCH  11  13
BRANCH  12  37
HETATM   37  C   UNL     1      -9.762   7.028  69.965  1.00  0.00    -0.171 A  
HETATM   38  O   UNL     1      -5.878   5.583  70.058  1.00  0.00    -0.018 OA 
HETATM   39  C   UNL     1      -8.449   6.530  70.074  1.00  0.00    -0.135 A  
HETATM   40  O   UNL     1      -6.468   3.715  69.072  1.00  0.00    -0.032 OA 
HETATM   41  C   UNL     1     -10.409   4.973  68.839  1.00  0.00    -0.134 A  
HETATM   42  C   UNL     1      -8.116   5.289  69.517  1.00  0.00    -0.094 A  
HETATM   43  N   UNL     1      -6.721   4.828  69.555  1.00  0.00    -0.043 N  
HETATM   44  C   UNL     1      -9.095   4.505  68.902  1.00  0.00    -0.171 A  
HETATM   45  C   UNL     1     -10.739   6.227  69.362  1.00  0.00    -0.364 A  
ENDBRANCH  12  37
ENDBRANCH   3   5
ENDBRANCH   2   3
TORSDOF 8
ENDMDL
MODEL        6
REMARK 921   NORMALIZED FREE ENERGY PREDICTED BY IDOCK:   -7.00 KCAL/MOL
REMARK 922        TOTAL FREE ENERGY PREDICTED BY IDOCK:  -12.18 KCAL/MOL
REMARK 923 INTER-LIGAND FREE ENERGY PREDICTED BY IDOCK:  -11.15 KCAL/MOL
REMARK 924 INTRA-LIGAND FREE ENERGY PREDICTED BY IDOCK:   -1.03 KCAL/MOL
REMARK 927      BINDING AFFINITY PREDICTED BY RF-SCORE:    0.00 PKD
ROOT
HETATM    1  C   UNL     1      -8.126   7.759  74.478  1.00  0.00    -0.225 C  
HETATM    2  O   UNL     1      -8.898   8.663  73.681  1.00  0.00    -0.224 OA 
ENDROOT
BRANCH   2   3
HETATM    3  C   UNL     1      -9.953   8.068  73.063  1.00  0.00    -0.279 C  
HETATM    4  O   UNL     1     -10.560   7.109  73.512  1.00  0.00    -0.353 OA 
BRANCH   3   5
HETATM    5  C   UNL     1     -10.261   8.745  71.774  1.00  0.00    -0.408 C  
HETATM    6  C   UNL     1     -11.526   9.122  71.465  1.00  0.00    -0.367 C  
HETATM    7  N   UNL     1     -11.767   9.807  70.287  1.00  0.00    -0.228 NA 
HETATM    8  C   UNL     1     -12.784   8.867  72.262  1.00  0.00    -0.464 C  
HETATM    9  C   UNL     1     -10.851   9.996  69.274  1.00  0.00    -0.230 C  
HETATM   10  C   UNL     1     -11.397  10.666  68.031  1.00  0.00    -0.350 C  
HETATM   11  C   UNL     1      -9.567   9.597  69.447  1.00  0.00    -0.200 C  
HETATM   12  C   UNL     1      -9.102   9.004  70.785  1.00  0.00    -0.297 C  
BRANCH  11  13
HETATM   13  C   UNL     1      -8.649   9.689  68.282  1.00  0.00    -0.119 C  
HETATM   14  O   UNL     1      -8.670   8.884  67.364  1.00  0.00    -0.124 OA 
BRANCH  13  15
HETATM   15  O   UNL     1      -7.878  10.801  68.328  1.00  0.00    -0.106 OA 
HETATM   16  C   UNL     1      -6.594  12.682  67.373  1.00  0.00    -0.144 C  
HETATM   17  C   UNL     1      -8.905  12.069  66.519  1.00  0.00    -0.172 C  
HETATM   18  C   UNL     1      -7.589  11.505  67.080  1.00  0.00    -0.154 C  
HETATM   19  C   UNL     1      -6.876  10.613  66.037  1.00  0.00    -0.129 C  
BRANCH  16  20
HETATM   20  N   UNL     1      -7.010  13.770  68.296  1.00  0.00    -0.095 NA 
HETATM   21  C   UNL     1      -6.006  14.838  68.325  1.00  0.00    -0.121 C  
BRANCH  20  22
HETATM   22  C   UNL     1      -8.277  14.383  67.843  1.00  0.00    -0.156 C  
BRANCH  22  23
HETATM   23  C   UNL     1      -9.511  14.096  68.701  1.00  0.00    -0.163 C  
HETATM   24  C   UNL     1     -10.776  14.954  68.435  1.00  0.00    -0.245 C  
HETATM   25  C   UNL     1     -11.737  14.717  69.611  1.00  0.00    -0.354 A  
HETATM   26  C   UNL     1     -11.335  14.736  67.026  1.00  0.00    -0.358 A  
HETATM   27  C   UNL     1     -12.161  15.795  70.404  1.00  0.00    -0.399 A  
HETATM   28  C   UNL     1     -12.265  13.736  66.702  1.00  0.00    -0.454 A  
HETATM   29  C   UNL     1     -12.845  15.569  71.604  1.00  0.00    -0.518 A  
HETATM   30  C   UNL     1     -12.645  13.502  65.378  1.00  0.00    -0.531 A  
HETATM   31  C   UNL     1     -12.108  14.263  64.347  1.00  0.00    -0.490 A  
HETATM   32  C   UNL     1     -13.132  14.269  72.018  1.00  0.00    -0.456 A  
HETATM   33  C   UNL     1     -12.762  13.193  71.222  1.00  0.00    -0.396 A  
HETATM   34  C   UNL     1     -11.202  15.276  64.641  1.00  0.00    -0.366 A  
HETATM   35  C   UNL     1     -10.828  15.513  65.968  1.00  0.00    -0.301 A  
HETATM   36  C   UNL     1     -12.073  13.415  70.031  1.00  0.00    -0.404 A  
ENDBRANCH  22  23
ENDBRANCH  20  22
ENDBRANCH  16  20
ENDBRANCH  13  15
ENDBRANCH  11  13
BRANCH  12  37
HETATM   37  C   UNL     1      -8.256   7.747  70.563  1.00  0.00    -0.120 A  
HETATM   38  O   UNL     1     -10.022   4.143  69.527  1.00  0.00    -0.177 OA 
HETATM   39  C   UNL     1      -8.870   6.551  70.140  1.00  0.00    -0.144 A  
HETATM   40  O   UNL     1      -8.095   3.097  69.575  1.00  0.00    -0.048 OA 
HETATM   41  C   UNL     1      -6.126   6.579  70.651  1.00  0.00    -0.031 A  
HETATM   42  C   UNL     1      -8.120   5.373  70.032  1.00  0.00    -0.085 A  
HETATM   43  N   UNL     1      -8.794   4.115  69.683  1.00  0.00    -0.079 N  
HETATM   44  C   UNL     1      -6.746   5.384  70.283  1.00  0.00    -0.047 A  
HETATM   45  C   UNL     1      -6.875   7.750  70.795  1.00  0.00    -0.042 A  
ENDBRANCH  12  37
ENDBRANCH   3   5
ENDBRANCH   2   3
TORSDOF 8
ENDMDL
MODEL        7
REMARK 921   NORMALIZED FREE ENERGY PREDICTED BY IDOCK:   -6.94 KCAL/MOL
REMARK 922        TOTAL FREE ENERGY PREDICTED BY IDOCK:  -12.10 KCAL/MOL
REMARK 923 INTER-LIGAND FREE ENERGY PREDICTED BY IDOCK:  -10.50 KCAL/MOL
REMARK 924 INTRA-LIGAND FREE ENERGY PREDICTED BY IDOCK:   -1.60 KCAL/MOL
REMARK 927      BINDING AFFINITY PREDICTED BY RF-SCORE:    0.00 PKD
ROOT
HETATM    1  C   UNL     1     -10.277   6.156  74.163  1.00  0.00    -0.309 C  
HETATM    2  O   UNL     1     -10.691   7.392  73.571  1.00  0.00    -0.385 OA 
ENDROOT
BRANCH   2   3
HETATM    3  C   UNL     1     -11.520   7.226  72.505  1.00  0.00    -0.281 C  
HETATM    4  O   UNL     1     -12.148   6.203  72.277  1.00  0.00    -0.311 OA 
BRANCH   3   5
HETATM    5  C   UNL     1     -11.557   8.455  71.667  1.00  0.00    -0.348 C  
HETATM    6  C   UNL     1     -12.603   9.316  71.731  1.00  0.00    -0.382 C  
HETATM    7  N   UNL     1     -12.574  10.481  70.986  1.00  0.00    -0.366 NA 
HETATM    8  C   UNL     1     -13.874   9.163  72.533  1.00  0.00    -0.485 C  
HETATM    9  C   UNL     1     -11.644  10.784  70.014  1.00  0.00    -0.334 C  
HETATM   10  C   UNL     1     -11.906  12.063  69.250  1.00  0.00    -0.377 C  
HETATM   11  C   UNL     1     -10.588   9.957  69.816  1.00  0.00    -0.296 C  
HETATM   12  C   UNL     1     -10.376   8.726  70.709  1.00  0.00    -0.264 C  
BRANCH  11  13
HETATM   13  C   UNL     1      -9.689  10.243  68.668  1.00  0.00    -0.167 C  
HETATM   14  O   UNL     1      -9.848   9.737  67.567  1.00  0.00    -0.155 OA 
BRANCH  13  15
HETATM   15  O   UNL     1      -8.760  11.180  68.970  1.00  0.00    -0.124 OA 
HETATM   16  C   UNL     1      -6.586  12.333  68.760  1.00  0.00    -0.084 C  
HETATM   17  C   UNL     1      -7.954  11.676  66.725  1.00  0.00    -0.140 C  
HETATM   18  C   UNL     1      -7.553  11.259  68.149  1.00  0.00    -0.105 C  
HETATM   19  C   UNL     1      -6.746   9.940  68.136  1.00  0.00    -0.060 C  
BRANCH  16  20
HETATM   20  N   UNL     1      -7.038  13.746  68.850  1.00  0.00    -0.110 NA 
HETATM   21  C   UNL     1      -6.578  14.360  70.099  1.00  0.00    -0.104 C  
BRANCH  20  22
HETATM   22  C   UNL     1      -6.472  14.548  67.743  1.00  0.00    -0.164 C  
BRANCH  22  23
HETATM   23  C   UNL     1      -6.702  16.058  67.817  1.00  0.00    -0.175 C  
HETATM   24  C   UNL     1      -7.645  16.685  66.757  1.00  0.00    -0.292 C  
HETATM   25  C   UNL     1      -7.453  18.209  66.827  1.00  0.00    -0.242 A  
HETATM   26  C   UNL     1      -9.078  16.159  66.877  1.00  0.00    -0.241 A  
HETATM   27  C   UNL     1      -7.030  18.920  65.693  1.00  0.00    -0.267 A  
HETATM   28  C   UNL     1     -10.054  16.735  67.704  1.00  0.00    -0.275 A  
HETATM   29  C   UNL     1      -6.635  20.258  65.799  1.00  0.00    -0.274 A  
HETATM   30  C   UNL     1     -11.307  16.140  67.870  1.00  0.00    -0.182 A  
HETATM   31  C   UNL     1     -11.616  14.956  67.211  1.00  0.00    -0.337 A  
HETATM   32  C   UNL     1      -6.673  20.909  67.032  1.00  0.00    -0.396 A  
HETATM   33  C   UNL     1      -7.134  20.235  68.155  1.00  0.00    -0.295 A  
HETATM   34  C   UNL     1     -10.676  14.375  66.367  1.00  0.00    -0.306 A  
HETATM   35  C   UNL     1      -9.425  14.977  66.196  1.00  0.00    -0.347 A  
HETATM   36  C   UNL     1      -7.520  18.899  68.053  1.00  0.00    -0.277 A  
ENDBRANCH  22  23
ENDBRANCH  20  22
ENDBRANCH  16  20
ENDBRANCH  13  15
ENDBRANCH  11  13
BRANCH  12  37
HETATM   37  C   UNL     1     -10.031   7.492  69.870  1.00  0.00    -0.189 A  
HETATM   38  O   UNL     1      -6.221   5.862  69.941  1.00  0.00    -0.025 OA 
HETATM   39  C   UNL     1      -8.751   6.911  69.966  1.00  0.00    -0.142 A  
HETATM   40  O   UNL     1      -6.754   4.357  68.437  1.00  0.00    -0.045 OA 
HETATM   41  C   UNL     1     -10.611   5.847  68.177  1.00  0.00    -0.312 A  
HETATM   42  C   UNL     1      -8.396   5.846  69.130  1.00  0.00    -0.106 A  
HETATM   43  N   UNL     1      -7.026   5.315  69.176  1.00  0.00    -0.054 N  
HETATM   44  C   UNL     1      -9.324   5.308  68.236  1.00  0.00    -0.143 A  
HETATM   45  C   UNL     1     -10.960   6.934  68.983  1.00  0.00    -0.225 A  
ENDBRANCH  12  37
ENDBRANCH   3   5
ENDBRANCH   2   3
TORSDOF 8
ENDMDL
MODEL        8
REMARK 921   NORMALIZED FREE ENERGY PREDICTED BY IDOCK:   -6.87 KCAL/MOL
REMARK 922        TOTAL FREE ENERGY PREDICTED BY IDOCK:  -11.99 KCAL/MOL
REMARK 923 INTER-LIGAND FREE ENERGY PREDICTED BY IDOCK:  -11.29 KCAL/MOL
REMARK 924 INTRA-LIGAND FREE ENERGY PREDICTED BY IDOCK:   -0.71 KCAL/MOL
REMARK 927      BINDING AFFINITY PREDICTED BY RF-SCORE:    0.00 PKD
ROOT
HETATM    1  C   UNL     1      -5.432   5.040  73.036  1.00  0.00    -0.013 C  
HETATM    2  O   UNL     1      -6.497   5.286  72.111  1.00  0.00    -0.040 OA 
ENDROOT
BRANCH   2   3
HETATM    3  C   UNL     1      -7.345   6.268  72.518  1.00  0.00    -0.085 C  
HETATM    4  O   UNL     1      -8.210   6.121  73.368  1.00  0.00    -0.113 OA 
BRANCH   3   5
HETATM    5  C   UNL     1      -7.072   7.538  71.791  1.00  0.00    -0.063 C  
HETATM    6  C   UNL     1      -6.479   8.587  72.411  1.00  0.00    -0.084 C  
HETATM    7  N   UNL     1      -6.180   9.728  71.688  1.00  0.00    -0.305 NA 
HETATM    8  C   UNL     1      -6.093   8.698  73.868  1.00  0.00    -0.130 C  
HETATM    9  C   UNL     1      -6.600   9.988  70.400  1.00  0.00    -0.132 C  
HETATM   10  C   UNL     1      -6.252  11.365  69.877  1.00  0.00    -0.143 C  
HETATM   11  C   UNL     1      -7.263   9.032  69.705  1.00  0.00    -0.056 C  
HETATM   12  C   UNL     1      -7.489   7.638  70.307  1.00  0.00    -0.083 C  
BRANCH  11  13
HETATM   13  C   UNL     1      -7.821   9.401  68.378  1.00  0.00    -0.090 C  
HETATM   14  O   UNL     1      -7.429   8.896  67.337  1.00  0.00    -0.084 OA 
BRANCH  13  15
HETATM   15  O   UNL     1      -8.853  10.271  68.482  1.00  0.00    -0.118 OA 
HETATM   16  C   UNL     1     -10.764  11.596  67.652  1.00  0.00    -0.207 C  
HETATM   17  C   UNL     1     -10.466   9.149  67.044  1.00  0.00    -0.311 C  
HETATM   18  C   UNL     1      -9.725  10.466  67.327  1.00  0.00    -0.165 C  
HETATM   19  C   UNL     1      -8.964  10.956  66.073  1.00  0.00    -0.200 C  
BRANCH  16  20
HETATM   20  N   UNL     1     -11.716  11.402  68.776  1.00  0.00    -0.319 NA 
HETATM   21  C   UNL     1     -11.076  10.679  69.880  1.00  0.00    -0.298 C  
BRANCH  20  22
HETATM   22  C   UNL     1     -12.161  12.705  69.317  1.00  0.00    -0.166 C  
BRANCH  22  23
HETATM   23  C   UNL     1     -11.185  13.872  69.154  1.00  0.00    -0.311 C  
HETATM   24  C   UNL     1     -11.764  15.305  69.287  1.00  0.00    -0.359 C  
HETATM   25  C   UNL     1     -10.692  16.275  68.763  1.00  0.00    -0.309 A  
HETATM   26  C   UNL     1     -12.320  15.574  70.688  1.00  0.00    -0.462 A  
HETATM   27  C   UNL     1     -10.980  17.130  67.688  1.00  0.00    -0.148 A  
HETATM   28  C   UNL     1     -11.549  16.069  71.751  1.00  0.00    -0.534 A  
HETATM   29  C   UNL     1      -9.957  17.849  67.058  1.00  0.00    -0.324 A  
HETATM   30  C   UNL     1     -12.078  16.177  73.041  1.00  0.00    -0.636 A  
HETATM   31  C   UNL     1     -13.389  15.797  73.297  1.00  0.00    -0.649 A  
HETATM   32  C   UNL     1      -8.640  17.737  67.502  1.00  0.00    -0.228 A  
HETATM   33  C   UNL     1      -8.346  16.932  68.595  1.00  0.00    -0.261 A  
HETATM   34  C   UNL     1     -14.183  15.324  72.258  1.00  0.00    -0.642 A  
HETATM   35  C   UNL     1     -13.654  15.224  70.966  1.00  0.00    -0.486 A  
HETATM   36  C   UNL     1      -9.361  16.209  69.218  1.00  0.00    -0.227 A  
ENDBRANCH  22  23
ENDBRANCH  20  22
ENDBRANCH  16  20
ENDBRANCH  13  15
ENDBRANCH  11  13
BRANCH  12  37
HETATM   37  C   UNL     1      -8.933   7.174  70.092  1.00  0.00    -0.145 A  
HETATM   38  O   UNL     1     -11.974   8.439  72.609  1.00  0.00    -0.396 OA 
HETATM   39  C   UNL     1      -9.962   7.675  70.914  1.00  0.00    -0.183 A  
HETATM   40  O   UNL     1     -13.455   7.202  71.567  1.00  0.00    -0.383 OA 
HETATM   41  C   UNL     1     -10.568   5.776  68.960  1.00  0.00    -0.351 A  
HETATM   42  C   UNL     1     -11.267   7.182  70.791  1.00  0.00    -0.279 A  
HETATM   43  N   UNL     1     -12.307   7.644  71.720  1.00  0.00    -0.308 N  
HETATM   44  C   UNL     1     -11.575   6.235  69.811  1.00  0.00    -0.330 A  
HETATM   45  C   UNL     1      -9.257   6.238  69.102  1.00  0.00    -0.128 A  
ENDBRANCH  12  37
ENDBRANCH   3   5
ENDBRANCH   2   3
TORSDOF 8
ENDMDL
MODEL        9
REMARK 921   NORMALIZED FREE ENERGY PREDICTED BY IDOCK:   -6.85 KCAL/MOL
REMARK 922        TOTAL FREE ENERGY PREDICTED BY IDOCK:  -11.97 KCAL/MOL
REMARK 923 INTER-LIGAND FREE ENERGY PREDICTED BY IDOCK:  -10.86 KCAL/MOL
REMARK 924 INTRA-LIGAND FREE ENERGY PREDICTED BY IDOCK:   -1.11 KCAL/MOL
REMARK 927      BINDING AFFINITY PREDICTED BY RF-SCORE:    0.00 PKD
ROOT
HETATM    1  C   UNL     1      -9.712   4.442  70.301  1.00  0.00    -0.211 C  
HETATM    2  O   UNL     1      -9.558   5.170  71.524  1.00  0.00    -0.147 OA 
ENDROOT
BRANCH   2   3
HETATM    3  C   UNL     1      -8.837   6.314  71.381  1.00  0.00    -0.139 C  
HETATM    4  O   UNL     1      -7.617   6.357  71.347  1.00  0.00    -0.091 OA 
BRANCH   3   5
HETATM    5  C   UNL     1      -9.735   7.496  71.270  1.00  0.00    -0.173 C  
HETATM    6  C   UNL     1     -10.613   7.804  72.257  1.00  0.00    -0.259 C  
HETATM    7  N   UNL     1     -11.386   8.946  72.150  1.00  0.00    -0.346 NA 
HETATM    8  C   UNL     1     -10.892   7.021  73.519  1.00  0.00    -0.289 C  
HETATM    9  C   UNL     1     -11.493   9.734  71.024  1.00  0.00    -0.383 C  
HETATM   10  C   UNL     1     -12.506  10.854  71.117  1.00  0.00    -0.511 C  
HETATM   11  C   UNL     1     -10.710   9.476  69.948  1.00  0.00    -0.268 C  
HETATM   12  C   UNL     1      -9.653   8.363  69.994  1.00  0.00    -0.168 C  
BRANCH  11  13
HETATM   13  C   UNL     1     -10.956  10.257  68.708  1.00  0.00    -0.243 C  
HETATM   14  O   UNL     1     -12.031  10.249  68.129  1.00  0.00    -0.121 OA 
BRANCH  13  15
HETATM   15  O   UNL     1      -9.893  11.026  68.371  1.00  0.00    -0.168 OA 
HETATM   16  C   UNL     1      -8.288  12.079  66.818  1.00  0.00    -0.135 C  
HETATM   17  C   UNL     1     -10.786  12.077  66.363  1.00  0.00    -0.294 C  
HETATM   18  C   UNL     1      -9.622  11.265  66.955  1.00  0.00    -0.178 C  
HETATM   19  C   UNL     1      -9.392   9.960  66.158  1.00  0.00    -0.232 C  
BRANCH  16  20
HETATM   20  N   UNL     1      -8.202  13.435  67.421  1.00  0.00    -0.181 NA 
HETATM   21  C   UNL     1      -6.804  13.823  67.628  1.00  0.00    -0.175 C  
BRANCH  20  22
HETATM   22  C   UNL     1      -8.800  14.446  66.523  1.00  0.00    -0.089 C  
BRANCH  22  23
HETATM   23  C   UNL     1      -8.773  15.893  67.021  1.00  0.00    -0.248 C  
HETATM   24  C   UNL     1     -10.131  16.538  67.400  1.00  0.00    -0.279 C  
HETATM   25  C   UNL     1      -9.889  18.050  67.541  1.00  0.00    -0.309 A  
HETATM   26  C   UNL     1     -10.798  15.829  68.582  1.00  0.00    -0.278 A  
HETATM   27  C   UNL     1     -10.600  18.957  66.741  1.00  0.00    -0.480 A  
HETATM   28  C   UNL     1     -10.563  16.161  69.925  1.00  0.00    -0.302 A  
HETATM   29  C   UNL     1     -10.232  20.306  66.694  1.00  0.00    -0.491 A  
HETATM   30  C   UNL     1     -11.101  15.399  70.965  1.00  0.00    -0.377 A  
HETATM   31  C   UNL     1     -11.889  14.288  70.688  1.00  0.00    -0.349 A  
HETATM   32  C   UNL     1      -9.162  20.771  67.458  1.00  0.00    -0.325 A  
HETATM   33  C   UNL     1      -8.477  19.897  68.293  1.00  0.00    -0.245 A  
HETATM   34  C   UNL     1     -12.157  13.949  69.367  1.00  0.00    -0.384 A  
HETATM   35  C   UNL     1     -11.623  14.718  68.327  1.00  0.00    -0.348 A  
HETATM   36  C   UNL     1      -8.837  18.551  68.333  1.00  0.00    -0.346 A  
ENDBRANCH  22  23
ENDBRANCH  20  22
ENDBRANCH  16  20
ENDBRANCH  13  15
ENDBRANCH  11  13
BRANCH  12  37
HETATM   37  C   UNL     1      -9.700   7.509  68.724  1.00  0.00    -0.151 A  
HETATM   38  O   UNL     1      -6.254   6.717  66.561  1.00  0.00    -0.037 OA 
HETATM   39  C   UNL     1      -8.506   7.191  68.046  1.00  0.00    -0.122 A  
HETATM   40  O   UNL     1      -7.377   5.621  65.028  1.00  0.00    -0.067 OA 
HETATM   41  C   UNL     1     -10.948   6.326  67.006  1.00  0.00    -0.442 A  
HETATM   42  C   UNL     1      -8.549   6.497  66.831  1.00  0.00    -0.114 A  
HETATM   43  N   UNL     1      -7.303   6.258  66.089  1.00  0.00    -0.079 N  
HETATM   44  C   UNL     1      -9.768   6.058  66.309  1.00  0.00    -0.119 A  
HETATM   45  C   UNL     1     -10.915   7.049  68.202  1.00  0.00    -0.165 A  
ENDBRANCH  12  37
ENDBRANCH   3   5
ENDBRANCH   2   3
TORSDOF 8
ENDMDL
MODEL       10
REMARK 921   NORMALIZED FREE ENERGY PREDICTED BY IDOCK:   -6.79 KCAL/MOL
REMARK 922        TOTAL FREE ENERGY PREDICTED BY IDOCK:  -11.87 KCAL/MOL
REMARK 923 INTER-LIGAND FREE ENERGY PREDICTED BY IDOCK:  -10.91 KCAL/MOL
REMARK 924 INTRA-LIGAND FREE ENERGY PREDICTED BY IDOCK:   -0.97 KCAL/MOL
REMARK 927      BINDING AFFINITY PREDICTED BY RF-SCORE:    0.00 PKD
ROOT
HETATM    1  C   UNL     1     -12.162  14.181  69.187  1.00  0.00    -0.255 C  
HETATM    2  O   UNL     1     -10.848  13.652  69.400  1.00  0.00    -0.148 OA 
ENDROOT
BRANCH   2   3
HETATM    3  C   UNL     1      -9.873  14.372  68.783  1.00  0.00    -0.214 C  
HETATM    4  O   UNL     1      -9.845  15.592  68.738  1.00  0.00    -0.198 OA 
BRANCH   3   5
HETATM    5  C   UNL     1      -8.853  13.472  68.178  1.00  0.00    -0.179 C  
HETATM    6  C   UNL     1      -7.530  13.664  68.400  1.00  0.00    -0.123 C  
HETATM    7  N   UNL     1      -6.613  12.770  67.876  1.00  0.00    -0.102 NA 
HETATM    8  C   UNL     1      -6.878  14.790  69.168  1.00  0.00    -0.133 C  
HETATM    9  C   UNL     1      -6.902  11.772  66.969  1.00  0.00    -0.137 C  
HETATM   10  C   UNL     1      -5.702  11.011  66.447  1.00  0.00    -0.132 C  
HETATM   11  C   UNL     1      -8.190  11.535  66.621  1.00  0.00    -0.156 C  
HETATM   12  C   UNL     1      -9.338  12.314  67.278  1.00  0.00    -0.185 C  
BRANCH  11  13
HETATM   13  C   UNL     1      -8.446  10.550  65.538  1.00  0.00    -0.173 C  
HETATM   14  O   UNL     1      -8.048  10.713  64.394  1.00  0.00    -0.089 OA 
BRANCH  13  15
HETATM   15  O   UNL     1      -9.074   9.441  65.995  1.00  0.00    -0.158 OA 
HETATM   16  C   UNL     1      -9.348   7.019  66.388  1.00  0.00    -0.138 C  
HETATM   17  C   UNL     1      -7.144   8.204  66.819  1.00  0.00    -0.077 C  
HETATM   18  C   UNL     1      -8.381   8.157  65.907  1.00  0.00    -0.132 C  
HETATM   19  C   UNL     1      -7.991   7.781  64.459  1.00  0.00    -0.135 C  
BRANCH  16  20
HETATM   20  N   UNL     1      -9.857   7.044  67.784  1.00  0.00    -0.134 NA 
HETATM   21  C   UNL     1     -11.187   6.432  67.862  1.00  0.00    -0.154 C  
BRANCH  20  22
HETATM   22  C   UNL     1      -8.973   6.264  68.678  1.00  0.00    -0.127 C  
BRANCH  22  23
HETATM   23  C   UNL     1      -9.599   5.769  69.983  1.00  0.00    -0.206 C  
HETATM   24  C   UNL     1      -9.442   6.673  71.233  1.00  0.00    -0.166 C  
HETATM   25  C   UNL     1      -9.845   5.830  72.454  1.00  0.00    -0.186 A  
HETATM   26  C   UNL     1     -10.143   8.024  71.060  1.00  0.00    -0.213 A  
HETATM   27  C   UNL     1      -8.929   5.612  73.495  1.00  0.00    -0.125 A  
HETATM   28  C   UNL     1     -11.488   8.253  71.388  1.00  0.00    -0.314 A  
HETATM   29  C   UNL     1      -9.198   4.669  74.493  1.00  0.00    -0.119 A  
HETATM   30  C   UNL     1     -12.109   9.469  71.092  1.00  0.00    -0.429 A  
HETATM   31  C   UNL     1     -11.400  10.486  70.466  1.00  0.00    -0.400 A  
HETATM   32  C   UNL     1     -10.390   3.945  74.477  1.00  0.00    -0.266 A  
HETATM   33  C   UNL     1     -11.328   4.182  73.481  1.00  0.00    -0.297 A  
HETATM   34  C   UNL     1     -10.059  10.296  70.150  1.00  0.00    -0.099 A  
HETATM   35  C   UNL     1      -9.437   9.080  70.454  1.00  0.00    -0.247 A  
HETATM   36  C   UNL     1     -11.059   5.114  72.481  1.00  0.00    -0.257 A  
ENDBRANCH  22  23
ENDBRANCH  20  22
ENDBRANCH  16  20
ENDBRANCH  13  15
ENDBRANCH  11  13
BRANCH  12  37
HETATM   37  C   UNL     1     -10.347  12.794  66.230  1.00  0.00    -0.271 A  
HETATM   38  O   UNL     1     -10.433  16.756  65.016  1.00  0.00    -0.675 OA 
HETATM   39  C   UNL     1     -10.309  14.128  65.779  1.00  0.00    -0.338 A  
HETATM   40  O   UNL     1     -12.161  16.399  63.712  1.00  0.00    -0.927 OA 
HETATM   41  C   UNL     1     -12.284  12.407  64.814  1.00  0.00    -0.493 A  
HETATM   42  C   UNL     1     -11.289  14.602  64.897  1.00  0.00    -0.403 A  
HETATM   43  N   UNL     1     -11.292  16.020  64.512  1.00  0.00    -0.402 N  
HETATM   44  C   UNL     1     -12.276  13.743  64.409  1.00  0.00    -0.440 A  
HETATM   45  C   UNL     1     -11.330  11.937  65.721  1.00  0.00    -0.354 A  
ENDBRANCH  12  37
ENDBRANCH   3   5
ENDBRANCH   2   3
TORSDOF 8
ENDMDL
MODEL       11
REMARK 921   NORMALIZED FREE ENERGY PREDICTED BY IDOCK:   -6.78 KCAL/MOL
REMARK 922        TOTAL FREE ENERGY PREDICTED BY IDOCK:  -11.87 KCAL/MOL
REMARK 923 INTER-LIGAND FREE ENERGY PREDICTED BY IDOCK:   -9.31 KCAL/MOL
REMARK 924 INTRA-LIGAND FREE ENERGY PREDICTED BY IDOCK:   -2.56 KCAL/MOL
REMARK 927      BINDING AFFINITY PREDICTED BY RF-SCORE:    0.00 PKD
ROOT
HETATM    1  C   UNL     1      -9.293   3.358  67.349  1.00  0.00    -0.203 C  
HETATM    2  O   UNL     1      -9.072   4.768  67.466  1.00  0.00    -0.111 OA 
ENDROOT
BRANCH   2   3
HETATM    3  C   UNL     1      -9.852   5.505  66.631  1.00  0.00    -0.170 C  
HETATM    4  O   UNL     1     -11.027   5.265  66.399  1.00  0.00    -0.235 OA 
BRANCH   3   5
HETATM    5  C   UNL     1      -9.081   6.636  66.047  1.00  0.00    -0.104 C  
HETATM    6  C   UNL     1      -8.240   6.445  65.001  1.00  0.00    -0.125 C  
HETATM    7  N   UNL     1      -7.589   7.530  64.441  1.00  0.00    -0.104 NA 
HETATM    8  C   UNL     1      -7.881   5.137  64.334  1.00  0.00    -0.097 C  
HETATM    9  C   UNL     1      -7.564   8.803  64.969  1.00  0.00    -0.100 C  
HETATM   10  C   UNL     1      -6.672   9.784  64.239  1.00  0.00    -0.120 C  
HETATM   11  C   UNL     1      -8.316   9.093  66.058  1.00  0.00    -0.125 C  
HETATM   12  C   UNL     1      -9.252   8.040  66.669  1.00  0.00    -0.225 C  
BRANCH  11  13
HETATM   13  C   UNL     1      -8.152  10.433  66.678  1.00  0.00    -0.122 C  
HETATM   14  O   UNL     1      -7.192  10.721  67.376  1.00  0.00    -0.088 OA 
BRANCH  13  15
HETATM   15  O   UNL     1      -9.128  11.292  66.301  1.00  0.00    -0.187 OA 
HETATM   16  C   UNL     1     -10.773  13.104  66.629  1.00  0.00    -0.279 C  
HETATM   17  C   UNL     1      -8.398  13.278  67.508  1.00  0.00    -0.186 C  
HETATM   18  C   UNL     1      -9.567  12.314  67.248  1.00  0.00    -0.187 C  
HETATM   19  C   UNL     1     -10.102  11.718  68.571  1.00  0.00    -0.212 C  
BRANCH  16  20
HETATM   20  N   UNL     1     -10.570  13.864  65.369  1.00  0.00    -0.318 NA 
HETATM   21  C   UNL     1     -11.258  13.211  64.251  1.00  0.00    -0.388 C  
BRANCH  20  22
HETATM   22  C   UNL     1     -11.133  15.227  65.483  1.00  0.00    -0.327 C  
BRANCH  22  23
HETATM   23  C   UNL     1     -10.208  16.294  66.073  1.00  0.00    -0.376 C  
HETATM   24  C   UNL     1     -10.747  17.117  67.271  1.00  0.00    -0.208 C  
HETATM   25  C   UNL     1      -9.800  18.313  67.460  1.00  0.00    -0.324 A  
HETATM   26  C   UNL     1     -11.015  16.242  68.499  1.00  0.00    -0.345 A  
HETATM   27  C   UNL     1     -10.293  19.624  67.378  1.00  0.00    -0.581 A  
HETATM   28  C   UNL     1     -10.049  15.949  69.473  1.00  0.00    -0.277 A  
HETATM   29  C   UNL     1      -9.415  20.712  67.321  1.00  0.00    -0.520 A  
HETATM   30  C   UNL     1     -10.311  15.044  70.505  1.00  0.00     0.140 A  
HETATM   31  C   UNL     1     -11.546  14.413  70.589  1.00  0.00    -0.243 A  
HETATM   32  C   UNL     1      -8.036  20.509  67.362  1.00  0.00    -0.345 A  
HETATM   33  C   UNL     1      -7.532  19.221  67.490  1.00  0.00    -0.263 A  
HETATM   34  C   UNL     1     -12.530  14.702  69.651  1.00  0.00    -0.197 A  
HETATM   35  C   UNL     1     -12.268  15.614  68.623  1.00  0.00     0.090 A  
HETATM   36  C   UNL     1      -8.404  18.135  67.539  1.00  0.00    -0.237 A  
ENDBRANCH  22  23
ENDBRANCH  20  22
ENDBRANCH  16  20
ENDBRANCH  13  15
ENDBRANCH  11  13
BRANCH  12  37
HETATM   37  C   UNL     1      -9.117   8.004  68.195  1.00  0.00    -0.134 A  
HETATM   38  O   UNL     1     -12.315   8.989  70.640  1.00  0.00    -0.106 OA 
HETATM   39  C   UNL     1     -10.237   8.271  69.006  1.00  0.00    -0.226 A  
HETATM   40  O   UNL     1     -11.104   8.743  72.453  1.00  0.00    -0.327 OA 
HETATM   41  C   UNL     1      -7.766   7.767  70.201  1.00  0.00    -0.090 A  
HETATM   42  C   UNL     1     -10.100   8.340  70.398  1.00  0.00    -0.190 A  
HETATM   43  N   UNL     1     -11.257   8.714  71.222  1.00  0.00    -0.260 N  
HETATM   44  C   UNL     1      -8.866   8.084  71.000  1.00  0.00    -0.153 A  
HETATM   45  C   UNL     1      -7.889   7.732  68.809  1.00  0.00    -0.123 A  
ENDBRANCH  12  37
ENDBRANCH   3   5
ENDBRANCH   2   3
TORSDOF 8
ENDMDL
MODEL       12
REMARK 921   NORMALIZED FREE ENERGY PREDICTED BY IDOCK:   -6.76 KCAL/MOL
REMARK 922        TOTAL FREE ENERGY PREDICTED BY IDOCK:  -11.83 KCAL/MOL
REMARK 923 INTER-LIGAND FREE ENERGY PREDICTED BY IDOCK:  -10.50 KCAL/MOL
REMARK 924 INTRA-LIGAND FREE ENERGY PREDICTED BY IDOCK:   -1.33 KCAL/MOL
REMARK 927      BINDING AFFINITY PREDICTED BY RF-SCORE:    0.00 PKD
ROOT
HETATM    1  C   UNL     1     -11.883  15.199  70.448  1.00  0.00    -0.307 C  
HETATM    2  O   UNL     1     -10.488  15.519  70.472  1.00  0.00    -0.302 OA 
ENDROOT
BRANCH   2   3
HETATM    3  C   UNL     1     -10.012  15.942  69.270  1.00  0.00    -0.254 C  
HETATM    4  O   UNL     1     -10.465  16.890  68.648  1.00  0.00    -0.307 OA 
BRANCH   3   5
HETATM    5  C   UNL     1      -8.871  15.097  68.826  1.00  0.00    -0.196 C  
HETATM    6  C   UNL     1      -7.597  15.559  68.872  1.00  0.00    -0.166 C  
HETATM    7  N   UNL     1      -6.554  14.723  68.513  1.00  0.00    -0.089 NA 
HETATM    8  C   UNL     1      -7.132  16.941  69.267  1.00  0.00    -0.192 C  
HETATM    9  C   UNL     1      -6.693  13.486  67.919  1.00  0.00    -0.150 C  
HETATM   10  C   UNL     1      -5.397  12.825  67.503  1.00  0.00    -0.083 C  
HETATM   11  C   UNL     1      -7.928  12.954  67.759  1.00  0.00    -0.162 C  
HETATM   12  C   UNL     1      -9.172  13.677  68.297  1.00  0.00    -0.198 C  
BRANCH  11  13
HETATM   13  C   UNL     1      -8.044  11.687  66.990  1.00  0.00    -0.164 C  
HETATM   14  O   UNL     1      -8.466  11.651  65.844  1.00  0.00    -0.031 OA 
BRANCH  13  15
HETATM   15  O   UNL     1      -7.546  10.629  67.671  1.00  0.00    -0.091 OA 
HETATM   16  C   UNL     1      -7.667   8.644  69.136  1.00  0.00    -0.097 C  
HETATM   17  C   UNL     1      -9.313   9.010  67.237  1.00  0.00    -0.172 C  
HETATM   18  C   UNL     1      -8.479   9.712  68.322  1.00  0.00    -0.118 C  
HETATM   19  C   UNL     1      -9.389  10.414  69.357  1.00  0.00    -0.186 C  
BRANCH  16  20
HETATM   20  N   UNL     1      -6.737   7.738  68.414  1.00  0.00    -0.060 NA 
HETATM   21  C   UNL     1      -5.345   8.036  68.765  1.00  0.00    -0.027 C  
BRANCH  20  22
HETATM   22  C   UNL     1      -6.983   6.329  68.790  1.00  0.00    -0.076 C  
BRANCH  22  23
HETATM   23  C   UNL     1      -8.130   6.081  69.772  1.00  0.00    -0.114 C  
HETATM   24  C   UNL     1      -9.482   5.606  69.180  1.00  0.00    -0.161 C  
HETATM   25  C   UNL     1     -10.537   5.750  70.289  1.00  0.00    -0.369 A  
HETATM   26  C   UNL     1      -9.366   4.236  68.505  1.00  0.00    -0.209 A  
HETATM   27  C   UNL     1     -11.660   6.567  70.093  1.00  0.00    -0.466 A  
HETATM   28  C   UNL     1      -9.533   3.017  69.180  1.00  0.00    -0.166 A  
HETATM   29  C   UNL     1     -12.503   6.887  71.163  1.00  0.00    -0.398 A  
HETATM   30  C   UNL     1      -9.293   1.797  68.543  1.00  0.00    -0.241 A  
HETATM   31  C   UNL     1      -8.884   1.766  67.216  1.00  0.00    -0.146 A  
HETATM   32  C   UNL     1     -12.246   6.383  72.437  1.00  0.00    -0.115 A  
HETATM   33  C   UNL     1     -11.166   5.535  72.640  1.00  0.00    -0.348 A  
HETATM   34  C   UNL     1      -8.732   2.957  66.515  1.00  0.00    -0.134 A  
HETATM   35  C   UNL     1      -8.981   4.178  67.153  1.00  0.00    -0.139 A  
HETATM   36  C   UNL     1     -10.320   5.222  71.577  1.00  0.00    -0.287 A  
ENDBRANCH  22  23
ENDBRANCH  20  22
ENDBRANCH  16  20
ENDBRANCH  13  15
ENDBRANCH  11  13
BRANCH  12  37
HETATM   37  C   UNL     1     -10.295  13.685  67.256  1.00  0.00    -0.249 A  
HETATM   38  O   UNL     1     -10.716  16.841  64.603  1.00  0.00    -0.778 OA 
HETATM   39  C   UNL     1     -10.374  14.732  66.317  1.00  0.00    -0.305 A  
HETATM   40  O   UNL     1     -12.529  15.967  63.731  1.00  0.00    -0.784 OA 
HETATM   41  C   UNL     1     -12.325  12.735  66.315  1.00  0.00    -0.120 A  
HETATM   42  C   UNL     1     -11.454  14.802  65.428  1.00  0.00    -0.341 A  
HETATM   43  N   UNL     1     -11.572  15.951  64.520  1.00  0.00    -0.324 N  
HETATM   44  C   UNL     1     -12.430  13.802  65.421  1.00  0.00    -0.532 A  
HETATM   45  C   UNL     1     -11.269  12.680  67.229  1.00  0.00    -0.346 A  
ENDBRANCH  12  37
ENDBRANCH   3   5
ENDBRANCH   2   3
TORSDOF 8
ENDMDL
MODEL       13
REMARK 921   NORMALIZED FREE ENERGY PREDICTED BY IDOCK:   -6.74 KCAL/MOL
REMARK 922        TOTAL FREE ENERGY PREDICTED BY IDOCK:  -11.80 KCAL/MOL
REMARK 923 INTER-LIGAND FREE ENERGY PREDICTED BY IDOCK:  -11.36 KCAL/MOL
REMARK 924 INTRA-LIGAND FREE ENERGY PREDICTED BY IDOCK:   -0.45 KCAL/MOL
REMARK 927      BINDING AFFINITY PREDICTED BY RF-SCORE:    0.00 PKD
ROOT
HETATM    1  C   UNL     1     -10.928   5.165  72.629  1.00  0.00    -0.243 C  
HETATM    2  O   UNL     1     -11.622   6.392  72.382  1.00  0.00    -0.284 OA 
ENDROOT
BRANCH   2   3
HETATM    3  C   UNL     1     -10.963   7.486  72.850  1.00  0.00    -0.383 C  
HETATM    4  O   UNL     1     -10.445   7.555  73.954  1.00  0.00    -0.254 OA 
BRANCH   3   5
HETATM    5  C   UNL     1     -10.960   8.575  71.836  1.00  0.00    -0.394 C  
HETATM    6  C   UNL     1     -12.072   9.312  71.595  1.00  0.00    -0.379 C  
HETATM    7  N   UNL     1     -12.014  10.360  70.692  1.00  0.00    -0.321 NA 
HETATM    8  C   UNL     1     -13.446   9.129  72.194  1.00  0.00    -0.530 C  
HETATM    9  C   UNL     1     -10.957  10.628  69.849  1.00  0.00    -0.274 C  
HETATM   10  C   UNL     1     -11.191  11.751  68.862  1.00  0.00    -0.311 C  
HETATM   11  C   UNL     1      -9.815   9.906  69.955  1.00  0.00    -0.285 C  
HETATM   12  C   UNL     1      -9.656   8.843  71.051  1.00  0.00    -0.321 C  
BRANCH  11  13
HETATM   13  C   UNL     1      -8.756  10.131  68.937  1.00  0.00    -0.149 C  
HETATM   14  O   UNL     1      -8.568   9.364  68.004  1.00  0.00    -0.120 OA 
BRANCH  13  15
HETATM   15  O   UNL     1      -8.112  11.307  69.121  1.00  0.00    -0.093 OA 
HETATM   16  C   UNL     1      -6.655  13.193  68.476  1.00  0.00    -0.088 C  
HETATM   17  C   UNL     1      -8.445  12.292  66.918  1.00  0.00    -0.159 C  
HETATM   18  C   UNL     1      -7.411  11.908  67.989  1.00  0.00    -0.100 C  
HETATM   19  C   UNL     1      -6.317  10.986  67.401  1.00  0.00    -0.063 C  
BRANCH  16  20
HETATM   20  N   UNL     1      -7.438  14.324  69.038  1.00  0.00    -0.123 NA 
HETATM   21  C   UNL     1      -6.732  14.933  70.169  1.00  0.00    -0.117 C  
BRANCH  20  22
HETATM   22  C   UNL     1      -7.623  15.386  68.025  1.00  0.00    -0.127 C  
BRANCH  22  23
HETATM   23  C   UNL     1      -8.705  15.135  66.972  1.00  0.00    -0.264 C  
HETATM   24  C   UNL     1     -10.135  15.645  67.288  1.00  0.00    -0.255 C  
HETATM   25  C   UNL     1     -11.082  14.994  66.266  1.00  0.00    -0.334 A  
HETATM   26  C   UNL     1     -10.189  17.170  67.413  1.00  0.00    -0.321 A  
HETATM   27  C   UNL     1     -12.145  14.189  66.702  1.00  0.00    -0.480 A  
HETATM   28  C   UNL     1     -10.404  18.035  66.329  1.00  0.00    -0.384 A  
HETATM   29  C   UNL     1     -12.870  13.414  65.790  1.00  0.00    -0.245 A  
HETATM   30  C   UNL     1     -10.318  19.421  66.479  1.00  0.00    -0.564 A  
HETATM   31  C   UNL     1     -10.020  19.976  67.717  1.00  0.00    -0.560 A  
HETATM   32  C   UNL     1     -12.556  13.444  64.432  1.00  0.00    -0.254 A  
HETATM   33  C   UNL     1     -11.538  14.272  63.977  1.00  0.00    -0.100 A  
HETATM   34  C   UNL     1      -9.826  19.145  68.814  1.00  0.00    -0.502 A  
HETATM   35  C   UNL     1      -9.919  17.757  68.663  1.00  0.00    -0.379 A  
HETATM   36  C   UNL     1     -10.809  15.038  64.885  1.00  0.00    -0.430 A  
ENDBRANCH  22  23
ENDBRANCH  20  22
ENDBRANCH  16  20
ENDBRANCH  13  15
ENDBRANCH  11  13
BRANCH  12  37
HETATM   37  C   UNL     1      -9.062   7.551  70.481  1.00  0.00    -0.156 A  
HETATM   38  O   UNL     1     -10.975   5.488  67.438  1.00  0.00    -0.139 OA 
HETATM   39  C   UNL     1      -9.690   6.907  69.398  1.00  0.00    -0.157 A  
HETATM   40  O   UNL     1      -9.471   3.891  67.471  1.00  0.00    -0.177 OA 
HETATM   41  C   UNL     1      -7.416   5.764  70.543  1.00  0.00    -0.086 A  
HETATM   42  C   UNL     1      -9.212   5.674  68.936  1.00  0.00    -0.119 A  
HETATM   43  N   UNL     1      -9.936   4.970  67.869  1.00  0.00    -0.153 N  
HETATM   44  C   UNL     1      -8.072   5.101  69.504  1.00  0.00    -0.083 A  
HETATM   45  C   UNL     1      -7.909   6.977  71.031  1.00  0.00    -0.096 A  
ENDBRANCH  12  37
ENDBRANCH   3   5
ENDBRANCH   2   3
TORSDOF 8
ENDMDL
MODEL       14
REMARK 921   NORMALIZED FREE ENERGY PREDICTED BY IDOCK:   -6.74 KCAL/MOL
REMARK 922        TOTAL FREE ENERGY PREDICTED BY IDOCK:  -11.80 KCAL/MOL
REMARK 923 INTER-LIGAND FREE ENERGY PREDICTED BY IDOCK:   -9.28 KCAL/MOL
REMARK 924 INTRA-LIGAND FREE ENERGY PREDICTED BY IDOCK:   -2.53 KCAL/MOL
REMARK 927      BINDING AFFINITY PREDICTED BY RF-SCORE:    0.00 PKD
ROOT
HETATM    1  C   UNL     1      -8.829   5.176  64.832  1.00  0.00    -0.118 C  
HETATM    2  O   UNL     1      -9.143   4.449  66.025  1.00  0.00    -0.121 OA 
ENDROOT
BRANCH   2   3
HETATM    3  C   UNL     1      -8.046   4.121  66.759  1.00  0.00    -0.101 C  
HETATM    4  O   UNL     1      -6.929   3.963  66.290  1.00  0.00    -0.060 OA 
BRANCH   3   5
HETATM    5  C   UNL     1      -8.394   3.987  68.199  1.00  0.00    -0.100 C  
HETATM    6  C   UNL     1      -9.079   2.910  68.658  1.00  0.00    -0.157 C  
HETATM    7  N   UNL     1      -9.328   2.786  70.013  1.00  0.00    -0.141 NA 
HETATM    8  C   UNL     1      -9.656   1.773  67.848  1.00  0.00    -0.079 C  
HETATM    9  C   UNL     1      -9.103   3.765  70.958  1.00  0.00    -0.112 C  
HETATM   10  C   UNL     1      -9.582   3.432  72.354  1.00  0.00    -0.196 C  
HETATM   11  C   UNL     1      -8.484   4.915  70.597  1.00  0.00    -0.111 C  
HETATM   12  C   UNL     1      -7.964   5.112  69.166  1.00  0.00    -0.081 C  
BRANCH  11  13
HETATM   13  C   UNL     1      -8.389   5.998  71.610  1.00  0.00    -0.127 C  
HETATM   14  O   UNL     1      -7.352   6.254  72.203  1.00  0.00    -0.090 OA 
BRANCH  13  15
HETATM   15  O   UNL     1      -9.541   6.702  71.714  1.00  0.00    -0.159 OA 
HETATM   16  C   UNL     1     -10.963   8.585  72.442  1.00  0.00    -0.320 C  
HETATM   17  C   UNL     1      -8.655   8.955  71.451  1.00  0.00    -0.238 C  
HETATM   18  C   UNL     1      -9.501   8.024  72.334  1.00  0.00    -0.215 C  
HETATM   19  C   UNL     1      -8.965   7.993  73.784  1.00  0.00    -0.288 C  
BRANCH  16  20
HETATM   20  N   UNL     1     -11.745   8.809  71.199  1.00  0.00    -0.284 NA 
HETATM   21  C   UNL     1     -12.957   7.984  71.193  1.00  0.00    -0.080 C  
BRANCH  20  22
HETATM   22  C   UNL     1     -12.184  10.218  71.103  1.00  0.00    -0.397 C  
BRANCH  22  23
HETATM   23  C   UNL     1     -11.477  11.077  70.053  1.00  0.00    -0.398 C  
HETATM   24  C   UNL     1     -12.226  12.335  69.543  1.00  0.00    -0.153 C  
HETATM   25  C   UNL     1     -11.483  12.826  68.289  1.00  0.00    -0.354 A  
HETATM   26  C   UNL     1     -12.458  13.359  70.657  1.00  0.00    -0.385 A  
HETATM   27  C   UNL     1     -12.157  12.919  67.061  1.00  0.00    -0.296 A  
HETATM   28  C   UNL     1     -11.540  14.365  70.997  1.00  0.00    -0.167 A  
HETATM   29  C   UNL     1     -11.447  13.142  65.876  1.00  0.00    -0.366 A  
HETATM   30  C   UNL     1     -11.747  15.192  72.104  1.00  0.00    -0.502 A  
HETATM   31  C   UNL     1     -12.878  15.037  72.895  1.00  0.00    -0.542 A  
HETATM   32  C   UNL     1     -10.061  13.292  65.901  1.00  0.00    -0.296 A  
HETATM   33  C   UNL     1      -9.384  13.250  67.113  1.00  0.00    -0.240 A  
HETATM   34  C   UNL     1     -13.816  14.064  72.569  1.00  0.00    -0.610 A  
HETATM   35  C   UNL     1     -13.610  13.241  71.456  1.00  0.00    -0.154 A  
HETATM   36  C   UNL     1     -10.088  13.019  68.294  1.00  0.00    -0.239 A  
ENDBRANCH  22  23
ENDBRANCH  20  22
ENDBRANCH  16  20
ENDBRANCH  13  15
ENDBRANCH  11  13
BRANCH  12  37
HETATM   37  C   UNL     1      -8.343   6.496  68.630  1.00  0.00    -0.122 A  
HETATM   38  O   UNL     1      -5.443   9.365  67.897  1.00  0.00    -0.037 OA 
HETATM   39  C   UNL     1      -7.335   7.430  68.318  1.00  0.00    -0.100 A  
HETATM   40  O   UNL     1      -6.950  10.853  67.327  1.00  0.00    -0.080 OA 
HETATM   41  C   UNL     1     -10.015   8.157  68.033  1.00  0.00    -0.222 A  
HETATM   42  C   UNL     1      -7.675   8.729  67.924  1.00  0.00    -0.102 A  
HETATM   43  N   UNL     1      -6.612   9.719  67.696  1.00  0.00    -0.068 N  
HETATM   44  C   UNL     1      -9.015   9.096  67.776  1.00  0.00    -0.132 A  
HETATM   45  C   UNL     1      -9.682   6.868  68.462  1.00  0.00    -0.138 A  
ENDBRANCH  12  37
ENDBRANCH   3   5
ENDBRANCH   2   3
TORSDOF 8
ENDMDL
MODEL       15
REMARK 921   NORMALIZED FREE ENERGY PREDICTED BY IDOCK:   -6.74 KCAL/MOL
REMARK 922        TOTAL FREE ENERGY PREDICTED BY IDOCK:  -11.80 KCAL/MOL
REMARK 923 INTER-LIGAND FREE ENERGY PREDICTED BY IDOCK:   -9.63 KCAL/MOL
REMARK 924 INTRA-LIGAND FREE ENERGY PREDICTED BY IDOCK:   -2.17 KCAL/MOL
REMARK 927      BINDING AFFINITY PREDICTED BY RF-SCORE:    0.00 PKD
ROOT
HETATM    1  C   UNL     1     -10.897   3.818  64.101  1.00  0.00    -0.161 C  
HETATM    2  O   UNL     1     -10.989   4.393  65.409  1.00  0.00    -0.230 OA 
ENDROOT
BRANCH   2   3
HETATM    3  C   UNL     1      -9.814   4.360  66.094  1.00  0.00    -0.231 C  
HETATM    4  O   UNL     1      -9.442   3.416  66.774  1.00  0.00    -0.191 OA 
BRANCH   3   5
HETATM    5  C   UNL     1      -9.051   5.622  65.897  1.00  0.00    -0.158 C  
HETATM    6  C   UNL     1      -7.928   5.651  65.137  1.00  0.00    -0.113 C  
HETATM    7  N   UNL     1      -7.280   6.855  64.921  1.00  0.00    -0.074 NA 
HETATM    8  C   UNL     1      -7.237   4.485  64.470  1.00  0.00    -0.066 C  
HETATM    9  C   UNL     1      -7.564   8.039  65.568  1.00  0.00    -0.085 C  
HETATM   10  C   UNL     1      -6.626   9.184  65.252  1.00  0.00    -0.069 C  
HETATM   11  C   UNL     1      -8.626   8.108  66.406  1.00  0.00    -0.150 C  
HETATM   12  C   UNL     1      -9.563   6.905  66.588  1.00  0.00    -0.218 C  
BRANCH  11  13
HETATM   13  C   UNL     1      -8.812   9.357  67.190  1.00  0.00    -0.127 C  
HETATM   14  O   UNL     1      -8.273   9.541  68.270  1.00  0.00    -0.111 OA 
BRANCH  13  15
HETATM   15  O   UNL     1      -9.557  10.271  66.524  1.00  0.00    -0.169 OA 
HETATM   16  C   UNL     1     -11.212  12.091  66.310  1.00  0.00    -0.342 C  
HETATM   17  C   UNL     1      -9.406  12.126  68.094  1.00  0.00    -0.204 C  
HETATM   18  C   UNL     1     -10.356  11.220  67.295  1.00  0.00    -0.201 C  
HETATM   19  C   UNL     1     -11.380  10.528  68.226  1.00  0.00    -0.332 C  
BRANCH  16  20
HETATM   20  N   UNL     1     -10.518  12.950  65.315  1.00  0.00    -0.290 NA 
HETATM   21  C   UNL     1     -10.631  12.382  63.969  1.00  0.00    -0.413 C  
BRANCH  20  22
HETATM   22  C   UNL     1     -11.132  14.295  65.267  1.00  0.00    -0.335 C  
BRANCH  22  23
HETATM   23  C   UNL     1     -10.217  15.470  65.617  1.00  0.00    -0.403 C  
HETATM   24  C   UNL     1     -10.733  16.483  66.671  1.00  0.00    -0.150 C  
HETATM   25  C   UNL     1      -9.814  17.714  66.603  1.00  0.00    -0.309 A  
HETATM   26  C   UNL     1     -10.927  15.836  68.046  1.00  0.00    -0.330 A  
HETATM   27  C   UNL     1     -10.348  18.978  66.310  1.00  0.00    -0.530 A  
HETATM   28  C   UNL     1      -9.917  15.743  69.014  1.00  0.00    -0.234 A  
HETATM   29  C   UNL     1      -9.504  20.056  66.022  1.00  0.00    -0.384 A  
HETATM   30  C   UNL     1     -10.113  15.033  70.202  1.00  0.00     0.046 A  
HETATM   31  C   UNL     1     -11.325  14.401  70.450  1.00  0.00    -0.148 A  
HETATM   32  C   UNL     1      -8.120  19.893  66.039  1.00  0.00    -0.321 A  
HETATM   33  C   UNL     1      -7.574  18.661  66.374  1.00  0.00    -0.284 A  
HETATM   34  C   UNL     1     -12.353  14.495  69.518  1.00  0.00    -0.247 A  
HETATM   35  C   UNL     1     -12.157  15.214  68.334  1.00  0.00    -0.107 A  
HETATM   36  C   UNL     1      -8.412  17.583  66.652  1.00  0.00    -0.288 A  
ENDBRANCH  22  23
ENDBRANCH  20  22
ENDBRANCH  16  20
ENDBRANCH  13  15
ENDBRANCH  11  13
BRANCH  12  37
HETATM   37  C   UNL     1      -9.868   6.667  68.070  1.00  0.00    -0.140 A  
HETATM   38  O   UNL     1      -6.955   5.222  70.640  1.00  0.00    -0.049 OA 
HETATM   39  C   UNL     1      -8.843   6.246  68.940  1.00  0.00    -0.124 A  
HETATM   40  O   UNL     1      -8.364   5.150  72.320  1.00  0.00    -0.118 OA 
HETATM   41  C   UNL     1     -11.438   6.553  69.923  1.00  0.00    -0.467 A  
HETATM   42  C   UNL     1      -9.135   5.928  70.272  1.00  0.00    -0.147 A  
HETATM   43  N   UNL     1      -8.074   5.399  71.140  1.00  0.00    -0.109 N  
HETATM   44  C   UNL     1     -10.431   6.085  70.769  1.00  0.00    -0.298 A  
HETATM   45  C   UNL     1     -11.160   6.837  68.583  1.00  0.00    -0.224 A  
ENDBRANCH  12  37
ENDBRANCH   3   5
ENDBRANCH   2   3
TORSDOF 8
ENDMDL
MODEL       16
REMARK 921   NORMALIZED FREE ENERGY PREDICTED BY IDOCK:   -6.69 KCAL/MOL
REMARK 922        TOTAL FREE ENERGY PREDICTED BY IDOCK:  -11.72 KCAL/MOL
REMARK 923 INTER-LIGAND FREE ENERGY PREDICTED BY IDOCK:  -10.23 KCAL/MOL
REMARK 924 INTRA-LIGAND FREE ENERGY PREDICTED BY IDOCK:   -1.49 KCAL/MOL
REMARK 927      BINDING AFFINITY PREDICTED BY RF-SCORE:    0.00 PKD
ROOT
HETATM    1  C   UNL     1      -5.787   5.851  72.844  1.00  0.00    -0.037 C  
HETATM    2  O   UNL     1      -6.977   5.388  73.491  1.00  0.00    -0.081 OA 
ENDROOT
BRANCH   2   3
HETATM    3  C   UNL     1      -7.724   4.559  72.713  1.00  0.00    -0.087 C  
HETATM    4  O   UNL     1      -7.371   3.443  72.364  1.00  0.00    -0.046 OA 
BRANCH   3   5
HETATM    5  C   UNL     1      -9.020   5.196  72.353  1.00  0.00    -0.138 C  
HETATM    6  C   UNL     1     -10.157   4.903  73.030  1.00  0.00    -0.163 C  
HETATM    7  N   UNL     1     -11.331   5.563  72.711  1.00  0.00    -0.305 NA 
HETATM    8  C   UNL     1     -10.336   3.888  74.135  1.00  0.00    -0.252 C  
HETATM    9  C   UNL     1     -11.512   6.384  71.618  1.00  0.00    -0.303 C  
HETATM   10  C   UNL     1     -12.927   6.882  71.416  1.00  0.00    -0.339 C  
HETATM   11  C   UNL     1     -10.455   6.691  70.828  1.00  0.00    -0.251 C  
HETATM   12  C   UNL     1      -9.043   6.197  71.176  1.00  0.00    -0.151 C  
BRANCH  11  13
HETATM   13  C   UNL     1     -10.719   7.460  69.584  1.00  0.00    -0.235 C  
HETATM   14  O   UNL     1     -10.801   6.928  68.488  1.00  0.00    -0.215 OA 
BRANCH  13  15
HETATM   15  O   UNL     1     -10.944   8.771  69.833  1.00  0.00    -0.239 OA 
HETATM   16  C   UNL     1     -10.608  11.201  69.544  1.00  0.00    -0.090 C  
HETATM   17  C   UNL     1     -10.827   9.634  67.558  1.00  0.00    -0.265 C  
HETATM   18  C   UNL     1     -10.286   9.768  68.991  1.00  0.00    -0.208 C  
HETATM   19  C   UNL     1      -8.744   9.654  69.018  1.00  0.00    -0.142 C  
BRANCH  16  20
HETATM   20  N   UNL     1     -12.021  11.660  69.585  1.00  0.00    -0.322 NA 
HETATM   21  C   UNL     1     -12.412  12.014  70.953  1.00  0.00    -0.288 C  
BRANCH  20  22
HETATM   22  C   UNL     1     -12.200  12.874  68.759  1.00  0.00     0.017 C  
BRANCH  22  23
HETATM   23  C   UNL     1     -11.100  13.932  68.865  1.00  0.00    -0.296 C  
HETATM   24  C   UNL     1     -11.540  15.387  69.172  1.00  0.00    -0.354 C  
HETATM   25  C   UNL     1     -10.328  16.293  68.899  1.00  0.00    -0.263 A  
HETATM   26  C   UNL     1     -12.205  15.510  70.546  1.00  0.00    -0.444 A  
HETATM   27  C   UNL     1     -10.417  17.324  67.952  1.00  0.00    -0.382 A  
HETATM   28  C   UNL     1     -11.499  15.751  71.735  1.00  0.00    -0.484 A  
HETATM   29  C   UNL     1      -9.269  18.003  67.530  1.00  0.00    -0.253 A  
HETATM   30  C   UNL     1     -12.141  15.729  72.976  1.00  0.00    -0.601 A  
HETATM   31  C   UNL     1     -13.504  15.470  73.058  1.00  0.00    -0.632 A  
HETATM   32  C   UNL     1      -8.021  17.676  68.061  1.00  0.00    -0.241 A  
HETATM   33  C   UNL     1      -7.922  16.691  69.035  1.00  0.00    -0.208 A  
HETATM   34  C   UNL     1     -14.232  15.250  71.894  1.00  0.00    -0.681 A  
HETATM   35  C   UNL     1     -13.589  15.280  70.652  1.00  0.00    -0.187 A  
HETATM   36  C   UNL     1      -9.063  16.007  69.449  1.00  0.00    -0.189 A  
ENDBRANCH  22  23
ENDBRANCH  20  22
ENDBRANCH  16  20
ENDBRANCH  13  15
ENDBRANCH  11  13
BRANCH  12  37
HETATM   37  C   UNL     1      -8.338   5.633  69.939  1.00  0.00    -0.117 A  
HETATM   38  O   UNL     1      -9.547   2.049  68.245  1.00  0.00    -0.207 OA 
HETATM   39  C   UNL     1      -8.813   4.452  69.336  1.00  0.00    -0.133 A  
HETATM   40  O   UNL     1      -7.941   2.123  66.753  1.00  0.00    -0.073 OA 
HETATM   41  C   UNL     1      -6.536   5.697  68.309  1.00  0.00    -0.043 A  
HETATM   42  C   UNL     1      -8.116   3.875  68.268  1.00  0.00    -0.076 A  
HETATM   43  N   UNL     1      -8.570   2.592  67.713  1.00  0.00    -0.087 N  
HETATM   44  C   UNL     1      -6.978   4.498  67.748  1.00  0.00    -0.060 A  
HETATM   45  C   UNL     1      -7.208   6.258  69.399  1.00  0.00    -0.082 A  
ENDBRANCH  12  37
ENDBRANCH   3   5
ENDBRANCH   2   3
TORSDOF 8
ENDMDL
MODEL       17
REMARK 921   NORMALIZED FREE ENERGY PREDICTED BY IDOCK:   -6.65 KCAL/MOL
REMARK 922        TOTAL FREE ENERGY PREDICTED BY IDOCK:  -11.67 KCAL/MOL
REMARK 923 INTER-LIGAND FREE ENERGY PREDICTED BY IDOCK:  -10.90 KCAL/MOL
REMARK 924 INTRA-LIGAND FREE ENERGY PREDICTED BY IDOCK:   -0.78 KCAL/MOL
REMARK 927      BINDING AFFINITY PREDICTED BY RF-SCORE:    0.00 PKD
ROOT
HETATM    1  C   UNL     1      -9.564   7.086  74.147  1.00  0.00    -0.262 C  
HETATM    2  O   UNL     1     -10.830   7.652  73.791  1.00  0.00    -0.268 OA 
ENDROOT
BRANCH   2   3
HETATM    3  C   UNL     1     -11.239   7.308  72.540  1.00  0.00    -0.301 C  
HETATM    4  O   UNL     1     -11.487   6.165  72.190  1.00  0.00    -0.285 OA 
BRANCH   3   5
HETATM    5  C   UNL     1     -11.344   8.509  71.668  1.00  0.00    -0.362 C  
HETATM    6  C   UNL     1     -12.494   9.223  71.593  1.00  0.00    -0.368 C  
HETATM    7  N   UNL     1     -12.536  10.372  70.823  1.00  0.00    -0.350 NA 
HETATM    8  C   UNL     1     -13.816   8.912  72.256  1.00  0.00    -0.536 C  
HETATM    9  C   UNL     1     -11.551  10.782  69.949  1.00  0.00    -0.331 C  
HETATM   10  C   UNL     1     -11.892  12.004  69.125  1.00  0.00    -0.369 C  
HETATM   11  C   UNL     1     -10.381  10.101  69.891  1.00  0.00    -0.308 C  
HETATM   12  C   UNL     1     -10.109   8.922  70.836  1.00  0.00    -0.304 C  
BRANCH  11  13
HETATM   13  C   UNL     1      -9.405  10.488  68.839  1.00  0.00    -0.187 C  
HETATM   14  O   UNL     1      -9.469  10.064  67.695  1.00  0.00    -0.143 OA 
BRANCH  13  15
HETATM   15  O   UNL     1      -8.524  11.417  69.279  1.00  0.00     0.077 OA 
HETATM   16  C   UNL     1      -6.290  12.425  69.582  1.00  0.00    -0.107 C  
HETATM   17  C   UNL     1      -7.059  11.525  67.335  1.00  0.00    -0.119 C  
HETATM   18  C   UNL     1      -7.129  11.314  68.857  1.00  0.00    -0.104 C  
HETATM   19  C   UNL     1      -6.474   9.973  69.263  1.00  0.00    -0.049 C  
BRANCH  16  20
HETATM   20  N   UNL     1      -6.620  13.853  69.342  1.00  0.00    -0.117 NA 
HETATM   21  C   UNL     1      -5.483  14.554  68.738  1.00  0.00    -0.088 C  
BRANCH  20  22
HETATM   22  C   UNL     1      -7.752  13.978  68.398  1.00  0.00    -0.138 C  
BRANCH  22  23
HETATM   23  C   UNL     1      -8.452  15.338  68.358  1.00  0.00    -0.158 C  
HETATM   24  C   UNL     1      -8.979  15.824  66.983  1.00  0.00    -0.247 C  
HETATM   25  C   UNL     1      -9.326  17.315  67.134  1.00  0.00    -0.245 A  
HETATM   26  C   UNL     1     -10.074  14.909  66.428  1.00  0.00    -0.296 A  
HETATM   27  C   UNL     1      -8.697  18.272  66.324  1.00  0.00    -0.199 A  
HETATM   28  C   UNL     1     -11.439  15.064  66.712  1.00  0.00    -0.252 A  
HETATM   29  C   UNL     1      -8.830  19.637  66.601  1.00  0.00    -0.403 A  
HETATM   30  C   UNL     1     -12.381  14.126  66.281  1.00  0.00    -0.451 A  
HETATM   31  C   UNL     1     -11.981  13.012  65.554  1.00  0.00    -0.470 A  
HETATM   32  C   UNL     1      -9.606  20.065  67.678  1.00  0.00    -0.516 A  
HETATM   33  C   UNL     1     -10.274  19.133  68.461  1.00  0.00    -0.448 A  
HETATM   34  C   UNL     1     -10.638  12.844  65.238  1.00  0.00    -0.316 A  
HETATM   35  C   UNL     1      -9.697  13.789  65.664  1.00  0.00    -0.136 A  
HETATM   36  C   UNL     1     -10.136  17.773  68.192  1.00  0.00    -0.362 A  
ENDBRANCH  22  23
ENDBRANCH  20  22
ENDBRANCH  16  20
ENDBRANCH  13  15
ENDBRANCH  11  13
BRANCH  12  37
HETATM   37  C   UNL     1      -9.515   7.733  70.075  1.00  0.00    -0.161 A  
HETATM   38  O   UNL     1     -11.399   6.194  66.721  1.00  0.00    -0.188 OA 
HETATM   39  C   UNL     1     -10.133   7.274  68.896  1.00  0.00    -0.180 A  
HETATM   40  O   UNL     1      -9.905   4.601  66.517  1.00  0.00    -0.181 OA 
HETATM   41  C   UNL     1      -7.879   5.947  69.871  1.00  0.00    -0.096 A  
HETATM   42  C   UNL     1      -9.655   6.127  68.250  1.00  0.00    -0.120 A  
HETATM   43  N   UNL     1     -10.369   5.606  67.076  1.00  0.00    -0.225 N  
HETATM   44  C   UNL     1      -8.525   5.462  68.733  1.00  0.00    -0.096 A  
HETATM   45  C   UNL     1      -8.372   7.070  70.541  1.00  0.00    -0.132 A  
ENDBRANCH  12  37
ENDBRANCH   3   5
ENDBRANCH   2   3
TORSDOF 8
ENDMDL
MODEL       18
REMARK 921   NORMALIZED FREE ENERGY PREDICTED BY IDOCK:   -6.63 KCAL/MOL
REMARK 922        TOTAL FREE ENERGY PREDICTED BY IDOCK:  -11.64 KCAL/MOL
REMARK 923 INTER-LIGAND FREE ENERGY PREDICTED BY IDOCK:  -10.26 KCAL/MOL
REMARK 924 INTRA-LIGAND FREE ENERGY PREDICTED BY IDOCK:   -1.39 KCAL/MOL
REMARK 927      BINDING AFFINITY PREDICTED BY RF-SCORE:    0.00 PKD
ROOT
HETATM    1  C   UNL     1      -9.272   2.162  69.319  1.00  0.00    -0.123 C  
HETATM    2  O   UNL     1      -8.910   3.520  69.593  1.00  0.00    -0.074 OA 
ENDROOT
BRANCH   2   3
HETATM    3  C   UNL     1      -8.942   4.317  68.491  1.00  0.00    -0.114 C  
HETATM    4  O   UNL     1      -9.538   4.042  67.462  1.00  0.00    -0.183 OA 
BRANCH   3   5
HETATM    5  C   UNL     1      -8.158   5.562  68.716  1.00  0.00    -0.099 C  
HETATM    6  C   UNL     1      -6.805   5.563  68.636  1.00  0.00    -0.059 C  
HETATM    7  N   UNL     1      -6.112   6.751  68.786  1.00  0.00    -0.025 NA 
HETATM    8  C   UNL     1      -5.895   4.378  68.412  1.00  0.00    -0.025 C  
HETATM    9  C   UNL     1      -6.660   7.946  69.203  1.00  0.00    -0.040 C  
HETATM   10  C   UNL     1      -5.668   9.069  69.414  1.00  0.00    -0.035 C  
HETATM   11  C   UNL     1      -8.000   8.043  69.381  1.00  0.00    -0.116 C  
HETATM   12  C   UNL     1      -8.924   6.861  69.054  1.00  0.00    -0.132 C  
BRANCH  11  13
HETATM   13  C   UNL     1      -8.533   9.301  69.964  1.00  0.00    -0.176 C  
HETATM   14  O   UNL     1      -8.807   9.411  71.150  1.00  0.00    -0.272 OA 
BRANCH  13  15
HETATM   15  O   UNL     1      -8.582  10.304  69.056  1.00  0.00    -0.141 OA 
HETATM   16  C   UNL     1      -9.633  11.707  67.317  1.00  0.00    -0.174 C  
HETATM   17  C   UNL     1     -10.851  11.093  69.458  1.00  0.00    -0.241 C  
HETATM   18  C   UNL     1      -9.855  10.593  68.399  1.00  0.00    -0.161 C  
HETATM   19  C   UNL     1     -10.424   9.379  67.629  1.00  0.00    -0.328 C  
BRANCH  16  20
HETATM   20  N   UNL     1      -9.152  13.046  67.744  1.00  0.00    -0.190 NA 
HETATM   21  C   UNL     1      -7.701  13.157  67.567  1.00  0.00    -0.166 C  
BRANCH  20  22
HETATM   22  C   UNL     1      -9.768  14.110  66.923  1.00  0.00    -0.269 C  
BRANCH  22  23
HETATM   23  C   UNL     1      -9.459  15.550  67.338  1.00  0.00    -0.213 C  
HETATM   24  C   UNL     1     -10.642  16.412  67.848  1.00  0.00    -0.320 C  
HETATM   25  C   UNL     1     -10.158  17.871  67.879  1.00  0.00    -0.350 A  
HETATM   26  C   UNL     1     -11.250  15.854  69.137  1.00  0.00    -0.334 A  
HETATM   27  C   UNL     1     -10.821  18.852  67.127  1.00  0.00    -0.425 A  
HETATM   28  C   UNL     1     -10.796  16.188  70.422  1.00  0.00    -0.255 A  
HETATM   29  C   UNL     1     -10.261  20.124  66.966  1.00  0.00    -0.558 A  
HETATM   30  C   UNL     1     -11.304  15.553  71.559  1.00  0.00    -0.466 A  
HETATM   31  C   UNL     1     -12.280  14.572  71.438  1.00  0.00    -0.425 A  
HETATM   32  C   UNL     1      -9.044  20.440  67.568  1.00  0.00    -0.447 A  
HETATM   33  C   UNL     1      -8.397  19.497  68.356  1.00  0.00    -0.384 A  
HETATM   34  C   UNL     1     -12.766  14.237  70.179  1.00  0.00    -0.246 A  
HETATM   35  C   UNL     1     -12.261  14.879  69.043  1.00  0.00    -0.171 A  
HETATM   36  C   UNL     1      -8.948  18.226  68.509  1.00  0.00    -0.329 A  
ENDBRANCH  22  23
ENDBRANCH  20  22
ENDBRANCH  16  20
ENDBRANCH  13  15
ENDBRANCH  11  13
BRANCH  12  37
HETATM   37  C   UNL     1      -9.948   6.640  70.172  1.00  0.00    -0.190 A  
HETATM   38  O   UNL     1      -8.842   4.885  73.760  1.00  0.00    -0.109 OA 
HETATM   39  C   UNL     1      -9.535   6.110  71.410  1.00  0.00    -0.170 A  
HETATM   40  O   UNL     1     -10.903   4.939  74.510  1.00  0.00    -0.343 OA 
HETATM   41  C   UNL     1     -12.238   6.666  70.989  1.00  0.00    -0.344 A  
HETATM   42  C   UNL     1     -10.479   5.811  72.400  1.00  0.00    -0.211 A  
HETATM   43  N   UNL     1     -10.042   5.169  73.647  1.00  0.00    -0.174 N  
HETATM   44  C   UNL     1     -11.832   6.092  72.194  1.00  0.00    -0.304 A  
HETATM   45  C   UNL     1     -11.304   6.934  69.983  1.00  0.00    -0.343 A  
ENDBRANCH  12  37
ENDBRANCH   3   5
ENDBRANCH   2   3
TORSDOF 8
ENDMDL
MODEL       19
REMARK 921   NORMALIZED FREE ENERGY PREDICTED BY IDOCK:   -6.61 KCAL/MOL
REMARK 922        TOTAL FREE ENERGY PREDICTED BY IDOCK:  -11.61 KCAL/MOL
REMARK 923 INTER-LIGAND FREE ENERGY PREDICTED BY IDOCK:   -9.84 KCAL/MOL
REMARK 924 INTRA-LIGAND FREE ENERGY PREDICTED BY IDOCK:   -1.77 KCAL/MOL
REMARK 927      BINDING AFFINITY PREDICTED BY RF-SCORE:    0.00 PKD
ROOT
HETATM    1  C   UNL     1     -10.757   3.442  63.759  1.00  0.00    -0.244 C  
HETATM    2  O   UNL     1     -10.937   4.282  64.904  1.00  0.00    -0.253 OA 
ENDROOT
BRANCH   2   3
HETATM    3  C   UNL     1      -9.856   4.307  65.728  1.00  0.00    -0.223 C  
HETATM    4  O   UNL     1      -9.522   3.381  66.451  1.00  0.00    -0.177 OA 
BRANCH   3   5
HETATM    5  C   UNL     1      -9.140   5.607  65.623  1.00  0.00    -0.110 C  
HETATM    6  C   UNL     1      -8.076   5.757  64.796  1.00  0.00    -0.132 C  
HETATM    7  N   UNL     1      -7.476   6.998  64.674  1.00  0.00    -0.090 NA 
HETATM    8  C   UNL     1      -7.406   4.696  63.955  1.00  0.00    -0.058 C  
HETATM    9  C   UNL     1      -7.741   8.093  65.469  1.00  0.00    -0.095 C  
HETATM   10  C   UNL     1      -6.857   9.296  65.220  1.00  0.00    -0.081 C  
HETATM   11  C   UNL     1      -8.742   8.034  66.380  1.00  0.00    -0.169 C  
HETATM   12  C   UNL     1      -9.633   6.788  66.489  1.00  0.00    -0.191 C  
BRANCH  11  13
HETATM   13  C   UNL     1      -8.902   9.181  67.311  1.00  0.00    -0.124 C  
HETATM   14  O   UNL     1      -8.184   9.341  68.286  1.00  0.00    -0.113 OA 
BRANCH  13  15
HETATM   15  O   UNL     1      -9.855  10.047  66.894  1.00  0.00    -0.180 OA 
HETATM   16  C   UNL     1     -11.597  11.774  67.177  1.00  0.00    -0.266 C  
HETATM   17  C   UNL     1      -9.358  11.924  68.365  1.00  0.00    -0.184 C  
HETATM   18  C   UNL     1     -10.448  10.960  67.869  1.00  0.00    -0.195 C  
HETATM   19  C   UNL     1     -11.120  10.224  69.051  1.00  0.00    -0.277 C  
BRANCH  16  20
HETATM   20  N   UNL     1     -11.267  12.659  66.030  1.00  0.00    -0.293 NA 
HETATM   21  C   UNL     1     -12.162  12.398  64.899  1.00  0.00    -0.418 C  
BRANCH  20  22
HETATM   22  C   UNL     1     -11.444  14.081  66.398  1.00  0.00    -0.352 C  
BRANCH  22  23
HETATM   23  C   UNL     1     -12.178  14.353  67.713  1.00  0.00    -0.190 C  
HETATM   24  C   UNL     1     -11.312  14.528  68.987  1.00  0.00    -0.296 C  
HETATM   25  C   UNL     1     -12.262  14.454  70.193  1.00  0.00    -0.401 A  
HETATM   26  C   UNL     1     -10.397  15.753  68.898  1.00  0.00    -0.224 A  
HETATM   27  C   UNL     1     -12.075  13.474  71.180  1.00  0.00    -0.157 A  
HETATM   28  C   UNL     1     -10.778  17.043  69.298  1.00  0.00    -0.226 A  
HETATM   29  C   UNL     1     -13.054  13.249  72.154  1.00  0.00    -0.486 A  
HETATM   30  C   UNL     1      -9.948  18.145  69.078  1.00  0.00    -0.294 A  
HETATM   31  C   UNL     1      -8.716  17.984  68.457  1.00  0.00    -0.304 A  
HETATM   32  C   UNL     1     -14.223  14.009  72.167  1.00  0.00    -0.628 A  
HETATM   33  C   UNL     1     -14.404  15.015  71.227  1.00  0.00    -0.503 A  
HETATM   34  C   UNL     1      -8.302  16.714  68.071  1.00  0.00    -0.187 A  
HETATM   35  C   UNL     1      -9.131  15.611  68.299  1.00  0.00    -0.187 A  
HETATM   36  C   UNL     1     -13.434  15.235  70.250  1.00  0.00     0.167 A  
ENDBRANCH  22  23
ENDBRANCH  20  22
ENDBRANCH  16  20
ENDBRANCH  13  15
ENDBRANCH  11  13
BRANCH  12  37
HETATM   37  C   UNL     1      -9.825   6.376  67.952  1.00  0.00    -0.130 A  
HETATM   38  O   UNL     1      -6.713   4.707  70.121  1.00  0.00    -0.035 OA 
HETATM   39  C   UNL     1      -8.734   5.880  68.691  1.00  0.00    -0.109 A  
HETATM   40  O   UNL     1      -7.993   4.417  71.879  1.00  0.00    -0.092 OA 
HETATM   41  C   UNL     1     -11.252   6.021  69.887  1.00  0.00    -0.438 A  
HETATM   42  C   UNL     1      -8.922   5.407  69.996  1.00  0.00    -0.129 A  
HETATM   43  N   UNL     1      -7.794   4.804  70.718  1.00  0.00    -0.072 N  
HETATM   44  C   UNL     1     -10.180   5.480  70.599  1.00  0.00    -0.308 A  
HETATM   45  C   UNL     1     -11.077   6.461  68.572  1.00  0.00    -0.385 A  
ENDBRANCH  12  37
ENDBRANCH   3   5
ENDBRANCH   2   3
TORSDOF 8
ENDMDL
MODEL       20
REMARK 921   NORMALIZED FREE ENERGY PREDICTED BY IDOCK:   -6.59 KCAL/MOL
REMARK 922        TOTAL FREE ENERGY PREDICTED BY IDOCK:  -11.59 KCAL/MOL
REMARK 923 INTER-LIGAND FREE ENERGY PREDICTED BY IDOCK:   -9.88 KCAL/MOL
REMARK 924 INTRA-LIGAND FREE ENERGY PREDICTED BY IDOCK:   -1.70 KCAL/MOL
REMARK 927      BINDING AFFINITY PREDICTED BY RF-SCORE:    0.00 PKD
ROOT
HETATM    1  C   UNL     1      -8.958   2.614  66.950  1.00  0.00    -0.145 C  
HETATM    2  O   UNL     1      -8.635   4.009  66.964  1.00  0.00    -0.103 OA 
ENDROOT
BRANCH   2   3
HETATM    3  C   UNL     1      -9.553   4.780  66.322  1.00  0.00    -0.178 C  
HETATM    4  O   UNL     1     -10.692   4.420  66.065  1.00  0.00    -0.149 OA 
BRANCH   3   5
HETATM    5  C   UNL     1      -8.982   6.111  65.983  1.00  0.00    -0.156 C  
HETATM    6  C   UNL     1      -8.134   6.264  64.936  1.00  0.00    -0.130 C  
HETATM    7  N   UNL     1      -7.674   7.528  64.609  1.00  0.00    -0.115 NA 
HETATM    8  C   UNL     1      -7.576   5.185  64.038  1.00  0.00    -0.069 C  
HETATM    9  C   UNL     1      -7.850   8.662  65.373  1.00  0.00    -0.101 C  
HETATM   10  C   UNL     1      -7.137   9.896  64.863  1.00  0.00    -0.132 C  
HETATM   11  C   UNL     1      -8.626   8.610  66.482  1.00  0.00    -0.124 C  
HETATM   12  C   UNL     1      -9.372   7.322  66.860  1.00  0.00    -0.192 C  
BRANCH  11  13
HETATM   13  C   UNL     1      -8.675   9.814  67.352  1.00  0.00    -0.132 C  
HETATM   14  O   UNL     1      -7.793  10.081  68.154  1.00  0.00    -0.088 OA 
BRANCH  13  15
HETATM   15  O   UNL     1      -9.744  10.598  67.078  1.00  0.00    -0.170 OA 
HETATM   16  C   UNL     1     -11.624  12.102  67.629  1.00  0.00    -0.343 C  
HETATM   17  C   UNL     1      -9.319  12.412  68.647  1.00  0.00    -0.004 C  
HETATM   18  C   UNL     1     -10.342  11.371  68.164  1.00  0.00    -0.188 C  
HETATM   19  C   UNL     1     -10.832  10.487  69.334  1.00  0.00    -0.291 C  
BRANCH  16  20
HETATM   20  N   UNL     1     -11.486  13.094  66.532  1.00  0.00    -0.322 NA 
HETATM   21  C   UNL     1     -12.331  12.729  65.392  1.00  0.00    -0.470 C  
BRANCH  20  22
HETATM   22  C   UNL     1     -11.924  14.434  66.979  1.00  0.00    -0.395 C  
BRANCH  22  23
HETATM   23  C   UNL     1     -10.817  15.401  67.403  1.00  0.00    -0.309 C  
HETATM   24  C   UNL     1     -11.203  16.536  68.387  1.00  0.00    -0.280 C  
HETATM   25  C   UNL     1     -10.041  17.543  68.394  1.00  0.00    -0.358 A  
HETATM   26  C   UNL     1     -11.660  15.993  69.744  1.00  0.00    -0.297 A  
HETATM   27  C   UNL     1     -10.263  18.880  68.032  1.00  0.00    -0.452 A  
HETATM   28  C   UNL     1     -10.789  15.722  70.810  1.00  0.00    -0.229 A  
HETATM   29  C   UNL     1      -9.186  19.746  67.815  1.00  0.00    -0.427 A  
HETATM   30  C   UNL     1     -11.243  15.110  71.981  1.00  0.00    -0.232 A  
HETATM   31  C   UNL     1     -12.580  14.757  72.115  1.00  0.00    -0.410 A  
HETATM   32  C   UNL     1      -7.876  19.296  67.973  1.00  0.00    -0.333 A  
HETATM   33  C   UNL     1      -7.639  17.988  68.377  1.00  0.00    -0.288 A  
HETATM   34  C   UNL     1     -13.471  15.033  71.084  1.00  0.00    -0.503 A  
HETATM   35  C   UNL     1     -13.015  15.653  69.916  1.00  0.00     0.301 A  
HETATM   36  C   UNL     1      -8.710  17.121  68.585  1.00  0.00    -0.266 A  
ENDBRANCH  22  23
ENDBRANCH  20  22
ENDBRANCH  16  20
ENDBRANCH  13  15
ENDBRANCH  11  13
BRANCH  12  37
HETATM   37  C   UNL     1      -9.215   7.014  68.352  1.00  0.00    -0.129 A  
HETATM   38  O   UNL     1     -12.509   6.915  70.865  1.00  0.00    -0.378 OA 
HETATM   39  C   UNL     1     -10.356   6.913  69.173  1.00  0.00    -0.207 A  
HETATM   40  O   UNL     1     -11.253   6.541  72.624  1.00  0.00    -0.253 OA 
HETATM   41  C   UNL     1      -7.820   6.637  70.307  1.00  0.00    -0.107 A  
HETATM   42  C   UNL     1     -10.217   6.732  70.554  1.00  0.00    -0.192 A  
HETATM   43  N   UNL     1     -11.413   6.725  71.408  1.00  0.00    -0.276 N  
HETATM   44  C   UNL     1      -8.950   6.589  71.125  1.00  0.00    -0.145 A  
HETATM   45  C   UNL     1      -7.951   6.852  68.932  1.00  0.00    -0.116 A  
ENDBRANCH  12  37
ENDBRANCH   3   5
ENDBRANCH   2   3
TORSDOF 8
ENDMDL
MODEL       21
REMARK 921   NORMALIZED FREE ENERGY PREDICTED BY IDOCK:   -6.58 KCAL/MOL
REMARK 922        TOTAL FREE ENERGY PREDICTED BY IDOCK:  -11.57 KCAL/MOL
REMARK 923 INTER-LIGAND FREE ENERGY PREDICTED BY IDOCK:  -10.48 KCAL/MOL
REMARK 924 INTRA-LIGAND FREE ENERGY PREDICTED BY IDOCK:   -1.09 KCAL/MOL
REMARK 927      BINDING AFFINITY PREDICTED BY RF-SCORE:    0.00 PKD
ROOT
HETATM    1  C   UNL     1      -8.199   3.967  73.755  1.00  0.00    -0.088 C  
HETATM    2  O   UNL     1      -8.565   4.849  72.688  1.00  0.00    -0.117 OA 
ENDROOT
BRANCH   2   3
HETATM    3  C   UNL     1      -9.211   4.221  71.669  1.00  0.00    -0.132 C  
HETATM    4  O   UNL     1     -10.027   3.325  71.822  1.00  0.00    -0.170 OA 
BRANCH   3   5
HETATM    5  C   UNL     1      -8.789   4.776  70.354  1.00  0.00    -0.138 C  
HETATM    6  C   UNL     1      -7.577   4.477  69.823  1.00  0.00    -0.054 C  
HETATM    7  N   UNL     1      -7.244   4.957  68.569  1.00  0.00    -0.061 NA 
HETATM    8  C   UNL     1      -6.471   3.663  70.453  1.00  0.00    -0.032 C  
HETATM    9  C   UNL     1      -7.968   5.888  67.854  1.00  0.00    -0.105 C  
HETATM   10  C   UNL     1      -7.324   6.348  66.564  1.00  0.00    -0.078 C  
HETATM   11  C   UNL     1      -9.166   6.311  68.324  1.00  0.00    -0.111 C  
HETATM   12  C   UNL     1      -9.763   5.712  69.606  1.00  0.00    -0.222 C  
BRANCH  11  13
HETATM   13  C   UNL     1      -9.845   7.416  67.599  1.00  0.00    -0.154 C  
HETATM   14  O   UNL     1     -10.897   7.259  66.999  1.00  0.00    -0.357 OA 
BRANCH  13  15
HETATM   15  O   UNL     1      -9.211   8.601  67.767  1.00  0.00    -0.134 OA 
HETATM   16  C   UNL     1      -8.561  10.904  67.158  1.00  0.00    -0.130 C  
HETATM   17  C   UNL     1     -10.964  10.102  66.986  1.00  0.00    -0.162 C  
HETATM   18  C   UNL     1      -9.492   9.685  66.828  1.00  0.00    -0.161 C  
HETATM   19  C   UNL     1      -9.175   9.310  65.362  1.00  0.00    -0.284 C  
BRANCH  16  20
HETATM   20  N   UNL     1      -8.670  11.559  68.487  1.00  0.00    -0.154 NA 
HETATM   21  C   UNL     1      -7.467  12.344  68.780  1.00  0.00    -0.056 C  
BRANCH  20  22
HETATM   22  C   UNL     1      -9.812  12.498  68.516  1.00  0.00    -0.149 C  
BRANCH  22  23
HETATM   23  C   UNL     1      -9.463  13.988  68.515  1.00  0.00    -0.191 C  
HETATM   24  C   UNL     1     -10.635  14.992  68.668  1.00  0.00    -0.237 C  
HETATM   25  C   UNL     1     -10.087  16.383  68.308  1.00  0.00    -0.248 A  
HETATM   26  C   UNL     1     -11.342  14.853  70.019  1.00  0.00    -0.310 A  
HETATM   27  C   UNL     1     -10.660  17.117  67.258  1.00  0.00    -0.270 A  
HETATM   28  C   UNL     1     -10.949  15.537  71.179  1.00  0.00    -0.275 A  
HETATM   29  C   UNL     1     -10.035  18.271  66.773  1.00  0.00    -0.359 A  
HETATM   30  C   UNL     1     -11.551  15.277  72.413  1.00  0.00    -0.515 A  
HETATM   31  C   UNL     1     -12.562  14.329  72.516  1.00  0.00    -0.319 A  
HETATM   32  C   UNL     1      -8.842  18.718  67.340  1.00  0.00    -0.285 A  
HETATM   33  C   UNL     1      -8.286  18.031  68.411  1.00  0.00    -0.305 A  
HETATM   34  C   UNL     1     -12.987  13.652  71.379  1.00  0.00    -0.427 A  
HETATM   35  C   UNL     1     -12.388  13.919  70.143  1.00  0.00    -0.400 A  
HETATM   36  C   UNL     1      -8.902  16.876  68.889  1.00  0.00    -0.216 A  
ENDBRANCH  22  23
ENDBRANCH  20  22
ENDBRANCH  16  20
ENDBRANCH  13  15
ENDBRANCH  11  13
BRANCH  12  37
HETATM   37  C   UNL     1     -10.309   6.811  70.523  1.00  0.00    -0.226 A  
HETATM   38  O   UNL     1     -14.379   7.186  71.211  1.00  0.00    -0.361 OA 
HETATM   39  C   UNL     1     -11.689   6.874  70.801  1.00  0.00    -0.417 A  
HETATM   40  O   UNL     1     -14.084   8.974  72.446  1.00  0.00    -0.469 OA 
HETATM   41  C   UNL     1      -9.985   8.815  71.861  1.00  0.00    -0.401 A  
HETATM   42  C   UNL     1     -12.209   7.933  71.555  1.00  0.00    -0.311 A  
HETATM   43  N   UNL     1     -13.661   8.036  71.754  1.00  0.00    -0.358 N  
HETATM   44  C   UNL     1     -11.359   8.904  72.091  1.00  0.00    -0.369 A  
HETATM   45  C   UNL     1      -9.464   7.780  71.079  1.00  0.00    -0.165 A  
ENDBRANCH  12  37
ENDBRANCH   3   5
ENDBRANCH   2   3
TORSDOF 8
ENDMDL
MODEL       22
REMARK 921   NORMALIZED FREE ENERGY PREDICTED BY IDOCK:   -6.52 KCAL/MOL
REMARK 922        TOTAL FREE ENERGY PREDICTED BY IDOCK:  -11.48 KCAL/MOL
REMARK 923 INTER-LIGAND FREE ENERGY PREDICTED BY IDOCK:  -10.95 KCAL/MOL
REMARK 924 INTRA-LIGAND FREE ENERGY PREDICTED BY IDOCK:   -0.53 KCAL/MOL
REMARK 927      BINDING AFFINITY PREDICTED BY RF-SCORE:    0.00 PKD
ROOT
HETATM    1  C   UNL     1     -11.336   4.966  73.337  1.00  0.00    -0.298 C  
HETATM    2  O   UNL     1     -11.828   6.077  72.579  1.00  0.00    -0.280 OA 
ENDROOT
BRANCH   2   3
HETATM    3  C   UNL     1     -11.221   7.253  72.894  1.00  0.00    -0.292 C  
HETATM    4  O   UNL     1     -10.629   7.460  73.942  1.00  0.00    -0.307 OA 
BRANCH   3   5
HETATM    5  C   UNL     1     -11.378   8.241  71.793  1.00  0.00    -0.350 C  
HETATM    6  C   UNL     1     -12.508   8.980  71.669  1.00  0.00    -0.351 C  
HETATM    7  N   UNL     1     -12.593   9.936  70.673  1.00  0.00    -0.223 NA 
HETATM    8  C   UNL     1     -13.764   8.889  72.504  1.00  0.00    -0.474 C  
HETATM    9  C   UNL     1     -11.690  10.097  69.643  1.00  0.00    -0.098 C  
HETATM   10  C   UNL     1     -12.077  11.128  68.605  1.00  0.00    -0.180 C  
HETATM   11  C   UNL     1     -10.553   9.360  69.628  1.00  0.00    -0.239 C  
HETATM   12  C   UNL     1     -10.222   8.401  70.780  1.00  0.00    -0.227 C  
BRANCH  11  13
HETATM   13  C   UNL     1      -9.678   9.460  68.431  1.00  0.00    -0.149 C  
HETATM   14  O   UNL     1      -9.743   8.671  67.501  1.00  0.00    -0.151 OA 
BRANCH  13  15
HETATM   15  O   UNL     1      -8.891  10.562  68.466  1.00  0.00    -0.130 OA 
HETATM   16  C   UNL     1      -7.415  12.296  67.511  1.00  0.00    -0.149 C  
HETATM   17  C   UNL     1      -9.576  11.605  66.373  1.00  0.00    -0.236 C  
HETATM   18  C   UNL     1      -8.385  11.102  67.206  1.00  0.00    -0.135 C  
HETATM   19  C   UNL     1      -7.541  10.080  66.409  1.00  0.00    -0.104 C  
BRANCH  16  20
HETATM   20  N   UNL     1      -7.940  13.494  68.215  1.00  0.00    -0.140 NA 
HETATM   21  C   UNL     1      -6.844  14.373  68.634  1.00  0.00    -0.096 C  
BRANCH  20  22
HETATM   22  C   UNL     1      -8.810  14.288  67.320  1.00  0.00    -0.214 C  
BRANCH  22  23
HETATM   23  C   UNL     1      -8.834  15.798  67.565  1.00  0.00    -0.196 C  
HETATM   24  C   UNL     1     -10.224  16.475  67.685  1.00  0.00    -0.279 C  
HETATM   25  C   UNL     1      -9.996  17.993  67.593  1.00  0.00    -0.332 A  
HETATM   26  C   UNL     1     -11.013  15.964  68.894  1.00  0.00    -0.290 A  
HETATM   27  C   UNL     1     -10.617  18.739  66.580  1.00  0.00    -0.436 A  
HETATM   28  C   UNL     1     -10.921  16.522  70.178  1.00  0.00    -0.215 A  
HETATM   29  C   UNL     1     -10.244  20.068  66.345  1.00  0.00    -0.598 A  
HETATM   30  C   UNL     1     -11.568  15.937  71.270  1.00  0.00    -0.509 A  
HETATM   31  C   UNL     1     -12.323  14.782  71.104  1.00  0.00    -0.397 A  
HETATM   32  C   UNL     1      -9.261  20.673  67.127  1.00  0.00    -0.429 A  
HETATM   33  C   UNL     1      -8.670  19.964  68.164  1.00  0.00    -0.292 A  
HETATM   34  C   UNL     1     -12.450  14.220  69.839  1.00  0.00    -0.315 A  
HETATM   35  C   UNL     1     -11.808  14.812  68.745  1.00  0.00    -0.330 A  
HETATM   36  C   UNL     1      -9.033  18.638  68.394  1.00  0.00    -0.356 A  
ENDBRANCH  22  23
ENDBRANCH  20  22
ENDBRANCH  16  20
ENDBRANCH  13  15
ENDBRANCH  11  13
BRANCH  12  37
HETATM   37  C   UNL     1      -9.744   7.047  70.248  1.00  0.00    -0.177 A  
HETATM   38  O   UNL     1      -5.825   5.809  70.787  1.00  0.00    -0.022 OA 
HETATM   39  C   UNL     1      -8.428   6.615  70.507  1.00  0.00    -0.138 A  
HETATM   40  O   UNL     1      -6.168   3.970  69.642  1.00  0.00    -0.026 OA 
HETATM   41  C   UNL     1     -10.113   5.026  68.948  1.00  0.00    -0.215 A  
HETATM   42  C   UNL     1      -7.952   5.427  69.939  1.00  0.00    -0.081 A  
HETATM   43  N   UNL     1      -6.548   5.039  70.141  1.00  0.00    -0.034 N  
HETATM   44  C   UNL     1      -8.793   4.627  69.162  1.00  0.00    -0.126 A  
HETATM   45  C   UNL     1     -10.584   6.229  69.482  1.00  0.00    -0.331 A  
ENDBRANCH  12  37
ENDBRANCH   3   5
ENDBRANCH   2   3
TORSDOF 8
ENDMDL
MODEL       23
REMARK 921   NORMALIZED FREE ENERGY PREDICTED BY IDOCK:   -6.47 KCAL/MOL
REMARK 922        TOTAL FREE ENERGY PREDICTED BY IDOCK:  -11.40 KCAL/MOL
REMARK 923 INTER-LIGAND FREE ENERGY PREDICTED BY IDOCK:   -9.86 KCAL/MOL
REMARK 924 INTRA-LIGAND FREE ENERGY PREDICTED BY IDOCK:   -1.54 KCAL/MOL
REMARK 927      BINDING AFFINITY PREDICTED BY RF-SCORE:    0.00 PKD
ROOT
HETATM    1  C   UNL     1      -5.133   5.855  68.777  1.00  0.00    -0.004 C  
HETATM    2  O   UNL     1      -5.169   5.938  70.206  1.00  0.00    -0.008 OA 
ENDROOT
BRANCH   2   3
HETATM    3  C   UNL     1      -5.754   4.859  70.792  1.00  0.00    -0.016 C  
HETATM    4  O   UNL     1      -5.383   3.706  70.634  1.00  0.00    -0.007 OA 
BRANCH   3   5
HETATM    5  C   UNL     1      -6.898   5.278  71.648  1.00  0.00    -0.057 C  
HETATM    6  C   UNL     1      -6.808   5.252  73.000  1.00  0.00    -0.077 C  
HETATM    7  N   UNL     1      -7.867   5.710  73.764  1.00  0.00    -0.104 NA 
HETATM    8  C   UNL     1      -5.655   4.748  73.837  1.00  0.00    -0.017 C  
HETATM    9  C   UNL     1      -9.117   6.033  73.280  1.00  0.00    -0.129 C  
HETATM   10  C   UNL     1     -10.143   6.383  74.336  1.00  0.00    -0.367 C  
HETATM   11  C   UNL     1      -9.342   6.026  71.944  1.00  0.00    -0.160 C  
HETATM   12  C   UNL     1      -8.201   5.736  70.957  1.00  0.00    -0.122 C  
BRANCH  11  13
HETATM   13  C   UNL     1     -10.735   6.240  71.473  1.00  0.00    -0.245 C  
HETATM   14  O   UNL     1     -11.687   5.637  71.944  1.00  0.00    -0.137 OA 
BRANCH  13  15
HETATM   15  O   UNL     1     -10.815   7.228  70.551  1.00  0.00    -0.231 OA 
HETATM   16  C   UNL     1     -11.198   9.537  69.764  1.00  0.00    -0.144 C  
HETATM   17  C   UNL     1      -9.795   9.040  71.821  1.00  0.00    -0.330 C  
HETATM   18  C   UNL     1     -11.025   8.600  71.010  1.00  0.00    -0.260 C  
HETATM   19  C   UNL     1     -12.323   8.767  71.834  1.00  0.00    -0.429 C  
BRANCH  16  20
HETATM   20  N   UNL     1     -10.080   9.664  68.793  1.00  0.00    -0.172 NA 
HETATM   21  C   UNL     1     -10.368   8.910  67.569  1.00  0.00    -0.263 C  
BRANCH  20  22
HETATM   22  C   UNL     1      -9.892  11.076  68.393  1.00  0.00    -0.182 C  
BRANCH  22  23
HETATM   23  C   UNL     1     -10.818  12.096  69.058  1.00  0.00    -0.208 C  
HETATM   24  C   UNL     1     -10.703  13.570  68.590  1.00  0.00    -0.271 C  
HETATM   25  C   UNL     1     -11.468  14.429  69.610  1.00  0.00    -0.331 A  
HETATM   26  C   UNL     1     -11.084  13.738  67.116  1.00  0.00    -0.315 A  
HETATM   27  C   UNL     1     -10.807  15.447  70.313  1.00  0.00    -0.332 A  
HETATM   28  C   UNL     1     -12.393  13.972  66.670  1.00  0.00    -0.408 A  
HETATM   29  C   UNL     1     -11.424  16.080  71.398  1.00  0.00    -0.464 A  
HETATM   30  C   UNL     1     -12.703  13.993  65.308  1.00  0.00    -0.468 A  
HETATM   31  C   UNL     1     -11.710  13.782  64.359  1.00  0.00    -0.436 A  
HETATM   32  C   UNL     1     -12.713  15.718  71.784  1.00  0.00    -0.519 A  
HETATM   33  C   UNL     1     -13.401  14.745  71.071  1.00  0.00    -0.427 A  
HETATM   34  C   UNL     1     -10.400  13.570  64.771  1.00  0.00    -0.405 A  
HETATM   35  C   UNL     1     -10.091  13.558  66.136  1.00  0.00    -0.307 A  
HETATM   36  C   UNL     1     -12.785  14.107  69.995  1.00  0.00    -0.155 A  
ENDBRANCH  22  23
ENDBRANCH  20  22
ENDBRANCH  16  20
ENDBRANCH  13  15
ENDBRANCH  11  13
BRANCH  12  37
HETATM   37  C   UNL     1      -8.649   4.747  69.877  1.00  0.00    -0.094 A  
HETATM   38  O   UNL     1      -9.317   6.001  65.983  1.00  0.00    -0.151 OA 
HETATM   39  C   UNL     1      -8.798   5.180  68.545  1.00  0.00    -0.109 A  
HETATM   40  O   UNL     1      -9.970   3.999  65.369  1.00  0.00    -0.195 OA 
HETATM   41  C   UNL     1      -9.408   2.537  69.205  1.00  0.00    -0.194 A  
HETATM   42  C   UNL     1      -9.303   4.309  67.572  1.00  0.00    -0.162 A  
HETATM   43  N   UNL     1      -9.543   4.805  66.210  1.00  0.00    -0.161 N  
HETATM   44  C   UNL     1      -9.605   2.984  67.897  1.00  0.00    -0.114 A  
HETATM   45  C   UNL     1      -8.938   3.413  70.188  1.00  0.00    -0.172 A  
ENDBRANCH  12  37
ENDBRANCH   3   5
ENDBRANCH   2   3
TORSDOF 8
ENDMDL
MODEL       24
REMARK 921   NORMALIZED FREE ENERGY PREDICTED BY IDOCK:   -6.45 KCAL/MOL
REMARK 922        TOTAL FREE ENERGY PREDICTED BY IDOCK:  -11.38 KCAL/MOL
REMARK 923 INTER-LIGAND FREE ENERGY PREDICTED BY IDOCK:  -10.68 KCAL/MOL
REMARK 924 INTRA-LIGAND FREE ENERGY PREDICTED BY IDOCK:   -0.70 KCAL/MOL
REMARK 927      BINDING AFFINITY PREDICTED BY RF-SCORE:    0.00 PKD
ROOT
HETATM    1  C   UNL     1      -7.080   4.010  72.991  1.00  0.00    -0.062 C  
HETATM    2  O   UNL     1      -7.554   3.324  71.827  1.00  0.00    -0.050 OA 
ENDROOT
BRANCH   2   3
HETATM    3  C   UNL     1      -8.909   3.206  71.788  1.00  0.00    -0.086 C  
HETATM    4  O   UNL     1      -9.559   2.501  72.544  1.00  0.00    -0.096 OA 
BRANCH   3   5
HETATM    5  C   UNL     1      -9.482   4.052  70.706  1.00  0.00    -0.240 C  
HETATM    6  C   UNL     1      -9.190   3.816  69.403  1.00  0.00    -0.156 C  
HETATM    7  N   UNL     1      -9.792   4.581  68.419  1.00  0.00    -0.121 NA 
HETATM    8  C   UNL     1      -8.232   2.790  68.844  1.00  0.00    -0.074 C  
HETATM    9  C   UNL     1     -10.545   5.714  68.640  1.00  0.00    -0.198 C  
HETATM   10  C   UNL     1     -10.984   6.447  67.391  1.00  0.00    -0.463 C  
HETATM   11  C   UNL     1     -10.844   6.084  69.909  1.00  0.00    -0.434 C  
HETATM   12  C   UNL     1     -10.416   5.217  71.102  1.00  0.00    -0.275 C  
BRANCH  11  13
HETATM   13  C   UNL     1     -11.534   7.385  70.108  1.00  0.00    -0.129 C  
HETATM   14  O   UNL     1     -12.286   7.593  71.048  1.00  0.00    -0.290 OA 
BRANCH  13  15
HETATM   15  O   UNL     1     -11.155   8.309  69.193  1.00  0.00     0.008 OA 
HETATM   16  C   UNL     1     -10.598  10.577  68.392  1.00  0.00    -0.199 C  
HETATM   17  C   UNL     1      -9.696   9.673  70.586  1.00  0.00    -0.239 C  
HETATM   18  C   UNL     1     -10.908   9.678  69.640  1.00  0.00    -0.244 C  
HETATM   19  C   UNL     1     -12.140  10.322  70.315  1.00  0.00    -0.330 C  
BRANCH  16  20
HETATM   20  N   UNL     1      -9.412  10.267  67.552  1.00  0.00    -0.151 NA 
HETATM   21  C   UNL     1      -9.815   9.595  66.313  1.00  0.00    -0.256 C  
BRANCH  20  22
HETATM   22  C   UNL     1      -8.709  11.507  67.160  1.00  0.00    -0.160 C  
BRANCH  22  23
HETATM   23  C   UNL     1      -9.371  12.821  67.581  1.00  0.00    -0.191 C  
HETATM   24  C   UNL     1      -9.650  13.865  66.468  1.00  0.00    -0.299 C  
HETATM   25  C   UNL     1      -9.994  15.190  67.168  1.00  0.00    -0.237 A  
HETATM   26  C   UNL     1     -10.648  13.347  65.429  1.00  0.00    -0.310 A  
HETATM   27  C   UNL     1      -9.221  16.336  66.929  1.00  0.00    -0.237 A  
HETATM   28  C   UNL     1     -12.039  13.489  65.546  1.00  0.00    -0.454 A  
HETATM   29  C   UNL     1      -9.378  17.478  67.721  1.00  0.00    -0.257 A  
HETATM   30  C   UNL     1     -12.909  12.888  64.631  1.00  0.00    -0.323 A  
HETATM   31  C   UNL     1     -12.408  12.135  63.577  1.00  0.00    -0.682 A  
HETATM   32  C   UNL     1     -10.319  17.498  68.750  1.00  0.00    -0.358 A  
HETATM   33  C   UNL     1     -11.126  16.389  68.971  1.00  0.00    -0.315 A  
HETATM   34  C   UNL     1     -11.033  11.996  63.423  1.00  0.00    -0.475 A  
HETATM   35  C   UNL     1     -10.165  12.605  64.336  1.00  0.00    -0.344 A  
HETATM   36  C   UNL     1     -10.964  15.248  68.188  1.00  0.00    -0.292 A  
ENDBRANCH  22  23
ENDBRANCH  20  22
ENDBRANCH  16  20
ENDBRANCH  13  15
ENDBRANCH  11  13
BRANCH  12  37
HETATM   37  C   UNL     1      -9.809   6.076  72.215  1.00  0.00    -0.178 A  
HETATM   38  O   UNL     1      -6.382   8.311  71.554  1.00  0.00    -0.040 OA 
HETATM   39  C   UNL     1      -8.687   6.885  71.947  1.00  0.00    -0.126 A  
HETATM   40  O   UNL     1      -6.329   8.990  73.639  1.00  0.00    -0.311 OA 
HETATM   41  C   UNL     1      -9.729   6.799  74.535  1.00  0.00    -0.270 A  
HETATM   42  C   UNL     1      -8.065   7.594  72.981  1.00  0.00    -0.117 A  
HETATM   43  N   UNL     1      -6.839   8.356  72.703  1.00  0.00    -0.095 N  
HETATM   44  C   UNL     1      -8.586   7.557  74.277  1.00  0.00    -0.270 A  
HETATM   45  C   UNL     1     -10.333   6.060  73.513  1.00  0.00    -0.255 A  
ENDBRANCH  12  37
ENDBRANCH   3   5
ENDBRANCH   2   3
TORSDOF 8
ENDMDL
MODEL       25
REMARK 921   NORMALIZED FREE ENERGY PREDICTED BY IDOCK:   -6.41 KCAL/MOL
REMARK 922        TOTAL FREE ENERGY PREDICTED BY IDOCK:  -11.32 KCAL/MOL
REMARK 923 INTER-LIGAND FREE ENERGY PREDICTED BY IDOCK:   -8.23 KCAL/MOL
REMARK 924 INTRA-LIGAND FREE ENERGY PREDICTED BY IDOCK:   -3.09 KCAL/MOL
REMARK 927      BINDING AFFINITY PREDICTED BY RF-SCORE:    0.00 PKD
ROOT
HETATM    1  C   UNL     1     -12.288  12.522  68.970  1.00  0.00     0.212 C  
HETATM    2  O   UNL     1     -11.996  11.952  67.690  1.00  0.00    -0.575 OA 
ENDROOT
BRANCH   2   3
HETATM    3  C   UNL     1     -11.041  12.635  67.003  1.00  0.00    -0.281 C  
HETATM    4  O   UNL     1     -10.653  13.755  67.298  1.00  0.00    -0.271 OA 
BRANCH   3   5
HETATM    5  C   UNL     1     -10.539  11.833  65.855  1.00  0.00    -0.314 C  
HETATM    6  C   UNL     1     -11.160  11.868  64.650  1.00  0.00    -0.317 C  
HETATM    7  N   UNL     1     -10.628  11.160  63.587  1.00  0.00    -0.373 NA 
HETATM    8  C   UNL     1     -12.433  12.598  64.291  1.00  0.00    -0.494 C  
HETATM    9  C   UNL     1      -9.598  10.247  63.673  1.00  0.00    -0.277 C  
HETATM   10  C   UNL     1      -9.286   9.509  62.390  1.00  0.00    -0.185 C  
HETATM   11  C   UNL     1      -8.947  10.080  64.849  1.00  0.00    -0.241 C  
HETATM   12  C   UNL     1      -9.292  10.946  66.069  1.00  0.00    -0.215 C  
BRANCH  11  13
HETATM   13  C   UNL     1      -7.941   8.989  64.937  1.00  0.00    -0.126 C  
HETATM   14  O   UNL     1      -6.739   9.203  64.948  1.00  0.00    -0.072 OA 
BRANCH  13  15
HETATM   15  O   UNL     1      -8.520   7.774  65.092  1.00  0.00    -0.134 OA 
HETATM   16  C   UNL     1      -8.557   5.351  65.563  1.00  0.00    -0.148 C  
HETATM   17  C   UNL     1      -7.254   6.976  67.014  1.00  0.00    -0.081 C  
HETATM   18  C   UNL     1      -7.701   6.665  65.576  1.00  0.00    -0.097 C  
HETATM   19  C   UNL     1      -6.485   6.373  64.666  1.00  0.00    -0.034 C  
BRANCH  16  20
HETATM   20  N   UNL     1      -9.778   5.274  66.407  1.00  0.00    -0.158 NA 
HETATM   21  C   UNL     1     -10.957   4.977  65.588  1.00  0.00     0.134 C  
BRANCH  20  22
HETATM   22  C   UNL     1      -9.660   4.185  67.400  1.00  0.00    -0.180 C  
BRANCH  22  23
HETATM   23  C   UNL     1     -10.031   4.541  68.841  1.00  0.00    -0.131 C  
HETATM   24  C   UNL     1      -9.103   4.013  69.965  1.00  0.00    -0.187 C  
HETATM   25  C   UNL     1      -9.848   4.207  71.296  1.00  0.00    -0.249 A  
HETATM   26  C   UNL     1      -7.690   4.597  69.869  1.00  0.00    -0.058 A  
HETATM   27  C   UNL     1     -10.126   3.104  72.117  1.00  0.00    -0.200 A  
HETATM   28  C   UNL     1      -7.301   5.801  70.473  1.00  0.00    -0.084 A  
HETATM   29  C   UNL     1     -10.994   3.230  73.208  1.00  0.00    -0.263 A  
HETATM   30  C   UNL     1      -6.036   6.350  70.248  1.00  0.00    -0.026 A  
HETATM   31  C   UNL     1      -5.129   5.706  69.416  1.00  0.00    -0.004 A  
HETATM   32  C   UNL     1     -11.581   4.460  73.503  1.00  0.00    -0.193 A  
HETATM   33  C   UNL     1     -11.280   5.573  72.729  1.00  0.00    -0.358 A  
HETATM   34  C   UNL     1      -5.478   4.499  68.822  1.00  0.00    -0.012 A  
HETATM   35  C   UNL     1      -6.743   3.947  69.055  1.00  0.00    -0.045 A  
HETATM   36  C   UNL     1     -10.423   5.448  71.638  1.00  0.00    -0.291 A  
ENDBRANCH  22  23
ENDBRANCH  20  22
ENDBRANCH  16  20
ENDBRANCH  13  15
ENDBRANCH  11  13
BRANCH  12  37
HETATM   37  C   UNL     1      -9.416  10.090  67.333  1.00  0.00    -0.176 A  
HETATM   38  O   UNL     1      -6.824  10.615  70.525  1.00  0.00    -0.309 OA 
HETATM   39  C   UNL     1      -8.572  10.336  68.434  1.00  0.00    -0.125 A  
HETATM   40  O   UNL     1      -7.733   8.956  71.635  1.00  0.00    -0.260 OA 
HETATM   41  C   UNL     1     -10.399   8.229  68.549  1.00  0.00    -0.230 A  
HETATM   42  C   UNL     1      -8.609   9.495  69.553  1.00  0.00    -0.169 A  
HETATM   43  N   UNL     1      -7.656   9.707  70.651  1.00  0.00    -0.130 N  
HETATM   44  C   UNL     1      -9.525   8.442  69.616  1.00  0.00    -0.166 A  
HETATM   45  C   UNL     1     -10.342   9.043  67.414  1.00  0.00    -0.335 A  
ENDBRANCH  12  37
ENDBRANCH   3   5
ENDBRANCH   2   3
TORSDOF 8
ENDMDL
MODEL       26
REMARK 921   NORMALIZED FREE ENERGY PREDICTED BY IDOCK:   -6.33 KCAL/MOL
REMARK 922        TOTAL FREE ENERGY PREDICTED BY IDOCK:  -11.20 KCAL/MOL
REMARK 923 INTER-LIGAND FREE ENERGY PREDICTED BY IDOCK:   -9.79 KCAL/MOL
REMARK 924 INTRA-LIGAND FREE ENERGY PREDICTED BY IDOCK:   -1.41 KCAL/MOL
REMARK 927      BINDING AFFINITY PREDICTED BY RF-SCORE:    0.00 PKD
ROOT
HETATM    1  C   UNL     1     -10.561   5.099  69.841  1.00  0.00    -0.126 C  
HETATM    2  O   UNL     1      -9.918   5.051  68.563  1.00  0.00    -0.160 OA 
ENDROOT
BRANCH   2   3
HETATM    3  C   UNL     1     -10.127   6.167  67.814  1.00  0.00    -0.150 C  
HETATM    4  O   UNL     1     -11.179   6.427  67.250  1.00  0.00    -0.364 OA 
BRANCH   3   5
HETATM    5  C   UNL     1      -8.908   7.019  67.781  1.00  0.00    -0.123 C  
HETATM    6  C   UNL     1      -7.751   6.566  67.237  1.00  0.00    -0.101 C  
HETATM    7  N   UNL     1      -6.655   7.408  67.164  1.00  0.00    -0.059 NA 
HETATM    8  C   UNL     1      -7.470   5.189  66.684  1.00  0.00    -0.087 C  
HETATM    9  C   UNL     1      -6.557   8.642  67.772  1.00  0.00    -0.062 C  
HETATM   10  C   UNL     1      -5.205   9.312  67.651  1.00  0.00    -0.037 C  
HETATM   11  C   UNL     1      -7.634   9.166  68.405  1.00  0.00    -0.083 C  
HETATM   12  C   UNL     1      -8.985   8.435  68.393  1.00  0.00    -0.136 C  
BRANCH  11  13
HETATM   13  C   UNL     1      -7.446  10.429  69.166  1.00  0.00    -0.112 C  
HETATM   14  O   UNL     1      -6.643  10.531  70.080  1.00  0.00    -0.126 OA 
BRANCH  13  15
HETATM   15  O   UNL     1      -8.191  11.442  68.664  1.00  0.00    -0.150 OA 
HETATM   16  C   UNL     1      -8.583  13.712  67.777  1.00  0.00    -0.182 C  
HETATM   17  C   UNL     1      -6.635  12.287  66.991  1.00  0.00    -0.046 C  
HETATM   18  C   UNL     1      -7.510  12.649  68.202  1.00  0.00    -0.122 C  
HETATM   19  C   UNL     1      -6.674  13.330  69.310  1.00  0.00    -0.066 C  
BRANCH  16  20
HETATM   20  N   UNL     1      -9.517  13.394  66.665  1.00  0.00    -0.260 NA 
HETATM   21  C   UNL     1     -10.662  12.621  67.155  1.00  0.00    -0.241 C  
BRANCH  20  22
HETATM   22  C   UNL     1     -10.059  14.633  66.067  1.00  0.00    -0.311 C  
BRANCH  22  23
HETATM   23  C   UNL     1      -9.552  15.949  66.660  1.00  0.00    -0.265 C  
HETATM   24  C   UNL     1     -10.574  16.816  67.440  1.00  0.00    -0.291 C  
HETATM   25  C   UNL     1      -9.933  18.200  67.639  1.00  0.00    -0.344 A  
HETATM   26  C   UNL     1     -11.096  16.107  68.692  1.00  0.00    -0.356 A  
HETATM   27  C   UNL     1     -10.563  19.348  67.136  1.00  0.00    -0.596 A  
HETATM   28  C   UNL     1     -10.473  16.179  69.947  1.00  0.00    -0.261 A  
HETATM   29  C   UNL     1      -9.889  20.574  67.107  1.00  0.00    -0.567 A  
HETATM   30  C   UNL     1     -10.922  15.411  71.025  1.00  0.00    -0.309 A  
HETATM   31  C   UNL     1     -12.006  14.555  70.874  1.00  0.00    -0.389 A  
HETATM   32  C   UNL     1      -8.587  20.675  67.596  1.00  0.00    -0.197 A  
HETATM   33  C   UNL     1      -7.966  19.559  68.141  1.00  0.00    -0.353 A  
HETATM   34  C   UNL     1     -12.657  14.480  69.649  1.00  0.00    -0.109 A  
HETATM   35  C   UNL     1     -12.211  15.256  68.573  1.00  0.00     0.026 A  
HETATM   36  C   UNL     1      -8.632  18.335  68.162  1.00  0.00    -0.290 A  
ENDBRANCH  22  23
ENDBRANCH  20  22
ENDBRANCH  16  20
ENDBRANCH  13  15
ENDBRANCH  11  13
BRANCH  12  37
HETATM   37  C   UNL     1      -9.611   8.415  69.791  1.00  0.00    -0.170 A  
HETATM   38  O   UNL     1     -13.257  10.247  70.519  1.00  0.00    -0.299 OA 
HETATM   39  C   UNL     1     -10.885   8.980  69.999  1.00  0.00    -0.247 A  
HETATM   40  O   UNL     1     -13.160   9.763  72.656  1.00  0.00    -0.222 OA 
HETATM   41  C   UNL     1      -9.487   7.911  72.166  1.00  0.00    -0.234 A  
HETATM   42  C   UNL     1     -11.420   9.056  71.290  1.00  0.00    -0.320 A  
HETATM   43  N   UNL     1     -12.707   9.734  71.503  1.00  0.00    -0.374 N  
HETATM   44  C   UNL     1     -10.726   8.518  72.377  1.00  0.00    -0.376 A  
HETATM   45  C   UNL     1      -8.931   7.864  70.884  1.00  0.00    -0.147 A  
ENDBRANCH  12  37
ENDBRANCH   3   5
ENDBRANCH   2   3
TORSDOF 8
ENDMDL
MODEL       27
REMARK 921   NORMALIZED FREE ENERGY PREDICTED BY IDOCK:   -6.32 KCAL/MOL
REMARK 922        TOTAL FREE ENERGY PREDICTED BY IDOCK:  -11.18 KCAL/MOL
REMARK 923 INTER-LIGAND FREE ENERGY PREDICTED BY IDOCK:   -9.33 KCAL/MOL
REMARK 924 INTRA-LIGAND FREE ENERGY PREDICTED BY IDOCK:   -1.86 KCAL/MOL
REMARK 927      BINDING AFFINITY PREDICTED BY RF-SCORE:    0.00 PKD
ROOT
HETATM    1  C   UNL     1      -6.966  20.542  65.839  1.00  0.00    -0.182 C  
HETATM    2  O   UNL     1      -7.032  19.120  65.993  1.00  0.00    -0.230 OA 
ENDROOT
BRANCH   2   3
HETATM    3  C   UNL     1      -7.988  18.718  66.872  1.00  0.00    -0.252 C  
HETATM    4  O   UNL     1      -7.986  18.996  68.062  1.00  0.00    -0.273 OA 
BRANCH   3   5
HETATM    5  C   UNL     1      -9.027  17.902  66.188  1.00  0.00    -0.122 C  
HETATM    6  C   UNL     1     -10.183  18.462  65.752  1.00  0.00    -0.095 C  
HETATM    7  N   UNL     1     -11.099  17.688  65.062  1.00  0.00    -0.639 NA 
HETATM    8  C   UNL     1     -10.644  19.888  65.940  1.00  0.00    -0.523 C  
HETATM    9  C   UNL     1     -11.040  16.317  64.923  1.00  0.00    -0.290 C  
HETATM   10  C   UNL     1     -12.232  15.689  64.235  1.00  0.00    -0.012 C  
HETATM   11  C   UNL     1      -9.958  15.642  65.384  1.00  0.00    -0.311 C  
HETATM   12  C   UNL     1      -8.764  16.392  65.992  1.00  0.00    -0.274 C  
BRANCH  11  13
HETATM   13  C   UNL     1      -9.998  14.157  65.343  1.00  0.00    -0.291 C  
HETATM   14  O   UNL     1      -9.429  13.508  64.479  1.00  0.00     0.327 OA 
BRANCH  13  15
HETATM   15  O   UNL     1     -10.648  13.636  66.411  1.00  0.00    -0.279 OA 
HETATM   16  C   UNL     1     -12.150  12.056  67.571  1.00  0.00     0.147 C  
HETATM   17  C   UNL     1     -10.410  11.266  65.900  1.00  0.00    -0.304 C  
HETATM   18  C   UNL     1     -11.399  12.394  66.236  1.00  0.00    -0.340 C  
HETATM   19  C   UNL     1     -12.503  12.506  65.159  1.00  0.00    -0.451 C  
BRANCH  16  20
HETATM   20  N   UNL     1     -11.359  11.812  68.805  1.00  0.00    -0.241 NA 
HETATM   21  C   UNL     1     -11.391  12.985  69.683  1.00  0.00    -0.106 C  
BRANCH  20  22
HETATM   22  C   UNL     1     -11.925  10.683  69.575  1.00  0.00    -0.247 C  
BRANCH  22  23
HETATM   23  C   UNL     1     -10.983  10.002  70.569  1.00  0.00    -0.392 C  
HETATM   24  C   UNL     1     -10.815   8.465  70.451  1.00  0.00    -0.246 C  
HETATM   25  C   UNL     1     -10.108   7.988  71.730  1.00  0.00    -0.249 A  
HETATM   26  C   UNL     1     -10.188   8.054  69.116  1.00  0.00    -0.221 A  
HETATM   27  C   UNL     1     -10.724   7.045  72.567  1.00  0.00    -0.273 A  
HETATM   28  C   UNL     1      -8.805   7.958  68.901  1.00  0.00    -0.142 A  
HETATM   29  C   UNL     1     -10.204   6.774  73.837  1.00  0.00    -0.396 A  
HETATM   30  C   UNL     1      -8.285   7.701  67.629  1.00  0.00    -0.121 A  
HETATM   31  C   UNL     1      -9.135   7.531  66.544  1.00  0.00    -0.201 A  
HETATM   32  C   UNL     1      -9.054   7.425  74.282  1.00  0.00    -0.223 A  
HETATM   33  C   UNL     1      -8.405   8.327  73.448  1.00  0.00    -0.252 A  
HETATM   34  C   UNL     1     -10.511   7.598  66.731  1.00  0.00    -0.319 A  
HETATM   35  C   UNL     1     -11.030   7.848  68.007  1.00  0.00     0.096 A  
HETATM   36  C   UNL     1      -8.927   8.605  72.186  1.00  0.00    -0.270 A  
ENDBRANCH  22  23
ENDBRANCH  20  22
ENDBRANCH  16  20
ENDBRANCH  13  15
ENDBRANCH  11  13
BRANCH  12  37
HETATM   37  C   UNL     1      -8.301  15.725  67.291  1.00  0.00    -0.213 A  
HETATM   38  O   UNL     1      -5.131  13.055  67.299  1.00  0.00    -0.325 OA 
HETATM   39  C   UNL     1      -7.175  14.878  67.282  1.00  0.00    -0.142 A  
HETATM   40  O   UNL     1      -5.374  12.654  69.442  1.00  0.00    -0.072 OA 
HETATM   41  C   UNL     1      -8.593  15.253  69.657  1.00  0.00    -0.104 A  
HETATM   42  C   UNL     1      -6.805  14.185  68.441  1.00  0.00    -0.098 A  
HETATM   43  N   UNL     1      -5.687  13.233  68.391  1.00  0.00    -0.077 N  
HETATM   44  C   UNL     1      -7.509  14.374  69.633  1.00  0.00     0.104 A  
HETATM   45  C   UNL     1      -8.989  15.920  68.494  1.00  0.00    -0.199 A  
ENDBRANCH  12  37
ENDBRANCH   3   5
ENDBRANCH   2   3
TORSDOF 8
ENDMDL
MODEL       28
REMARK 921   NORMALIZED FREE ENERGY PREDICTED BY IDOCK:   -6.30 KCAL/MOL
REMARK 922        TOTAL FREE ENERGY PREDICTED BY IDOCK:  -11.15 KCAL/MOL
REMARK 923 INTER-LIGAND FREE ENERGY PREDICTED BY IDOCK:  -10.07 KCAL/MOL
REMARK 924 INTRA-LIGAND FREE ENERGY PREDICTED BY IDOCK:   -1.08 KCAL/MOL
REMARK 927      BINDING AFFINITY PREDICTED BY RF-SCORE:    0.00 PKD
ROOT
HETATM    1  C   UNL     1      -7.064   4.171  71.931  1.00  0.00    -0.050 C  
HETATM    2  O   UNL     1      -6.610   5.285  72.707  1.00  0.00    -0.063 OA 
ENDROOT
BRANCH   2   3
HETATM    3  C   UNL     1      -7.513   6.300  72.770  1.00  0.00    -0.096 C  
HETATM    4  O   UNL     1      -8.549   6.257  73.415  1.00  0.00    -0.122 OA 
BRANCH   3   5
HETATM    5  C   UNL     1      -7.065   7.459  71.952  1.00  0.00    -0.063 C  
HETATM    6  C   UNL     1      -6.319   8.453  72.494  1.00  0.00    -0.082 C  
HETATM    7  N   UNL     1      -5.864   9.482  71.689  1.00  0.00    -0.174 NA 
HETATM    8  C   UNL     1      -5.907   8.612  73.939  1.00  0.00    -0.122 C  
HETATM    9  C   UNL     1      -6.254   9.706  70.385  1.00  0.00    -0.071 C  
HETATM   10  C   UNL     1      -5.714  10.975  69.763  1.00  0.00    -0.062 C  
HETATM   11  C   UNL     1      -7.056   8.810  69.762  1.00  0.00    -0.054 C  
HETATM   12  C   UNL     1      -7.478   7.511  70.464  1.00  0.00    -0.080 C  
BRANCH  11  13
HETATM   13  C   UNL     1      -7.567   9.159  68.411  1.00  0.00    -0.083 C  
HETATM   14  O   UNL     1      -8.124   8.345  67.689  1.00  0.00    -0.115 OA 
BRANCH  13  15
HETATM   15  O   UNL     1      -7.424  10.476  68.136  1.00  0.00    -0.087 OA 
HETATM   16  C   UNL     1      -8.148  12.689  67.313  1.00  0.00    -0.178 C  
HETATM   17  C   UNL     1      -9.630  11.264  68.802  1.00  0.00    -0.160 C  
HETATM   18  C   UNL     1      -8.589  11.227  67.672  1.00  0.00    -0.124 C  
HETATM   19  C   UNL     1      -9.197  10.651  66.372  1.00  0.00    -0.190 C  
BRANCH  16  20
HETATM   20  N   UNL     1      -7.579  13.556  68.378  1.00  0.00    -0.127 NA 
HETATM   21  C   UNL     1      -6.341  14.194  67.922  1.00  0.00    -0.164 C  
BRANCH  20  22
HETATM   22  C   UNL     1      -8.520  14.643  68.727  1.00  0.00    -0.161 C  
BRANCH  22  23
HETATM   23  C   UNL     1      -9.807  14.220  69.439  1.00  0.00     0.212 C  
HETATM   24  C   UNL     1     -11.131  14.862  68.951  1.00  0.00    -0.267 C  
HETATM   25  C   UNL     1     -12.202  14.548  70.010  1.00  0.00    -0.396 A  
HETATM   26  C   UNL     1     -11.456  14.485  67.503  1.00  0.00    -0.375 A  
HETATM   27  C   UNL     1     -12.878  15.591  70.660  1.00  0.00    -0.466 A  
HETATM   28  C   UNL     1     -12.181  13.341  67.137  1.00  0.00    -0.281 A  
HETATM   29  C   UNL     1     -13.682  15.331  71.776  1.00  0.00    -0.605 A  
HETATM   30  C   UNL     1     -12.339  12.980  65.797  1.00  0.00    -0.477 A  
HETATM   31  C   UNL     1     -11.779  13.756  64.789  1.00  0.00    -0.399 A  
HETATM   32  C   UNL     1     -13.835  14.027  72.245  1.00  0.00    -0.655 A  
HETATM   33  C   UNL     1     -13.211  12.977  71.585  1.00  0.00    -0.426 A  
HETATM   34  C   UNL     1     -11.075  14.908  65.121  1.00  0.00    -0.399 A  
HETATM   35  C   UNL     1     -10.924  15.272  66.463  1.00  0.00    -0.295 A  
HETATM   36  C   UNL     1     -12.403  13.235  70.479  1.00  0.00    -0.389 A  
ENDBRANCH  22  23
ENDBRANCH  20  22
ENDBRANCH  16  20
ENDBRANCH  13  15
ENDBRANCH  11  13
BRANCH  12  37
HETATM   37  C   UNL     1      -8.976   7.249  70.282  1.00  0.00    -0.151 A  
HETATM   38  O   UNL     1     -11.799   9.774  71.966  1.00  0.00    -0.261 OA 
HETATM   39  C   UNL     1      -9.916   8.161  70.800  1.00  0.00    -0.209 A  
HETATM   40  O   UNL     1     -13.454   8.524  71.254  1.00  0.00    -0.254 OA 
HETATM   41  C   UNL     1     -10.809   5.845  69.524  1.00  0.00    -0.442 A  
HETATM   42  C   UNL     1     -11.286   7.880  70.727  1.00  0.00    -0.274 A  
HETATM   43  N   UNL     1     -12.248   8.794  71.358  1.00  0.00    -0.301 N  
HETATM   44  C   UNL     1     -11.737   6.724  70.086  1.00  0.00    -0.370 A  
HETATM   45  C   UNL     1      -9.439   6.103  69.626  1.00  0.00    -0.162 A  
ENDBRANCH  12  37
ENDBRANCH   3   5
ENDBRANCH   2   3
TORSDOF 8
ENDMDL
MODEL       29
REMARK 921   NORMALIZED FREE ENERGY PREDICTED BY IDOCK:   -6.29 KCAL/MOL
REMARK 922        TOTAL FREE ENERGY PREDICTED BY IDOCK:  -11.15 KCAL/MOL
REMARK 923 INTER-LIGAND FREE ENERGY PREDICTED BY IDOCK:  -10.01 KCAL/MOL
REMARK 924 INTRA-LIGAND FREE ENERGY PREDICTED BY IDOCK:   -1.14 KCAL/MOL
REMARK 927      BINDING AFFINITY PREDICTED BY RF-SCORE:    0.00 PKD
ROOT
HETATM    1  C   UNL     1      -9.053   2.181  65.564  1.00  0.00    -0.091 C  
HETATM    2  O   UNL     1      -9.378   3.325  66.362  1.00  0.00    -0.165 OA 
ENDROOT
BRANCH   2   3
HETATM    3  C   UNL     1      -9.961   4.327  65.653  1.00  0.00    -0.224 C  
HETATM    4  O   UNL     1     -11.075   4.258  65.155  1.00  0.00    -0.194 OA 
BRANCH   3   5
HETATM    5  C   UNL     1      -9.062   5.510  65.570  1.00  0.00    -0.101 C  
HETATM    6  C   UNL     1      -8.167   5.642  64.560  1.00  0.00    -0.125 C  
HETATM    7  N   UNL     1      -7.393   6.786  64.478  1.00  0.00    -0.083 NA 
HETATM    8  C   UNL     1      -7.869   4.651  63.459  1.00  0.00    -0.079 C  
HETATM    9  C   UNL     1      -7.304   7.759  65.451  1.00  0.00    -0.077 C  
HETATM   10  C   UNL     1      -6.287   8.846  65.180  1.00  0.00    -0.061 C  
HETATM   11  C   UNL     1      -8.106   7.693  66.541  1.00  0.00    -0.119 C  
HETATM   12  C   UNL     1      -9.164   6.588  66.673  1.00  0.00    -0.172 C  
BRANCH  11  13
HETATM   13  C   UNL     1      -7.879   8.679  67.630  1.00  0.00    -0.103 C  
HETATM   14  O   UNL     1      -6.818   8.764  68.229  1.00  0.00    -0.064 OA 
BRANCH  13  15
HETATM   15  O   UNL     1      -8.939   9.505  67.798  1.00  0.00    -0.123 OA 
HETATM   16  C   UNL     1     -10.429  11.014  69.062  1.00  0.00    -0.216 C  
HETATM   17  C   UNL     1      -7.902  11.198  69.209  1.00  0.00    -0.007 C  
HETATM   18  C   UNL     1      -9.077  10.218  69.066  1.00  0.00    -0.183 C  
HETATM   19  C   UNL     1      -9.162   9.269  70.284  1.00  0.00    -0.273 C  
BRANCH  16  20
HETATM   20  N   UNL     1     -10.642  12.074  68.043  1.00  0.00    -0.201 NA 
HETATM   21  C   UNL     1     -11.456  11.571  66.933  1.00  0.00    -0.184 C  
BRANCH  20  22
HETATM   22  C   UNL     1     -11.373  13.221  68.626  1.00  0.00    -0.288 C  
BRANCH  22  23
HETATM   23  C   UNL     1     -10.630  14.558  68.641  1.00  0.00    -0.255 C  
HETATM   24  C   UNL     1     -11.471  15.835  68.900  1.00  0.00    -0.381 C  
HETATM   25  C   UNL     1     -10.586  17.040  68.540  1.00  0.00    -0.370 A  
HETATM   26  C   UNL     1     -12.110  15.833  70.291  1.00  0.00    -0.371 A  
HETATM   27  C   UNL     1     -10.996  17.947  67.552  1.00  0.00    -0.104 A  
HETATM   28  C   UNL     1     -11.479  16.333  71.440  1.00  0.00    -0.361 A  
HETATM   29  C   UNL     1     -10.108  18.909  67.057  1.00  0.00    -0.408 A  
HETATM   30  C   UNL     1     -12.057  16.192  72.705  1.00  0.00    -0.652 A  
HETATM   31  C   UNL     1     -13.280  15.550  72.850  1.00  0.00    -0.633 A  
HETATM   32  C   UNL     1      -8.808  18.990  67.553  1.00  0.00    -0.316 A  
HETATM   33  C   UNL     1      -8.400  18.131  68.566  1.00  0.00    -0.314 A  
HETATM   34  C   UNL     1     -13.939  15.065  71.727  1.00  0.00    -0.598 A  
HETATM   35  C   UNL     1     -13.363  15.214  70.461  1.00  0.00    -0.200 A  
HETATM   36  C   UNL     1      -9.280  17.166  69.053  1.00  0.00    -0.135 A  
ENDBRANCH  22  23
ENDBRANCH  20  22
ENDBRANCH  16  20
ENDBRANCH  13  15
ENDBRANCH  11  13
BRANCH  12  37
HETATM   37  C   UNL     1      -9.141   5.969  68.074  1.00  0.00    -0.117 A  
HETATM   38  O   UNL     1     -12.245   6.618  70.742  1.00  0.00    -0.378 OA 
HETATM   39  C   UNL     1     -10.240   6.142  68.937  1.00  0.00    -0.232 A  
HETATM   40  O   UNL     1     -11.228   5.484  72.320  1.00  0.00    -0.257 OA 
HETATM   41  C   UNL     1      -7.997   4.743  69.834  1.00  0.00    -0.069 A  
HETATM   42  C   UNL     1     -10.185   5.666  70.253  1.00  0.00    -0.243 A  
HETATM   43  N   UNL     1     -11.301   5.939  71.169  1.00  0.00    -0.224 N  
HETATM   44  C   UNL     1      -9.067   4.962  70.704  1.00  0.00    -0.174 A  
HETATM   45  C   UNL     1      -8.032   5.247  68.531  1.00  0.00    -0.087 A  
ENDBRANCH  12  37
ENDBRANCH   3   5
ENDBRANCH   2   3
TORSDOF 8
ENDMDL
MODEL       30
REMARK 921   NORMALIZED FREE ENERGY PREDICTED BY IDOCK:   -6.29 KCAL/MOL
REMARK 922        TOTAL FREE ENERGY PREDICTED BY IDOCK:  -11.14 KCAL/MOL
REMARK 923 INTER-LIGAND FREE ENERGY PREDICTED BY IDOCK:  -10.05 KCAL/MOL
REMARK 924 INTRA-LIGAND FREE ENERGY PREDICTED BY IDOCK:   -1.09 KCAL/MOL
REMARK 927      BINDING AFFINITY PREDICTED BY RF-SCORE:    0.00 PKD
ROOT
HETATM    1  C   UNL     1      -9.462   5.585  73.330  1.00  0.00    -0.145 C  
HETATM    2  O   UNL     1      -8.794   5.678  72.067  1.00  0.00    -0.137 OA 
ENDROOT
BRANCH   2   3
HETATM    3  C   UNL     1      -9.620   5.479  71.006  1.00  0.00    -0.170 C  
HETATM    4  O   UNL     1     -10.023   4.383  70.647  1.00  0.00    -0.212 OA 
BRANCH   3   5
HETATM    5  C   UNL     1      -9.963   6.771  70.352  1.00  0.00    -0.193 C  
HETATM    6  C   UNL     1     -11.146   7.388  70.596  1.00  0.00    -0.266 C  
HETATM    7  N   UNL     1     -11.404   8.620  70.022  1.00  0.00    -0.099 NA 
HETATM    8  C   UNL     1     -12.291   6.882  71.441  1.00  0.00    -0.421 C  
HETATM    9  C   UNL     1     -10.635   9.223  69.050  1.00  0.00    -0.205 C  
HETATM   10  C   UNL     1     -11.201  10.510  68.489  1.00  0.00    -0.332 C  
HETATM   11  C   UNL     1      -9.461   8.658  68.677  1.00  0.00    -0.144 C  
HETATM   12  C   UNL     1      -8.941   7.392  69.374  1.00  0.00    -0.139 C  
BRANCH  11  13
HETATM   13  C   UNL     1      -8.734   9.261  67.529  1.00  0.00    -0.115 C  
HETATM   14  O   UNL     1      -8.881   8.872  66.381  1.00  0.00    -0.138 OA 
BRANCH  13  15
HETATM   15  O   UNL     1      -7.986  10.325  67.903  1.00  0.00    -0.101 OA 
HETATM   16  C   UNL     1      -6.679  12.389  67.539  1.00  0.00    -0.146 C  
HETATM   17  C   UNL     1      -8.926  12.013  66.419  1.00  0.00    -0.161 C  
HETATM   18  C   UNL     1      -7.636  11.325  66.896  1.00  0.00    -0.148 C  
HETATM   19  C   UNL     1      -6.850  10.730  65.705  1.00  0.00    -0.054 C  
BRANCH  16  20
HETATM   20  N   UNL     1      -7.165  13.204  68.682  1.00  0.00    -0.105 NA 
HETATM   21  C   UNL     1      -6.104  14.083  69.182  1.00  0.00    -0.098 C  
BRANCH  20  22
HETATM   22  C   UNL     1      -8.284  14.076  68.264  1.00  0.00    -0.153 C  
BRANCH  22  23
HETATM   23  C   UNL     1      -9.582  13.941  69.064  1.00  0.00     0.128 C  
HETATM   24  C   UNL     1     -10.716  14.951  68.752  1.00  0.00    -0.252 C  
HETATM   25  C   UNL     1     -11.752  14.831  69.883  1.00  0.00    -0.352 A  
HETATM   26  C   UNL     1     -11.235  14.812  67.318  1.00  0.00    -0.351 A  
HETATM   27  C   UNL     1     -12.072  15.948  70.668  1.00  0.00    -0.367 A  
HETATM   28  C   UNL     1     -12.266  13.938  66.943  1.00  0.00    -0.415 A  
HETATM   29  C   UNL     1     -12.832  15.804  71.834  1.00  0.00    -0.514 A  
HETATM   30  C   UNL     1     -12.613  13.760  65.601  1.00  0.00    -0.551 A  
HETATM   31  C   UNL     1     -11.940  14.453  64.603  1.00  0.00    -0.475 A  
HETATM   32  C   UNL     1     -13.297  14.548  72.221  1.00  0.00    -0.495 A  
HETATM   33  C   UNL     1     -13.029  13.438  71.431  1.00  0.00    -0.412 A  
HETATM   34  C   UNL     1     -10.929  15.343  64.947  1.00  0.00    -0.453 A  
HETATM   35  C   UNL     1     -10.588  15.526  66.292  1.00  0.00    -0.310 A  
HETATM   36  C   UNL     1     -12.265  13.578  70.274  1.00  0.00    -0.417 A  
ENDBRANCH  22  23
ENDBRANCH  20  22
ENDBRANCH  16  20
ENDBRANCH  13  15
ENDBRANCH  11  13
BRANCH  12  37
HETATM   37  C   UNL     1      -8.439   6.369  68.352  1.00  0.00    -0.116 A  
HETATM   38  O   UNL     1     -10.991   4.782  65.497  1.00  0.00    -0.221 OA 
HETATM   39  C   UNL     1      -9.305   5.899  67.345  1.00  0.00    -0.111 A  
HETATM   40  O   UNL     1      -9.420   3.466  64.714  1.00  0.00    -0.145 OA 
HETATM   41  C   UNL     1      -6.710   4.883  67.508  1.00  0.00    -0.055 A  
HETATM   42  C   UNL     1      -8.886   4.889  66.469  1.00  0.00    -0.112 A  
HETATM   43  N   UNL     1      -9.833   4.343  65.487  1.00  0.00    -0.202 N  
HETATM   44  C   UNL     1      -7.587   4.382  66.545  1.00  0.00    -0.086 A  
HETATM   45  C   UNL     1      -7.134   5.865  68.408  1.00  0.00    -0.081 A  
ENDBRANCH  12  37
ENDBRANCH   3   5
ENDBRANCH   2   3
TORSDOF 8
ENDMDL
MODEL       31
REMARK 921   NORMALIZED FREE ENERGY PREDICTED BY IDOCK:   -6.28 KCAL/MOL
REMARK 922        TOTAL FREE ENERGY PREDICTED BY IDOCK:  -11.13 KCAL/MOL
REMARK 923 INTER-LIGAND FREE ENERGY PREDICTED BY IDOCK:   -9.46 KCAL/MOL
REMARK 924 INTRA-LIGAND FREE ENERGY PREDICTED BY IDOCK:   -1.66 KCAL/MOL
REMARK 927      BINDING AFFINITY PREDICTED BY RF-SCORE:    0.00 PKD
ROOT
HETATM    1  C   UNL     1      -7.815   3.425  71.943  1.00  0.00    -0.058 C  
HETATM    2  O   UNL     1      -7.451   4.730  71.480  1.00  0.00    -0.072 OA 
ENDROOT
BRANCH   2   3
HETATM    3  C   UNL     1      -8.330   5.697  71.856  1.00  0.00    -0.120 C  
HETATM    4  O   UNL     1      -9.330   5.493  72.526  1.00  0.00    -0.143 OA 
BRANCH   3   5
HETATM    5  C   UNL     1      -7.903   7.028  71.344  1.00  0.00    -0.095 C  
HETATM    6  C   UNL     1      -7.736   8.081  72.181  1.00  0.00    -0.106 C  
HETATM    7  N   UNL     1      -7.276   9.286  71.680  1.00  0.00    -0.325 NA 
HETATM    8  C   UNL     1      -8.015   8.131  73.665  1.00  0.00    -0.256 C  
HETATM    9  C   UNL     1      -7.136   9.591  70.343  1.00  0.00    -0.120 C  
HETATM   10  C   UNL     1      -6.739  11.021  70.049  1.00  0.00    -0.097 C  
HETATM   11  C   UNL     1      -7.345   8.631  69.410  1.00  0.00    -0.072 C  
HETATM   12  C   UNL     1      -7.663   7.187  69.826  1.00  0.00    -0.108 C  
BRANCH  11  13
HETATM   13  C   UNL     1      -7.324   9.036  67.980  1.00  0.00    -0.084 C  
HETATM   14  O   UNL     1      -6.882   8.314  67.099  1.00  0.00    -0.068 OA 
BRANCH  13  15
HETATM   15  O   UNL     1      -7.927  10.231  67.780  1.00  0.00    -0.101 OA 
HETATM   16  C   UNL     1      -9.453  11.815  66.657  1.00  0.00    -0.205 C  
HETATM   17  C   UNL     1     -10.178   9.458  67.263  1.00  0.00    -0.308 C  
HETATM   18  C   UNL     1      -8.996  10.319  66.788  1.00  0.00    -0.132 C  
HETATM   19  C   UNL     1      -8.538   9.903  65.371  1.00  0.00    -0.164 C  
BRANCH  16  20
HETATM   20  N   UNL     1     -10.023  12.504  67.844  1.00  0.00    -0.206 NA 
HETATM   21  C   UNL     1      -9.709  13.936  67.813  1.00  0.00    -0.225 C  
BRANCH  20  22
HETATM   22  C   UNL     1     -11.498  12.387  67.859  1.00  0.00    -0.328 C  
BRANCH  22  23
HETATM   23  C   UNL     1     -12.088  11.405  68.873  1.00  0.00    -0.285 C  
HETATM   24  C   UNL     1     -11.715  11.614  70.363  1.00  0.00    -0.292 C  
HETATM   25  C   UNL     1     -12.139  10.343  71.117  1.00  0.00    -0.487 A  
HETATM   26  C   UNL     1     -12.232  12.949  70.906  1.00  0.00    -0.290 A  
HETATM   27  C   UNL     1     -11.189   9.589  71.822  1.00  0.00    -0.263 A  
HETATM   28  C   UNL     1     -13.504  13.121  71.472  1.00  0.00    -0.215 A  
HETATM   29  C   UNL     1     -11.511   8.321  72.317  1.00  0.00    -0.452 A  
HETATM   30  C   UNL     1     -13.970  14.387  71.836  1.00  0.00    -0.574 A  
HETATM   31  C   UNL     1     -13.175  15.510  71.646  1.00  0.00    -0.575 A  
HETATM   32  C   UNL     1     -12.790   7.796  72.132  1.00  0.00    -0.190 A  
HETATM   33  C   UNL     1     -13.757   8.548  71.479  1.00  0.00    -0.360 A  
HETATM   34  C   UNL     1     -11.901  15.367  71.108  1.00  0.00    -0.422 A  
HETATM   35  C   UNL     1     -11.433  14.098  70.752  1.00  0.00    -0.005 A  
HETATM   36  C   UNL     1     -13.435   9.808  70.977  1.00  0.00    -0.243 A  
ENDBRANCH  22  23
ENDBRANCH  20  22
ENDBRANCH  16  20
ENDBRANCH  13  15
ENDBRANCH  11  13
BRANCH  12  37
HETATM   37  C   UNL     1      -8.827   6.623  69.006  1.00  0.00    -0.128 A  
HETATM   38  O   UNL     1      -8.139   4.481  65.525  1.00  0.00    -0.106 OA 
HETATM   39  C   UNL     1      -8.568   5.835  67.867  1.00  0.00    -0.101 A  
HETATM   40  O   UNL     1     -10.288   4.274  65.136  1.00  0.00    -0.241 OA 
HETATM   41  C   UNL     1     -11.208   6.426  68.555  1.00  0.00    -0.321 A  
HETATM   42  C   UNL     1      -9.622   5.401  67.055  1.00  0.00    -0.139 A  
HETATM   43  N   UNL     1      -9.328   4.662  65.819  1.00  0.00    -0.149 N  
HETATM   44  C   UNL     1     -10.945   5.690  67.398  1.00  0.00    -0.056 A  
HETATM   45  C   UNL     1     -10.157   6.893  69.350  1.00  0.00    -0.176 A  
ENDBRANCH  12  37
ENDBRANCH   3   5
ENDBRANCH   2   3
TORSDOF 8
ENDMDL
MODEL       32
REMARK 921   NORMALIZED FREE ENERGY PREDICTED BY IDOCK:   -6.22 KCAL/MOL
REMARK 922        TOTAL FREE ENERGY PREDICTED BY IDOCK:  -11.04 KCAL/MOL
REMARK 923 INTER-LIGAND FREE ENERGY PREDICTED BY IDOCK:   -9.21 KCAL/MOL
REMARK 924 INTRA-LIGAND FREE ENERGY PREDICTED BY IDOCK:   -1.83 KCAL/MOL
REMARK 927      BINDING AFFINITY PREDICTED BY RF-SCORE:    0.00 PKD
ROOT
HETATM    1  C   UNL     1      -6.900   1.792  71.956  1.00  0.00    -0.018 C  
HETATM    2  O   UNL     1      -7.973   2.031  71.039  1.00  0.00    -0.045 OA 
ENDROOT
BRANCH   2   3
HETATM    3  C   UNL     1      -9.027   2.680  71.604  1.00  0.00    -0.084 C  
HETATM    4  O   UNL     1     -10.160   2.230  71.659  1.00  0.00    -0.151 OA 
BRANCH   3   5
HETATM    5  C   UNL     1      -8.607   4.002  72.143  1.00  0.00    -0.114 C  
HETATM    6  C   UNL     1      -8.746   4.300  73.459  1.00  0.00    -0.091 C  
HETATM    7  N   UNL     1      -8.285   5.513  73.937  1.00  0.00    -0.110 NA 
HETATM    8  C   UNL     1      -9.387   3.451  74.532  1.00  0.00    -0.117 C  
HETATM    9  C   UNL     1      -7.848   6.563  73.157  1.00  0.00    -0.100 C  
HETATM   10  C   UNL     1      -7.519   7.832  73.914  1.00  0.00    -0.171 C  
HETATM   11  C   UNL     1      -7.733   6.400  71.817  1.00  0.00    -0.096 C  
HETATM   12  C   UNL     1      -8.014   5.039  71.163  1.00  0.00    -0.101 C  
BRANCH  11  13
HETATM   13  C   UNL     1      -7.395   7.595  71.000  1.00  0.00    -0.070 C  
HETATM   14  O   UNL     1      -6.341   7.698  70.391  1.00  0.00    -0.037 OA 
BRANCH  13  15
HETATM   15  O   UNL     1      -8.418   8.480  70.945  1.00  0.00    -0.126 OA 
HETATM   16  C   UNL     1      -9.654  10.428  70.065  1.00  0.00     0.193 C  
HETATM   17  C   UNL     1      -8.638   8.682  68.527  1.00  0.00    -0.135 C  
HETATM   18  C   UNL     1      -8.450   9.446  69.849  1.00  0.00    -0.177 C  
HETATM   19  C   UNL     1      -7.191  10.343  69.799  1.00  0.00    -0.155 C  
BRANCH  16  20
HETATM   20  N   UNL     1     -11.037   9.884  70.089  1.00  0.00    -0.276 NA 
HETATM   21  C   UNL     1     -11.573   9.889  71.453  1.00  0.00    -0.352 C  
BRANCH  20  22
HETATM   22  C   UNL     1     -11.942  10.719  69.269  1.00  0.00    -0.263 C  
BRANCH  22  23
HETATM   23  C   UNL     1     -11.426  11.114  67.884  1.00  0.00    -0.359 C  
HETATM   24  C   UNL     1     -11.857  12.500  67.335  1.00  0.00    -0.381 C  
HETATM   25  C   UNL     1     -11.504  12.522  65.838  1.00  0.00    -0.417 A  
HETATM   26  C   UNL     1     -11.322  13.651  68.192  1.00  0.00    -0.321 A  
HETATM   27  C   UNL     1     -12.507  12.731  64.880  1.00  0.00    -0.563 A  
HETATM   28  C   UNL     1     -10.071  14.254  67.995  1.00  0.00    -0.227 A  
HETATM   29  C   UNL     1     -12.245  12.529  63.520  1.00  0.00    -0.652 A  
HETATM   30  C   UNL     1      -9.582  15.215  68.884  1.00  0.00    -0.223 A  
HETATM   31  C   UNL     1     -10.333  15.598  69.988  1.00  0.00    -0.309 A  
HETATM   32  C   UNL     1     -10.977  12.134  63.098  1.00  0.00    -0.247 A  
HETATM   33  C   UNL     1      -9.959  11.968  64.029  1.00  0.00    -0.317 A  
HETATM   34  C   UNL     1     -11.587  15.034  70.196  1.00  0.00    -0.326 A  
HETATM   35  C   UNL     1     -12.078  14.077  69.300  1.00  0.00    -0.380 A  
HETATM   36  C   UNL     1     -10.221  12.160  65.384  1.00  0.00    -0.299 A  
ENDBRANCH  22  23
ENDBRANCH  20  22
ENDBRANCH  16  20
ENDBRANCH  13  15
ENDBRANCH  11  13
BRANCH  12  37
HETATM   37  C   UNL     1      -8.884   5.200  69.913  1.00  0.00    -0.127 A  
HETATM   38  O   UNL     1      -7.329   4.515  66.133  1.00  0.00    -0.075 OA 
HETATM   39  C   UNL     1      -8.355   4.891  68.644  1.00  0.00    -0.083 A  
HETATM   40  O   UNL     1      -9.212   5.094  65.169  1.00  0.00    -0.140 OA 
HETATM   41  C   UNL     1     -10.959   5.877  68.843  1.00  0.00    -0.337 A  
HETATM   42  C   UNL     1      -9.109   5.130  67.489  1.00  0.00    -0.114 A  
HETATM   43  N   UNL     1      -8.507   4.892  66.169  1.00  0.00    -0.112 N  
HETATM   44  C   UNL     1     -10.414   5.620  67.584  1.00  0.00    -0.284 A  
HETATM   45  C   UNL     1     -10.199   5.674  69.998  1.00  0.00    -0.321 A  
ENDBRANCH  12  37
ENDBRANCH   3   5
ENDBRANCH   2   3
TORSDOF 8
ENDMDL
MODEL       33
REMARK 921   NORMALIZED FREE ENERGY PREDICTED BY IDOCK:   -6.22 KCAL/MOL
REMARK 922        TOTAL FREE ENERGY PREDICTED BY IDOCK:  -11.03 KCAL/MOL
REMARK 923 INTER-LIGAND FREE ENERGY PREDICTED BY IDOCK:  -11.50 KCAL/MOL
REMARK 924 INTRA-LIGAND FREE ENERGY PREDICTED BY IDOCK:    0.47 KCAL/MOL
REMARK 927      BINDING AFFINITY PREDICTED BY RF-SCORE:    0.00 PKD
ROOT
HETATM    1  C   UNL     1     -12.115  14.117  69.818  1.00  0.00    -0.354 C  
HETATM    2  O   UNL     1     -11.022  13.356  69.292  1.00  0.00    -0.210 OA 
ENDROOT
BRANCH   2   3
HETATM    3  C   UNL     1      -9.990  14.127  68.859  1.00  0.00    -0.127 C  
HETATM    4  O   UNL     1      -9.953  15.344  68.958  1.00  0.00    -0.206 OA 
BRANCH   3   5
HETATM    5  C   UNL     1      -8.919  13.289  68.255  1.00  0.00    -0.176 C  
HETATM    6  C   UNL     1      -7.611  13.516  68.532  1.00  0.00    -0.129 C  
HETATM    7  N   UNL     1      -6.646  12.675  68.005  1.00  0.00    -0.082 NA 
HETATM    8  C   UNL     1      -7.026  14.631  69.367  1.00  0.00    -0.163 C  
HETATM    9  C   UNL     1      -6.868  11.707  67.049  1.00  0.00    -0.144 C  
HETATM   10  C   UNL     1      -5.625  11.009  66.541  1.00  0.00    -0.113 C  
HETATM   11  C   UNL     1      -8.134  11.440  66.646  1.00  0.00    -0.155 C  
HETATM   12  C   UNL     1      -9.331  12.152  67.293  1.00  0.00    -0.183 C  
BRANCH  11  13
HETATM   13  C   UNL     1      -8.318  10.493  65.516  1.00  0.00    -0.170 C  
HETATM   14  O   UNL     1      -8.037  10.783  64.364  1.00  0.00    -0.019 OA 
BRANCH  13  15
HETATM   15  O   UNL     1      -8.734   9.275  65.935  1.00  0.00    -0.139 OA 
HETATM   16  C   UNL     1      -8.836   6.807  65.912  1.00  0.00    -0.110 C  
HETATM   17  C   UNL     1      -6.631   8.057  65.768  1.00  0.00    -0.045 C  
HETATM   18  C   UNL     1      -8.112   8.085  65.358  1.00  0.00    -0.135 C  
HETATM   19  C   UNL     1      -8.266   8.011  63.821  1.00  0.00    -0.039 C  
BRANCH  16  20
HETATM   20  N   UNL     1      -8.811   6.537  67.373  1.00  0.00    -0.116 NA 
HETATM   21  C   UNL     1      -8.407   7.735  68.115  1.00  0.00    -0.124 C  
BRANCH  20  22
HETATM   22  C   UNL     1     -10.157   6.164  67.859  1.00  0.00    -0.153 C  
BRANCH  22  23
HETATM   23  C   UNL     1     -10.754   7.058  68.948  1.00  0.00    -0.227 C  
HETATM   24  C   UNL     1     -11.225   6.368  70.254  1.00  0.00    -0.445 C  
HETATM   25  C   UNL     1     -12.070   7.393  71.028  1.00  0.00    -0.330 A  
HETATM   26  C   UNL     1     -10.066   5.711  71.010  1.00  0.00    -0.266 A  
HETATM   27  C   UNL     1     -13.405   7.108  71.350  1.00  0.00    -0.380 A  
HETATM   28  C   UNL     1      -9.275   6.378  71.958  1.00  0.00    -0.148 A  
HETATM   29  C   UNL     1     -14.247   8.110  71.847  1.00  0.00    -0.530 A  
HETATM   30  C   UNL     1      -8.153   5.767  72.524  1.00  0.00    -0.103 A  
HETATM   31  C   UNL     1      -7.797   4.475  72.159  1.00  0.00    -0.095 A  
HETATM   32  C   UNL     1     -13.764   9.402  72.044  1.00  0.00    -0.466 A  
HETATM   33  C   UNL     1     -12.432   9.691  71.775  1.00  0.00    -0.487 A  
HETATM   34  C   UNL     1      -8.576   3.782  71.240  1.00  0.00    -0.111 A  
HETATM   35  C   UNL     1      -9.703   4.392  70.679  1.00  0.00    -0.283 A  
HETATM   36  C   UNL     1     -11.595   8.697  71.272  1.00  0.00    -0.340 A  
ENDBRANCH  22  23
ENDBRANCH  20  22
ENDBRANCH  16  20
ENDBRANCH  13  15
ENDBRANCH  11  13
BRANCH  12  37
HETATM   37  C   UNL     1     -10.320  12.641  66.230  1.00  0.00    -0.269 A  
HETATM   38  O   UNL     1     -10.420  16.622  65.084  1.00  0.00    -0.647 OA 
HETATM   39  C   UNL     1     -10.286  13.983  65.803  1.00  0.00    -0.330 A  
HETATM   40  O   UNL     1     -12.113  16.270  63.733  1.00  0.00    -0.959 OA 
HETATM   41  C   UNL     1     -12.219  12.259  64.762  1.00  0.00    -0.438 A  
HETATM   42  C   UNL     1     -11.250  14.462  64.907  1.00  0.00    -0.389 A  
HETATM   43  N   UNL     1     -11.259  15.886  64.546  1.00  0.00    -0.410 N  
HETATM   44  C   UNL     1     -12.216  13.601  64.381  1.00  0.00    -0.436 A  
HETATM   45  C   UNL     1     -11.281  11.783  65.683  1.00  0.00    -0.324 A  
ENDBRANCH  12  37
ENDBRANCH   3   5
ENDBRANCH   2   3
TORSDOF 8
ENDMDL
MODEL       34
REMARK 921   NORMALIZED FREE ENERGY PREDICTED BY IDOCK:   -6.17 KCAL/MOL
REMARK 922        TOTAL FREE ENERGY PREDICTED BY IDOCK:  -10.97 KCAL/MOL
REMARK 923 INTER-LIGAND FREE ENERGY PREDICTED BY IDOCK:  -10.15 KCAL/MOL
REMARK 924 INTRA-LIGAND FREE ENERGY PREDICTED BY IDOCK:   -0.82 KCAL/MOL
REMARK 927      BINDING AFFINITY PREDICTED BY RF-SCORE:    0.00 PKD
ROOT
HETATM    1  C   UNL     1      -8.130   4.060  74.333  1.00  0.00    -0.090 C  
HETATM    2  O   UNL     1      -8.511   4.930  73.262  1.00  0.00    -0.104 OA 
ENDROOT
BRANCH   2   3
HETATM    3  C   UNL     1      -9.220   4.303  72.286  1.00  0.00    -0.118 C  
HETATM    4  O   UNL     1     -10.129   3.515  72.497  1.00  0.00    -0.154 OA 
BRANCH   3   5
HETATM    5  C   UNL     1      -8.740   4.710  70.938  1.00  0.00    -0.137 C  
HETATM    6  C   UNL     1      -7.495   4.386  70.510  1.00  0.00    -0.049 C  
HETATM    7  N   UNL     1      -7.104   4.724  69.226  1.00  0.00    -0.051 NA 
HETATM    8  C   UNL     1      -6.407   3.685  71.289  1.00  0.00    -0.018 C  
HETATM    9  C   UNL     1      -7.809   5.543  68.369  1.00  0.00    -0.088 C  
HETATM   10  C   UNL     1      -7.106   5.866  67.068  1.00  0.00    -0.070 C  
HETATM   11  C   UNL     1      -9.040   5.983  68.722  1.00  0.00    -0.124 C  
HETATM   12  C   UNL     1      -9.693   5.523  70.034  1.00  0.00    -0.238 C  
BRANCH  11  13
HETATM   13  C   UNL     1      -9.703   6.975  67.836  1.00  0.00    -0.124 C  
HETATM   14  O   UNL     1     -10.668   6.694  67.141  1.00  0.00    -0.282 OA 
BRANCH  13  15
HETATM   15  O   UNL     1      -9.173   8.213  67.970  1.00  0.00    -0.133 OA 
HETATM   16  C   UNL     1      -8.563  10.487  67.222  1.00  0.00    -0.122 C  
HETATM   17  C   UNL     1     -10.859   9.499  66.771  1.00  0.00    -0.031 C  
HETATM   18  C   UNL     1      -9.360   9.177  66.887  1.00  0.00    -0.156 C  
HETATM   19  C   UNL     1      -8.790   8.683  65.537  1.00  0.00    -0.220 C  
BRANCH  16  20
HETATM   20  N   UNL     1      -8.921  11.260  68.440  1.00  0.00    -0.162 NA 
HETATM   21  C   UNL     1      -7.842  12.183  68.803  1.00  0.00    -0.017 C  
BRANCH  20  22
HETATM   22  C   UNL     1     -10.128  12.081  68.203  1.00  0.00    -0.200 C  
BRANCH  22  23
HETATM   23  C   UNL     1      -9.904  13.588  68.063  1.00  0.00    -0.238 C  
HETATM   24  C   UNL     1      -9.364  14.102  66.703  1.00  0.00    -0.299 C  
HETATM   25  C   UNL     1      -8.914  15.557  66.917  1.00  0.00    -0.272 A  
HETATM   26  C   UNL     1     -10.344  13.840  65.557  1.00  0.00    -0.333 A  
HETATM   27  C   UNL     1      -7.585  15.929  66.668  1.00  0.00    -0.150 A  
HETATM   28  C   UNL     1     -11.368  14.725  65.187  1.00  0.00    -0.379 A  
HETATM   29  C   UNL     1      -7.109  17.182  67.071  1.00  0.00    -0.225 A  
HETATM   30  C   UNL     1     -12.311  14.378  64.216  1.00  0.00    -0.402 A  
HETATM   31  C   UNL     1     -12.251  13.139  63.590  1.00  0.00    -0.553 A  
HETATM   32  C   UNL     1      -7.956  18.085  67.710  1.00  0.00    -0.235 A  
HETATM   33  C   UNL     1      -9.288  17.752  67.922  1.00  0.00    -0.266 A  
HETATM   34  C   UNL     1     -11.234  12.251  63.919  1.00  0.00    -0.488 A  
HETATM   35  C   UNL     1     -10.286  12.604  64.886  1.00  0.00    -0.330 A  
HETATM   36  C   UNL     1      -9.761  16.502  67.530  1.00  0.00    -0.242 A  
ENDBRANCH  22  23
ENDBRANCH  20  22
ENDBRANCH  16  20
ENDBRANCH  13  15
ENDBRANCH  11  13
BRANCH  12  37
HETATM   37  C   UNL     1     -10.313   6.707  70.783  1.00  0.00    -0.232 A  
HETATM   38  O   UNL     1     -14.407   6.937  71.388  1.00  0.00    -0.260 OA 
HETATM   39  C   UNL     1     -11.698   6.727  71.042  1.00  0.00    -0.406 A  
HETATM   40  O   UNL     1     -14.231   8.895  72.361  1.00  0.00    -0.466 OA 
HETATM   41  C   UNL     1     -10.122   8.893  71.828  1.00  0.00    -0.407 A  
HETATM   42  C   UNL     1     -12.288   7.850  71.636  1.00  0.00    -0.315 A  
HETATM   43  N   UNL     1     -13.746   7.895  71.811  1.00  0.00    -0.358 N  
HETATM   44  C   UNL     1     -11.502   8.934  72.035  1.00  0.00    -0.431 A  
HETATM   45  C   UNL     1      -9.532   7.791  71.203  1.00  0.00    -0.169 A  
ENDBRANCH  12  37
ENDBRANCH   3   5
ENDBRANCH   2   3
TORSDOF 8
ENDMDL
MODEL       35
REMARK 921   NORMALIZED FREE ENERGY PREDICTED BY IDOCK:   -6.16 KCAL/MOL
REMARK 922        TOTAL FREE ENERGY PREDICTED BY IDOCK:  -10.95 KCAL/MOL
REMARK 923 INTER-LIGAND FREE ENERGY PREDICTED BY IDOCK:   -8.92 KCAL/MOL
REMARK 924 INTRA-LIGAND FREE ENERGY PREDICTED BY IDOCK:   -2.03 KCAL/MOL
REMARK 927      BINDING AFFINITY PREDICTED BY RF-SCORE:    0.00 PKD
ROOT
HETATM    1  C   UNL     1      -7.308   3.728  67.677  1.00  0.00    -0.067 C  
HETATM    2  O   UNL     1      -6.954   4.934  66.992  1.00  0.00    -0.058 OA 
ENDROOT
BRANCH   2   3
HETATM    3  C   UNL     1      -8.028   5.706  66.673  1.00  0.00    -0.101 C  
HETATM    4  O   UNL     1      -8.663   5.604  65.635  1.00  0.00    -0.146 OA 
BRANCH   3   5
HETATM    5  C   UNL     1      -8.319   6.681  67.759  1.00  0.00    -0.122 C  
HETATM    6  C   UNL     1      -9.383   6.516  68.583  1.00  0.00    -0.125 C  
HETATM    7  N   UNL     1      -9.586   7.406  69.623  1.00  0.00    -0.156 NA 
HETATM    8  C   UNL     1     -10.448   5.446  68.509  1.00  0.00    -0.192 C  
HETATM    9  C   UNL     1      -8.899   8.587  69.806  1.00  0.00    -0.137 C  
HETATM   10  C   UNL     1      -9.398   9.450  70.945  1.00  0.00    -0.263 C  
HETATM   11  C   UNL     1      -7.856   8.889  68.996  1.00  0.00    -0.091 C  
HETATM   12  C   UNL     1      -7.382   7.898  67.923  1.00  0.00    -0.092 C  
BRANCH  11  13
HETATM   13  C   UNL     1      -7.235  10.232  69.136  1.00  0.00    -0.083 C  
HETATM   14  O   UNL     1      -6.108  10.392  69.578  1.00  0.00    -0.041 OA 
BRANCH  13  15
HETATM   15  O   UNL     1      -8.023  11.212  68.635  1.00  0.00    -0.130 OA 
HETATM   16  C   UNL     1      -8.520  13.474  67.776  1.00  0.00    -0.184 C  
HETATM   17  C   UNL     1      -6.483  12.168  67.008  1.00  0.00    -0.088 C  
HETATM   18  C   UNL     1      -7.400  12.463  68.206  1.00  0.00    -0.113 C  
HETATM   19  C   UNL     1      -6.623  13.168  69.342  1.00  0.00    -0.065 C  
BRANCH  16  20
HETATM   20  N   UNL     1      -9.413  13.125  66.641  1.00  0.00    -0.257 NA 
HETATM   21  C   UNL     1     -10.504  12.253  67.088  1.00  0.00    -0.219 C  
BRANCH  20  22
HETATM   22  C   UNL     1     -10.039  14.340  66.075  1.00  0.00    -0.318 C  
BRANCH  22  23
HETATM   23  C   UNL     1      -9.535  15.677  66.622  1.00  0.00    -0.282 C  
HETATM   24  C   UNL     1     -10.549  16.552  67.404  1.00  0.00    -0.300 C  
HETATM   25  C   UNL     1      -9.922  17.948  67.552  1.00  0.00    -0.322 A  
HETATM   26  C   UNL     1     -11.032  15.868  68.687  1.00  0.00    -0.320 A  
HETATM   27  C   UNL     1     -10.579  19.075  67.035  1.00  0.00    -0.543 A  
HETATM   28  C   UNL     1     -10.380  15.981  69.924  1.00  0.00    -0.249 A  
HETATM   29  C   UNL     1      -9.922  20.308  66.959  1.00  0.00    -0.601 A  
HETATM   30  C   UNL     1     -10.792  15.235  71.032  1.00  0.00    -0.183 A  
HETATM   31  C   UNL     1     -11.868  14.362  70.930  1.00  0.00    -0.346 A  
HETATM   32  C   UNL     1      -8.610  20.438  67.413  1.00  0.00    -0.403 A  
HETATM   33  C   UNL     1      -7.961  19.344  67.971  1.00  0.00    -0.340 A  
HETATM   34  C   UNL     1     -12.548  14.247  69.722  1.00  0.00    -0.152 A  
HETATM   35  C   UNL     1     -12.138  15.000  68.617  1.00  0.00    -0.198 A  
HETATM   36  C   UNL     1      -8.610  18.113  68.039  1.00  0.00    -0.272 A  
ENDBRANCH  22  23
ENDBRANCH  20  22
ENDBRANCH  16  20
ENDBRANCH  13  15
ENDBRANCH  11  13
BRANCH  12  37
HETATM   37  C   UNL     1      -7.138   8.609  66.588  1.00  0.00    -0.080 A  
HETATM   38  O   UNL     1     -10.282  10.257  64.448  1.00  0.00    -0.298 OA 
HETATM   39  C   UNL     1      -8.211   9.226  65.915  1.00  0.00    -0.116 A  
HETATM   40  O   UNL     1      -8.953  10.854  62.808  1.00  0.00    -0.250 OA 
HETATM   41  C   UNL     1      -5.672   9.239  64.754  1.00  0.00    -0.063 A  
HETATM   42  C   UNL     1      -8.018   9.790  64.648  1.00  0.00    -0.139 A  
HETATM   43  N   UNL     1      -9.166  10.343  63.917  1.00  0.00    -0.242 N  
HETATM   44  C   UNL     1      -6.748   9.802  64.066  1.00  0.00    -0.120 A  
HETATM   45  C   UNL     1      -5.867   8.643  66.004  1.00  0.00    -0.047 A  
ENDBRANCH  12  37
ENDBRANCH   3   5
ENDBRANCH   2   3
TORSDOF 8
ENDMDL
MODEL       36
REMARK 921   NORMALIZED FREE ENERGY PREDICTED BY IDOCK:   -6.16 KCAL/MOL
REMARK 922        TOTAL FREE ENERGY PREDICTED BY IDOCK:  -10.95 KCAL/MOL
REMARK 923 INTER-LIGAND FREE ENERGY PREDICTED BY IDOCK:   -9.97 KCAL/MOL
REMARK 924 INTRA-LIGAND FREE ENERGY PREDICTED BY IDOCK:   -0.98 KCAL/MOL
REMARK 927      BINDING AFFINITY PREDICTED BY RF-SCORE:    0.00 PKD
ROOT
HETATM    1  C   UNL     1     -10.052   6.390  74.400  1.00  0.00    -0.348 C  
HETATM    2  O   UNL     1      -8.877   7.203  74.305  1.00  0.00    -0.187 OA 
ENDROOT
BRANCH   2   3
HETATM    3  C   UNL     1      -7.858   6.599  73.638  1.00  0.00    -0.092 C  
HETATM    4  O   UNL     1      -7.453   5.472  73.879  1.00  0.00    -0.089 OA 
BRANCH   3   5
HETATM    5  C   UNL     1      -7.314   7.493  72.580  1.00  0.00    -0.081 C  
HETATM    6  C   UNL     1      -6.502   8.533  72.891  1.00  0.00    -0.076 C  
HETATM    7  N   UNL     1      -5.962   9.305  71.877  1.00  0.00    -0.186 NA 
HETATM    8  C   UNL     1      -6.097   9.005  74.268  1.00  0.00    -0.067 C  
HETATM    9  C   UNL     1      -6.318   9.236  70.547  1.00  0.00    -0.062 C  
HETATM   10  C   UNL     1      -5.677  10.277  69.656  1.00  0.00    -0.039 C  
HETATM   11  C   UNL     1      -7.179   8.275  70.132  1.00  0.00    -0.055 C  
HETATM   12  C   UNL     1      -7.705   7.215  71.111  1.00  0.00    -0.090 C  
BRANCH  11  13
HETATM   13  C   UNL     1      -7.646   8.323  68.722  1.00  0.00    -0.101 C  
HETATM   14  O   UNL     1      -7.815   7.317  68.051  1.00  0.00    -0.114 OA 
BRANCH  13  15
HETATM   15  O   UNL     1      -7.941   9.584  68.326  1.00  0.00    -0.093 OA 
HETATM   16  C   UNL     1      -9.175  11.308  67.061  1.00  0.00    -0.165 C  
HETATM   17  C   UNL     1     -10.371   9.426  68.275  1.00  0.00    -0.251 C  
HETATM   18  C   UNL     1      -9.110   9.796  67.477  1.00  0.00    -0.130 C  
HETATM   19  C   UNL     1      -9.040   9.007  66.149  1.00  0.00    -0.246 C  
BRANCH  16  20
HETATM   20  N   UNL     1      -9.321  12.343  68.116  1.00  0.00    -0.206 NA 
HETATM   21  C   UNL     1      -8.018  12.918  68.463  1.00  0.00    -0.095 C  
BRANCH  20  22
HETATM   22  C   UNL     1     -10.170  13.458  67.642  1.00  0.00    -0.228 C  
BRANCH  22  23
HETATM   23  C   UNL     1     -11.130  14.061  68.670  1.00  0.00    -0.286 C  
HETATM   24  C   UNL     1     -10.568  15.159  69.608  1.00  0.00    -0.274 C  
HETATM   25  C   UNL     1     -11.593  15.357  70.737  1.00  0.00    -0.381 A  
HETATM   26  C   UNL     1     -10.133  16.409  68.838  1.00  0.00    -0.255 A  
HETATM   27  C   UNL     1     -11.217  15.158  72.074  1.00  0.00    -0.232 A  
HETATM   28  C   UNL     1     -10.991  17.477  68.534  1.00  0.00     0.001 A  
HETATM   29  C   UNL     1     -12.184  15.111  73.085  1.00  0.00    -0.521 A  
HETATM   30  C   UNL     1     -10.574  18.534  67.721  1.00  0.00    -0.422 A  
HETATM   31  C   UNL     1      -9.289  18.550  67.194  1.00  0.00    -0.280 A  
HETATM   32  C   UNL     1     -13.533  15.280  72.778  1.00  0.00    -0.619 A  
HETATM   33  C   UNL     1     -13.918  15.525  71.467  1.00  0.00    -0.526 A  
HETATM   34  C   UNL     1      -8.409  17.518  67.497  1.00  0.00    -0.220 A  
HETATM   35  C   UNL     1      -8.826  16.464  68.318  1.00  0.00    -0.202 A  
HETATM   36  C   UNL     1     -12.958  15.563  70.457  1.00  0.00    -0.339 A  
ENDBRANCH  22  23
ENDBRANCH  20  22
ENDBRANCH  16  20
ENDBRANCH  13  15
ENDBRANCH  11  13
BRANCH  12  37
HETATM   37  C   UNL     1      -9.216   7.023  70.953  1.00  0.00    -0.156 A  
HETATM   38  O   UNL     1     -11.855  10.102  71.811  1.00  0.00    -0.281 OA 
HETATM   39  C   UNL     1     -10.089   8.105  71.179  1.00  0.00    -0.222 A  
HETATM   40  O   UNL     1     -13.594   8.830  71.398  1.00  0.00    -0.327 OA 
HETATM   41  C   UNL     1     -11.143   5.604  70.530  1.00  0.00    -0.199 A  
HETATM   42  C   UNL     1     -11.475   7.914  71.136  1.00  0.00    -0.273 A  
HETATM   43  N   UNL     1     -12.372   9.030  71.469  1.00  0.00    -0.315 N  
HETATM   44  C   UNL     1     -12.007   6.665  70.807  1.00  0.00    -0.412 A  
HETATM   45  C   UNL     1      -9.759   5.780  70.608  1.00  0.00    -0.224 A  
ENDBRANCH  12  37
ENDBRANCH   3   5
ENDBRANCH   2   3
TORSDOF 8
ENDMDL
MODEL       37
REMARK 921   NORMALIZED FREE ENERGY PREDICTED BY IDOCK:   -6.14 KCAL/MOL
REMARK 922        TOTAL FREE ENERGY PREDICTED BY IDOCK:  -10.93 KCAL/MOL
REMARK 923 INTER-LIGAND FREE ENERGY PREDICTED BY IDOCK:   -9.11 KCAL/MOL
REMARK 924 INTRA-LIGAND FREE ENERGY PREDICTED BY IDOCK:   -1.82 KCAL/MOL
REMARK 927      BINDING AFFINITY PREDICTED BY RF-SCORE:    0.00 PKD
ROOT
HETATM    1  C   UNL     1      -6.221  19.638  67.039  1.00  0.00    -0.187 C  
HETATM    2  O   UNL     1      -7.223  18.905  66.326  1.00  0.00    -0.227 OA 
ENDROOT
BRANCH   2   3
HETATM    3  C   UNL     1      -8.279  18.542  67.103  1.00  0.00    -0.252 C  
HETATM    4  O   UNL     1      -8.396  18.836  68.282  1.00  0.00    -0.307 OA 
BRANCH   3   5
HETATM    5  C   UNL     1      -9.262  17.745  66.320  1.00  0.00    -0.203 C  
HETATM    6  C   UNL     1     -10.406  18.305  65.854  1.00  0.00    -0.284 C  
HETATM    7  N   UNL     1     -11.266  17.553  65.075  1.00  0.00    -0.499 NA 
HETATM    8  C   UNL     1     -10.908  19.709  66.095  1.00  0.00    -0.420 C  
HETATM    9  C   UNL     1     -11.169  16.193  64.865  1.00  0.00    -0.285 C  
HETATM   10  C   UNL     1     -12.309  15.581  64.081  1.00  0.00     0.049 C  
HETATM   11  C   UNL     1     -10.098  15.516  65.346  1.00  0.00    -0.387 C  
HETATM   12  C   UNL     1      -8.955  16.254  66.057  1.00  0.00    -0.325 C  
BRANCH  11  13
HETATM   13  C   UNL     1     -10.102  14.034  65.222  1.00  0.00    -0.318 C  
HETATM   14  O   UNL     1      -9.593  13.453  64.276  1.00  0.00     0.122 OA 
BRANCH  13  15
HETATM   15  O   UNL     1     -10.643  13.434  66.308  1.00  0.00    -0.284 OA 
HETATM   16  C   UNL     1     -11.494  11.528  67.628  1.00  0.00    -0.285 C  
HETATM   17  C   UNL     1      -9.310  11.395  66.339  1.00  0.00    -0.219 C  
HETATM   18  C   UNL     1     -10.734  11.976  66.330  1.00  0.00    -0.259 C  
HETATM   19  C   UNL     1     -11.560  11.406  65.153  1.00  0.00     0.092 C  
BRANCH  16  20
HETATM   20  N   UNL     1     -10.915  11.859  68.956  1.00  0.00    -0.228 NA 
HETATM   21  C   UNL     1     -11.803  12.759  69.699  1.00  0.00    -0.317 C  
BRANCH  20  22
HETATM   22  C   UNL     1     -10.755  10.639  69.776  1.00  0.00    -0.230 C  
BRANCH  22  23
HETATM   23  C   UNL     1     -10.720   9.312  69.015  1.00  0.00    -0.189 C  
HETATM   24  C   UNL     1      -9.689   8.252  69.482  1.00  0.00    -0.174 C  
HETATM   25  C   UNL     1      -9.617   7.178  68.384  1.00  0.00    -0.137 A  
HETATM   26  C   UNL     1      -9.965   7.769  70.909  1.00  0.00    -0.190 A  
HETATM   27  C   UNL     1      -8.398   6.904  67.745  1.00  0.00    -0.120 A  
HETATM   28  C   UNL     1     -10.815   6.698  71.220  1.00  0.00    -0.279 A  
HETATM   29  C   UNL     1      -8.361   6.102  66.599  1.00  0.00    -0.111 A  
HETATM   30  C   UNL     1     -11.128   6.380  72.544  1.00  0.00    -0.298 A  
HETATM   31  C   UNL     1     -10.596   7.125  73.589  1.00  0.00    -0.375 A  
HETATM   32  C   UNL     1      -9.534   5.549  66.087  1.00  0.00    -0.166 A  
HETATM   33  C   UNL     1     -10.742   5.770  66.735  1.00  0.00    -0.369 A  
HETATM   34  C   UNL     1      -9.732   8.178  73.313  1.00  0.00    -0.226 A  
HETATM   35  C   UNL     1      -9.414   8.490  71.986  1.00  0.00    -0.364 A  
HETATM   36  C   UNL     1     -10.783   6.577  67.871  1.00  0.00    -0.357 A  
ENDBRANCH  22  23
ENDBRANCH  20  22
ENDBRANCH  16  20
ENDBRANCH  13  15
ENDBRANCH  11  13
BRANCH  12  37
HETATM   37  C   UNL     1      -8.545  15.525  67.340  1.00  0.00    -0.196 A  
HETATM   38  O   UNL     1      -5.204  13.072  67.421  1.00  0.00    -0.296 OA 
HETATM   39  C   UNL     1      -7.365  14.755  67.364  1.00  0.00    -0.214 A  
HETATM   40  O   UNL     1      -5.579  12.501  69.505  1.00  0.00    -0.077 OA 
HETATM   41  C   UNL     1      -8.981  14.863  69.638  1.00  0.00     0.104 A  
HETATM   42  C   UNL     1      -7.035  14.005  68.499  1.00  0.00    -0.103 A  
HETATM   43  N   UNL     1      -5.853  13.133  68.474  1.00  0.00    -0.076 N  
HETATM   44  C   UNL     1      -7.839  14.059  69.641  1.00  0.00     0.555 A  
HETATM   45  C   UNL     1      -9.334  15.586  68.495  1.00  0.00    -0.197 A  
ENDBRANCH  12  37
ENDBRANCH   3   5
ENDBRANCH   2   3
TORSDOF 8
ENDMDL
MODEL       38
REMARK 921   NORMALIZED FREE ENERGY PREDICTED BY IDOCK:   -6.12 KCAL/MOL
REMARK 922        TOTAL FREE ENERGY PREDICTED BY IDOCK:  -10.89 KCAL/MOL
REMARK 923 INTER-LIGAND FREE ENERGY PREDICTED BY IDOCK:   -9.34 KCAL/MOL
REMARK 924 INTRA-LIGAND FREE ENERGY PREDICTED BY IDOCK:   -1.55 KCAL/MOL
REMARK 927      BINDING AFFINITY PREDICTED BY RF-SCORE:    0.00 PKD
ROOT
HETATM    1  C   UNL     1     -10.314  20.278  69.530  1.00  0.00     0.268 C  
HETATM    2  O   UNL     1     -10.264  18.851  69.425  1.00  0.00    -0.166 OA 
ENDROOT
BRANCH   2   3
HETATM    3  C   UNL     1     -10.125  18.411  68.146  1.00  0.00    -0.382 C  
HETATM    4  O   UNL     1     -10.926  18.637  67.252  1.00  0.00    -0.387 OA 
BRANCH   3   5
HETATM    5  C   UNL     1      -8.871  17.625  67.989  1.00  0.00    -0.257 C  
HETATM    6  C   UNL     1      -7.811  18.125  67.307  1.00  0.00    -0.222 C  
HETATM    7  N   UNL     1      -6.638  17.394  67.237  1.00  0.00    -0.147 NA 
HETATM    8  C   UNL     1      -7.733  19.433  66.556  1.00  0.00    -0.290 C  
HETATM    9  C   UNL     1      -6.488  16.087  67.648  1.00  0.00    -0.164 C  
HETATM   10  C   UNL     1      -5.141  15.468  67.344  1.00  0.00     0.122 C  
HETATM   11  C   UNL     1      -7.509  15.462  68.283  1.00  0.00    -0.112 C  
HETATM   12  C   UNL     1      -8.806  16.214  68.616  1.00  0.00    -0.218 C  
BRANCH  11  13
HETATM   13  C   UNL     1      -7.358  14.014  68.582  1.00  0.00    -0.120 C  
HETATM   14  O   UNL     1      -6.772  13.605  69.572  1.00  0.00    -0.097 OA 
BRANCH  13  15
HETATM   15  O   UNL     1      -8.017  13.238  67.689  1.00  0.00    -0.148 OA 
HETATM   16  C   UNL     1      -8.596  11.125  66.549  1.00  0.00    -0.169 C  
HETATM   17  C   UNL     1      -8.395  11.271  69.076  1.00  0.00    -0.014 C  
HETATM   18  C   UNL     1      -7.828  11.790  67.745  1.00  0.00    -0.135 C  
HETATM   19  C   UNL     1      -6.350  11.370  67.568  1.00  0.00    -0.069 C  
BRANCH  16  20
HETATM   20  N   UNL     1     -10.072  11.278  66.463  1.00  0.00    -0.211 NA 
HETATM   21  C   UNL     1     -10.501  11.392  65.066  1.00  0.00    -0.303 C  
BRANCH  20  22
HETATM   22  C   UNL     1     -10.755  10.093  67.027  1.00  0.00    -0.196 C  
BRANCH  22  23
HETATM   23  C   UNL     1     -10.148   8.733  66.678  1.00  0.00    -0.358 C  
HETATM   24  C   UNL     1      -9.319   8.021  67.778  1.00  0.00    -0.151 C  
HETATM   25  C   UNL     1      -8.557   6.872  67.098  1.00  0.00    -0.121 A  
HETATM   26  C   UNL     1     -10.170   7.662  69.000  1.00  0.00    -0.211 A  
HETATM   27  C   UNL     1      -7.155   6.828  67.148  1.00  0.00    -0.079 A  
HETATM   28  C   UNL     1     -10.884   6.461  69.128  1.00  0.00    -0.382 A  
HETATM   29  C   UNL     1      -6.443   5.926  66.349  1.00  0.00    -0.043 A  
HETATM   30  C   UNL     1     -11.744   6.240  70.207  1.00  0.00    -0.289 A  
HETATM   31  C   UNL     1     -11.908   7.213  71.185  1.00  0.00    -0.363 A  
HETATM   32  C   UNL     1      -7.119   5.046  65.505  1.00  0.00    -0.067 A  
HETATM   33  C   UNL     1      -8.508   5.043  65.479  1.00  0.00    -0.134 A  
HETATM   34  C   UNL     1     -11.196   8.404  71.096  1.00  0.00    -0.307 A  
HETATM   35  C   UNL     1     -10.330   8.620  70.019  1.00  0.00    -0.213 A  
HETATM   36  C   UNL     1      -9.218   5.947  66.266  1.00  0.00    -0.171 A  
ENDBRANCH  22  23
ENDBRANCH  20  22
ENDBRANCH  16  20
ENDBRANCH  13  15
ENDBRANCH  11  13
BRANCH  12  37
HETATM   37  C   UNL     1     -10.036  15.376  68.254  1.00  0.00    -0.214 A  
HETATM   38  O   UNL     1     -11.368  15.128  64.337  1.00  0.00    -0.304 OA 
HETATM   39  C   UNL     1     -10.426  15.246  66.906  1.00  0.00    -0.289 A  
HETATM   40  O   UNL     1     -13.085  13.894  64.918  1.00  0.00    -0.704 OA 
HETATM   41  C   UNL     1     -11.959  14.039  68.902  1.00  0.00    -0.387 A  
HETATM   42  C   UNL     1     -11.605  14.567  66.576  1.00  0.00    -0.371 A  
HETATM   43  N   UNL     1     -12.049  14.524  65.176  1.00  0.00    -0.381 N  
HETATM   44  C   UNL     1     -12.373  13.957  67.571  1.00  0.00    -0.113 A  
HETATM   45  C   UNL     1     -10.803  14.747  69.242  1.00  0.00    -0.275 A  
ENDBRANCH  12  37
ENDBRANCH   3   5
ENDBRANCH   2   3
TORSDOF 8
ENDMDL
MODEL       39
REMARK 921   NORMALIZED FREE ENERGY PREDICTED BY IDOCK:   -6.11 KCAL/MOL
REMARK 922        TOTAL FREE ENERGY PREDICTED BY IDOCK:  -10.87 KCAL/MOL
REMARK 923 INTER-LIGAND FREE ENERGY PREDICTED BY IDOCK:  -10.87 KCAL/MOL
REMARK 924 INTRA-LIGAND FREE ENERGY PREDICTED BY IDOCK:   -0.01 KCAL/MOL
REMARK 927      BINDING AFFINITY PREDICTED BY RF-SCORE:    0.00 PKD
ROOT
HETATM    1  C   UNL     1     -12.102  16.421  72.825  1.00  0.00    -0.478 C  
HETATM    2  O   UNL     1     -11.748  15.886  71.545  1.00  0.00    -0.400 OA 
ENDROOT
BRANCH   2   3
HETATM    3  C   UNL     1     -12.808  15.371  70.866  1.00  0.00    -0.476 C  
HETATM    4  O   UNL     1     -13.865  15.959  70.695  1.00  0.00    -0.095 OA 
BRANCH   3   5
HETATM    5  C   UNL     1     -12.501  14.004  70.363  1.00  0.00    -0.418 C  
HETATM    6  C   UNL     1     -12.720  12.909  71.131  1.00  0.00    -0.276 C  
HETATM    7  N   UNL     1     -12.486  11.650  70.607  1.00  0.00    -0.322 NA 
HETATM    8  C   UNL     1     -13.195  12.869  72.565  1.00  0.00    -0.305 C  
HETATM    9  C   UNL     1     -11.859  11.390  69.407  1.00  0.00    -0.351 C  
HETATM   10  C   UNL     1     -11.603   9.926  69.120  1.00  0.00     0.064 C  
HETATM   11  C   UNL     1     -11.531  12.416  68.586  1.00  0.00    -0.348 C  
HETATM   12  C   UNL     1     -11.915  13.860  68.941  1.00  0.00    -0.393 C  
BRANCH  11  13
HETATM   13  C   UNL     1     -10.732  12.106  67.371  1.00  0.00    -0.234 C  
HETATM   14  O   UNL     1     -10.857  12.726  66.326  1.00  0.00    -0.269 OA 
BRANCH  13  15
HETATM   15  O   UNL     1      -9.812  11.140  67.601  1.00  0.00    -0.171 OA 
HETATM   16  C   UNL     1      -7.744   9.862  67.165  1.00  0.00    -0.092 C  
HETATM   17  C   UNL     1      -7.785  12.400  67.112  1.00  0.00    -0.122 C  
HETATM   18  C   UNL     1      -8.592  11.130  66.796  1.00  0.00    -0.157 C  
HETATM   19  C   UNL     1      -8.871  11.011  65.280  1.00  0.00    -0.139 C  
BRANCH  16  20
HETATM   20  N   UNL     1      -7.244   9.705  68.555  1.00  0.00    -0.070 NA 
HETATM   21  C   UNL     1      -7.037  11.013  69.183  1.00  0.00    -0.116 C  
BRANCH  20  22
HETATM   22  C   UNL     1      -8.229   8.980  69.387  1.00  0.00    -0.117 C  
BRANCH  22  23
HETATM   23  C   UNL     1      -8.573   7.558  68.942  1.00  0.00    -0.129 C  
HETATM   24  C   UNL     1      -8.920   6.531  70.051  1.00  0.00    -0.144 C  
HETATM   25  C   UNL     1      -8.897   5.138  69.400  1.00  0.00    -0.119 A  
HETATM   26  C   UNL     1     -10.187   6.917  70.819  1.00  0.00    -0.212 A  
HETATM   27  C   UNL     1      -8.026   4.148  69.881  1.00  0.00    -0.055 A  
HETATM   28  C   UNL     1     -11.481   6.540  70.430  1.00  0.00    -0.465 A  
HETATM   29  C   UNL     1      -7.830   2.963  69.163  1.00  0.00    -0.052 A  
HETATM   30  C   UNL     1     -12.609   7.025  71.097  1.00  0.00    -0.387 A  
HETATM   31  C   UNL     1     -12.470   7.896  72.171  1.00  0.00    -0.304 A  
HETATM   32  C   UNL     1      -8.513   2.742  67.968  1.00  0.00    -0.103 A  
HETATM   33  C   UNL     1      -9.414   3.690  67.501  1.00  0.00    -0.237 A  
HETATM   34  C   UNL     1     -11.199   8.269  72.593  1.00  0.00    -0.410 A  
HETATM   35  C   UNL     1     -10.071   7.776  71.928  1.00  0.00    -0.231 A  
HETATM   36  C   UNL     1      -9.604   4.875  68.210  1.00  0.00    -0.196 A  
ENDBRANCH  22  23
ENDBRANCH  20  22
ENDBRANCH  16  20
ENDBRANCH  13  15
ENDBRANCH  11  13
BRANCH  12  37
HETATM   37  C   UNL     1     -10.737  14.813  68.714  1.00  0.00    -0.253 A  
HETATM   38  O   UNL     1     -10.753  17.510  65.567  1.00  0.00    -0.551 OA 
HETATM   39  C   UNL     1     -10.796  15.771  67.683  1.00  0.00    -0.310 A  
HETATM   40  O   UNL     1      -8.737  18.218  66.062  1.00  0.00    -0.497 OA 
HETATM   41  C   UNL     1      -8.488  15.571  69.240  1.00  0.00    -0.265 A  
HETATM   42  C   UNL     1      -9.686  16.577  67.405  1.00  0.00    -0.246 A  
HETATM   43  N   UNL     1      -9.730  17.504  66.265  1.00  0.00    -0.277 N  
HETATM   44  C   UNL     1      -8.530  16.483  68.184  1.00  0.00    -0.191 A  
HETATM   45  C   UNL     1      -9.581  14.739  69.500  1.00  0.00     0.055 A  
ENDBRANCH  12  37
ENDBRANCH   3   5
ENDBRANCH   2   3
TORSDOF 8
ENDMDL
MODEL       40
REMARK 921   NORMALIZED FREE ENERGY PREDICTED BY IDOCK:   -6.10 KCAL/MOL
REMARK 922        TOTAL FREE ENERGY PREDICTED BY IDOCK:  -10.86 KCAL/MOL
REMARK 923 INTER-LIGAND FREE ENERGY PREDICTED BY IDOCK:  -10.35 KCAL/MOL
REMARK 924 INTRA-LIGAND FREE ENERGY PREDICTED BY IDOCK:   -0.51 KCAL/MOL
REMARK 927      BINDING AFFINITY PREDICTED BY RF-SCORE:    0.00 PKD
ROOT
HETATM    1  C   UNL     1     -11.969  14.089  67.960  1.00  0.00    -0.350 C  
HETATM    2  O   UNL     1     -11.744  13.448  66.700  1.00  0.00    -0.346 OA 
ENDROOT
BRANCH   2   3
HETATM    3  C   UNL     1     -10.497  13.665  66.202  1.00  0.00    -0.297 C  
HETATM    4  O   UNL     1      -9.809  14.637  66.474  1.00  0.00    -0.253 OA 
BRANCH   3   5
HETATM    5  C   UNL     1     -10.092  12.561  65.290  1.00  0.00    -0.275 C  
HETATM    6  C   UNL     1     -10.737  12.347  64.117  1.00  0.00    -0.379 C  
HETATM    7  N   UNL     1     -10.292  11.353  63.264  1.00  0.00    -0.373 NA 
HETATM    8  C   UNL     1     -11.953  13.072  63.590  1.00  0.00    -0.608 C  
HETATM    9  C   UNL     1      -9.340  10.405  63.573  1.00  0.00    -0.297 C  
HETATM   10  C   UNL     1      -9.122   9.345  62.516  1.00  0.00    -0.176 C  
HETATM   11  C   UNL     1      -8.677  10.480  64.752  1.00  0.00    -0.196 C  
HETATM   12  C   UNL     1      -8.918  11.650  65.717  1.00  0.00    -0.067 C  
BRANCH  11  13
HETATM   13  C   UNL     1      -7.764   9.362  65.108  1.00  0.00    -0.109 C  
HETATM   14  O   UNL     1      -6.550   9.445  64.998  1.00  0.00    -0.079 OA 
BRANCH  13  15
HETATM   15  O   UNL     1      -8.430   8.311  65.641  1.00  0.00    -0.142 OA 
HETATM   16  C   UNL     1      -8.945   5.920  65.982  1.00  0.00    -0.151 C  
HETATM   17  C   UNL     1      -6.560   6.789  65.983  1.00  0.00    -0.051 C  
HETATM   18  C   UNL     1      -7.952   6.960  65.354  1.00  0.00    -0.125 C  
HETATM   19  C   UNL     1      -7.923   6.640  63.842  1.00  0.00    -0.075 C  
BRANCH  16  20
HETATM   20  N   UNL     1      -9.149   5.910  67.454  1.00  0.00    -0.111 NA 
HETATM   21  C   UNL     1      -8.683   7.166  68.050  1.00  0.00    -0.127 C  
BRANCH  20  22
HETATM   22  C   UNL     1     -10.585   5.786  67.783  1.00  0.00    -0.237 C  
BRANCH  22  23
HETATM   23  C   UNL     1     -11.103   6.690  68.903  1.00  0.00    -0.312 C  
HETATM   24  C   UNL     1     -11.442   6.019  70.259  1.00  0.00    -0.245 C  
HETATM   25  C   UNL     1     -12.238   7.043  71.084  1.00  0.00    -0.427 A  
HETATM   26  C   UNL     1     -10.207   5.402  70.921  1.00  0.00    -0.303 A  
HETATM   27  C   UNL     1     -13.532   6.738  71.530  1.00  0.00    -0.180 A  
HETATM   28  C   UNL     1      -9.350   6.105  71.782  1.00  0.00    -0.159 A  
HETATM   29  C   UNL     1     -14.349   7.732  72.079  1.00  0.00    -0.472 A  
HETATM   30  C   UNL     1      -8.169   5.529  72.258  1.00  0.00    -0.111 A  
HETATM   31  C   UNL     1      -7.818   4.237  71.888  1.00  0.00    -0.084 A  
HETATM   32  C   UNL     1     -13.879   9.039  72.208  1.00  0.00    -0.547 A  
HETATM   33  C   UNL     1     -12.583   9.348  71.816  1.00  0.00    -0.470 A  
HETATM   34  C   UNL     1      -8.659   3.508  71.055  1.00  0.00    -0.111 A  
HETATM   35  C   UNL     1      -9.845   4.084  70.585  1.00  0.00    -0.229 A  
HETATM   36  C   UNL     1     -11.771   8.361  71.260  1.00  0.00    -0.325 A  
ENDBRANCH  22  23
ENDBRANCH  20  22
ENDBRANCH  16  20
ENDBRANCH  13  15
ENDBRANCH  11  13
BRANCH  12  37
HETATM   37  C   UNL     1      -9.082  11.151  67.156  1.00  0.00    -0.151 A  
HETATM   38  O   UNL     1      -5.803  10.747  69.657  1.00  0.00    -0.043 OA 
HETATM   39  C   UNL     1      -7.964  11.092  68.011  1.00  0.00    -0.115 A  
HETATM   40  O   UNL     1      -7.040   9.930  71.274  1.00  0.00    -0.293 OA 
HETATM   41  C   UNL     1     -10.447  10.212  68.934  1.00  0.00    -0.230 A  
HETATM   42  C   UNL     1      -8.085  10.543  69.293  1.00  0.00    -0.148 A  
HETATM   43  N   UNL     1      -6.891  10.400  70.136  1.00  0.00    -0.152 N  
HETATM   44  C   UNL     1      -9.327  10.105  69.761  1.00  0.00    -0.183 A  
HETATM   45  C   UNL     1     -10.325  10.726  67.640  1.00  0.00    -0.236 A  
ENDBRANCH  12  37
ENDBRANCH   3   5
ENDBRANCH   2   3
TORSDOF 8
ENDMDL
MODEL       41
REMARK 921   NORMALIZED FREE ENERGY PREDICTED BY IDOCK:   -6.06 KCAL/MOL
REMARK 922        TOTAL FREE ENERGY PREDICTED BY IDOCK:  -10.81 KCAL/MOL
REMARK 923 INTER-LIGAND FREE ENERGY PREDICTED BY IDOCK:  -10.56 KCAL/MOL
REMARK 924 INTRA-LIGAND FREE ENERGY PREDICTED BY IDOCK:   -0.25 KCAL/MOL
REMARK 927      BINDING AFFINITY PREDICTED BY RF-SCORE:    0.00 PKD
ROOT
HETATM    1  C   UNL     1     -11.489   4.185  73.384  1.00  0.00    -0.136 C  
HETATM    2  O   UNL     1     -10.148   4.684  73.332  1.00  0.00    -0.148 OA 
ENDROOT
BRANCH   2   3
HETATM    3  C   UNL     1     -10.080   6.043  73.334  1.00  0.00    -0.198 C  
HETATM    4  O   UNL     1     -10.596   6.754  74.183  1.00  0.00    -0.312 OA 
BRANCH   3   5
HETATM    5  C   UNL     1      -9.294   6.536  72.171  1.00  0.00    -0.142 C  
HETATM    6  C   UNL     1      -7.957   6.744  72.266  1.00  0.00    -0.095 C  
HETATM    7  N   UNL     1      -7.247   7.140  71.147  1.00  0.00    -0.073 NA 
HETATM    8  C   UNL     1      -7.090   6.615  73.496  1.00  0.00    -0.076 C  
HETATM    9  C   UNL     1      -7.803   7.534  69.948  1.00  0.00    -0.107 C  
HETATM   10  C   UNL     1      -6.817   8.047  68.921  1.00  0.00    -0.061 C  
HETATM   11  C   UNL     1      -9.142   7.432  69.764  1.00  0.00    -0.141 C  
HETATM   12  C   UNL     1     -10.039   6.816  70.847  1.00  0.00    -0.207 C  
BRANCH  11  13
HETATM   13  C   UNL     1      -9.715   7.997  68.515  1.00  0.00    -0.159 C  
HETATM   14  O   UNL     1     -10.686   7.508  67.958  1.00  0.00    -0.186 OA 
BRANCH  13  15
HETATM   15  O   UNL     1      -9.097   9.143  68.143  1.00  0.00    -0.132 OA 
HETATM   16  C   UNL     1      -8.662  11.086  66.683  1.00  0.00    -0.160 C  
HETATM   17  C   UNL     1     -11.021  10.375  67.298  1.00  0.00    -0.306 C  
HETATM   18  C   UNL     1      -9.605   9.867  66.980  1.00  0.00    -0.175 C  
HETATM   19  C   UNL     1      -9.596   9.016  65.689  1.00  0.00    -0.237 C  
BRANCH  16  20
HETATM   20  N   UNL     1      -8.505  12.147  67.711  1.00  0.00    -0.150 NA 
HETATM   21  C   UNL     1      -7.599  11.708  68.776  1.00  0.00    -0.119 C  
BRANCH  20  22
HETATM   22  C   UNL     1      -7.913  13.366  67.119  1.00  0.00    -0.054 C  
BRANCH  22  23
HETATM   23  C   UNL     1      -8.620  14.685  67.437  1.00  0.00    -0.212 C  
HETATM   24  C   UNL     1      -9.376  15.383  66.278  1.00  0.00    -0.351 C  
HETATM   25  C   UNL     1      -9.704  16.810  66.747  1.00  0.00    -0.273 A  
HETATM   26  C   UNL     1     -10.543  14.538  65.758  1.00  0.00    -0.326 A  
HETATM   27  C   UNL     1      -9.229  17.917  66.027  1.00  0.00    -0.035 A  
HETATM   28  C   UNL     1     -11.841  14.590  66.288  1.00  0.00    -0.354 A  
HETATM   29  C   UNL     1      -9.323  19.207  66.560  1.00  0.00    -0.382 A  
HETATM   30  C   UNL     1     -12.835  13.707  65.859  1.00  0.00    -0.328 A  
HETATM   31  C   UNL     1     -12.556  12.752  64.889  1.00  0.00    -0.541 A  
HETATM   32  C   UNL     1      -9.908  19.412  67.809  1.00  0.00    -0.449 A  
HETATM   33  C   UNL     1     -10.427  18.334  68.514  1.00  0.00    -0.241 A  
HETATM   34  C   UNL     1     -11.285  12.692  64.330  1.00  0.00    -0.410 A  
HETATM   35  C   UNL     1     -10.293  13.583  64.755  1.00  0.00    -0.405 A  
HETATM   36  C   UNL     1     -10.326  17.047  67.989  1.00  0.00    -0.341 A  
ENDBRANCH  22  23
ENDBRANCH  20  22
ENDBRANCH  16  20
ENDBRANCH  13  15
ENDBRANCH  11  13
BRANCH  12  37
HETATM   37  C   UNL     1     -11.292   7.668  71.072  1.00  0.00    -0.289 A  
HETATM   38  O   UNL     1     -11.189  11.781  70.577  1.00  0.00     0.295 OA 
HETATM   39  C   UNL     1     -11.253   9.054  70.826  1.00  0.00    -0.329 A  
HETATM   40  O   UNL     1     -13.280  11.987  71.206  1.00  0.00    -0.217 OA 
HETATM   41  C   UNL     1     -13.599   7.899  71.804  1.00  0.00    -0.396 A  
HETATM   42  C   UNL     1     -12.362   9.855  71.124  1.00  0.00    -0.370 A  
HETATM   43  N   UNL     1     -12.271  11.312  70.953  1.00  0.00    -0.371 N  
HETATM   44  C   UNL     1     -13.539   9.280  71.610  1.00  0.00    -0.448 A  
HETATM   45  C   UNL     1     -12.483   7.099  71.542  1.00  0.00    -0.418 A  
ENDBRANCH  12  37
ENDBRANCH   3   5
ENDBRANCH   2   3
TORSDOF 8
ENDMDL
MODEL       42
REMARK 921   NORMALIZED FREE ENERGY PREDICTED BY IDOCK:   -6.04 KCAL/MOL
REMARK 922        TOTAL FREE ENERGY PREDICTED BY IDOCK:  -10.78 KCAL/MOL
REMARK 923 INTER-LIGAND FREE ENERGY PREDICTED BY IDOCK:  -11.36 KCAL/MOL
REMARK 924 INTRA-LIGAND FREE ENERGY PREDICTED BY IDOCK:    0.57 KCAL/MOL
REMARK 927      BINDING AFFINITY PREDICTED BY RF-SCORE:    0.00 PKD
ROOT
HETATM    1  C   UNL     1     -10.126  19.383  69.011  1.00  0.00    -0.343 C  
HETATM    2  O   UNL     1     -10.674  18.210  68.399  1.00  0.00    -0.272 OA 
ENDROOT
BRANCH   2   3
HETATM    3  C   UNL     1      -9.799  17.170  68.355  1.00  0.00    -0.296 C  
HETATM    4  O   UNL     1      -8.838  17.048  69.099  1.00  0.00    -0.180 OA 
BRANCH   3   5
HETATM    5  C   UNL     1     -10.176  16.207  67.284  1.00  0.00    -0.277 C  
HETATM    6  C   UNL     1     -10.352  16.617  66.003  1.00  0.00    -0.340 C  
HETATM    7  N   UNL     1     -10.637  15.685  65.021  1.00  0.00    -0.456 NA 
HETATM    8  C   UNL     1     -10.295  18.030  65.472  1.00  0.00     0.104 C  
HETATM    9  C   UNL     1     -10.951  14.361  65.246  1.00  0.00    -0.350 C  
HETATM   10  C   UNL     1     -11.352  13.578  64.015  1.00  0.00    -0.306 C  
HETATM   11  C   UNL     1     -10.874  13.857  66.502  1.00  0.00    -0.295 C  
HETATM   12  C   UNL     1     -10.372  14.723  67.667  1.00  0.00    -0.237 C  
BRANCH  11  13
HETATM   13  C   UNL     1     -11.355  12.469  66.723  1.00  0.00    -0.334 C  
HETATM   14  O   UNL     1     -12.473  12.221  67.149  1.00  0.00    -0.184 OA 
BRANCH  13  15
HETATM   15  O   UNL     1     -10.453  11.546  66.314  1.00  0.00    -0.235 OA 
HETATM   16  C   UNL     1      -8.742   9.792  66.619  1.00  0.00    -0.131 C  
HETATM   17  C   UNL     1     -10.902   9.800  67.952  1.00  0.00    -0.298 C  
HETATM   18  C   UNL     1      -9.822  10.690  67.317  1.00  0.00    -0.176 C  
HETATM   19  C   UNL     1      -9.056  11.491  68.395  1.00  0.00    -0.185 C  
BRANCH  16  20
HETATM   20  N   UNL     1      -9.168   8.834  65.565  1.00  0.00    -0.179 NA 
HETATM   21  C   UNL     1      -8.639   9.232  64.258  1.00  0.00    -0.193 C  
BRANCH  20  22
HETATM   22  C   UNL     1      -8.645   7.480  65.846  1.00  0.00    -0.151 C  
BRANCH  22  23
HETATM   23  C   UNL     1      -8.869   6.949  67.264  1.00  0.00    -0.118 C  
HETATM   24  C   UNL     1     -10.082   6.009  67.486  1.00  0.00    -0.190 C  
HETATM   25  C   UNL     1     -10.287   5.888  69.005  1.00  0.00    -0.297 A  
HETATM   26  C   UNL     1      -9.953   4.704  66.696  1.00  0.00    -0.260 A  
HETATM   27  C   UNL     1     -11.506   6.270  69.586  1.00  0.00    -0.425 A  
HETATM   28  C   UNL     1      -9.309   3.557  67.184  1.00  0.00    -0.229 A  
HETATM   29  C   UNL     1     -11.628   6.381  70.975  1.00  0.00    -0.386 A  
HETATM   30  C   UNL     1      -9.110   2.436  66.373  1.00  0.00    -0.088 A  
HETATM   31  C   UNL     1      -9.554   2.434  65.057  1.00  0.00     0.043 A  
HETATM   32  C   UNL     1     -10.543   6.094  71.803  1.00  0.00    -0.268 A  
HETATM   33  C   UNL     1      -9.344   5.668  71.248  1.00  0.00    -0.171 A  
HETATM   34  C   UNL     1     -10.216   3.548  64.553  1.00  0.00    -0.135 A  
HETATM   35  C   UNL     1     -10.420   4.666  65.369  1.00  0.00    -0.174 A  
HETATM   36  C   UNL     1      -9.218   5.566  69.864  1.00  0.00    -0.170 A  
ENDBRANCH  22  23
ENDBRANCH  20  22
ENDBRANCH  16  20
ENDBRANCH  13  15
ENDBRANCH  11  13
BRANCH  12  37
HETATM   37  C   UNL     1     -11.275  14.569  68.894  1.00  0.00    -0.283 A  
HETATM   38  O   UNL     1     -11.825  10.872  70.684  1.00  0.00    -0.327 OA 
HETATM   39  C   UNL     1     -11.389  13.318  69.530  1.00  0.00    -0.236 A  
HETATM   40  O   UNL     1     -13.253  11.698  72.129  1.00  0.00    -0.504 OA 
HETATM   41  C   UNL     1     -12.885  15.477  70.473  1.00  0.00    -0.402 A  
HETATM   42  C   UNL     1     -12.288  13.144  70.589  1.00  0.00    -0.326 A  
HETATM   43  N   UNL     1     -12.465  11.809  71.178  1.00  0.00    -0.336 N  
HETATM   44  C   UNL     1     -13.035  14.223  71.067  1.00  0.00    -0.411 A  
HETATM   45  C   UNL     1     -12.015  15.648  69.392  1.00  0.00    -0.349 A  
ENDBRANCH  12  37
ENDBRANCH   3   5
ENDBRANCH   2   3
TORSDOF 8
ENDMDL
MODEL       43
REMARK 921   NORMALIZED FREE ENERGY PREDICTED BY IDOCK:   -6.04 KCAL/MOL
REMARK 922        TOTAL FREE ENERGY PREDICTED BY IDOCK:  -10.78 KCAL/MOL
REMARK 923 INTER-LIGAND FREE ENERGY PREDICTED BY IDOCK:  -10.25 KCAL/MOL
REMARK 924 INTRA-LIGAND FREE ENERGY PREDICTED BY IDOCK:   -0.52 KCAL/MOL
REMARK 927      BINDING AFFINITY PREDICTED BY RF-SCORE:    0.00 PKD
ROOT
HETATM    1  C   UNL     1     -10.608   5.016  72.370  1.00  0.00    -0.215 C  
HETATM    2  O   UNL     1     -11.496   6.118  72.157  1.00  0.00    -0.285 OA 
ENDROOT
BRANCH   2   3
HETATM    3  C   UNL     1     -11.051   7.281  72.706  1.00  0.00    -0.319 C  
HETATM    4  O   UNL     1     -10.536   7.365  73.810  1.00  0.00    -0.349 OA 
BRANCH   3   5
HETATM    5  C   UNL     1     -11.276   8.424  71.779  1.00  0.00    -0.360 C  
HETATM    6  C   UNL     1     -12.456   9.091  71.763  1.00  0.00    -0.368 C  
HETATM    7  N   UNL     1     -12.608  10.190  70.936  1.00  0.00    -0.347 NA 
HETATM    8  C   UNL     1     -13.705   8.774  72.553  1.00  0.00    -0.425 C  
HETATM    9  C   UNL     1     -11.716  10.582  69.960  1.00  0.00    -0.312 C  
HETATM   10  C   UNL     1     -12.174  11.740  69.100  1.00  0.00    -0.169 C  
HETATM   11  C   UNL     1     -10.529   9.940  69.840  1.00  0.00    -0.309 C  
HETATM   12  C   UNL     1     -10.132   8.830  70.824  1.00  0.00    -0.261 C  
BRANCH  11  13
HETATM   13  C   UNL     1      -9.660  10.298  68.688  1.00  0.00    -0.168 C  
HETATM   14  O   UNL     1      -9.793   9.795  67.583  1.00  0.00    -0.155 OA 
BRANCH  13  15
HETATM   15  O   UNL     1      -8.794  11.293  68.994  1.00  0.00    -0.094 OA 
HETATM   16  C   UNL     1      -6.710  12.599  68.775  1.00  0.00    -0.093 C  
HETATM   17  C   UNL     1      -8.059  11.882  66.748  1.00  0.00    -0.108 C  
HETATM   18  C   UNL     1      -7.608  11.470  68.159  1.00  0.00    -0.113 C  
HETATM   19  C   UNL     1      -6.712  10.211  68.111  1.00  0.00    -0.062 C  
BRANCH  16  20
HETATM   20  N   UNL     1      -7.258  13.975  68.896  1.00  0.00    -0.110 NA 
HETATM   21  C   UNL     1      -6.261  14.969  68.485  1.00  0.00    -0.094 C  
BRANCH  20  22
HETATM   22  C   UNL     1      -8.430  14.151  68.011  1.00  0.00    -0.171 C  
BRANCH  22  23
HETATM   23  C   UNL     1      -9.767  14.421  68.705  1.00  0.00    -0.190 C  
HETATM   24  C   UNL     1      -9.870  15.701  69.574  1.00  0.00    -0.289 C  
HETATM   25  C   UNL     1     -11.154  15.577  70.411  1.00  0.00    -0.357 A  
HETATM   26  C   UNL     1      -9.703  16.977  68.744  1.00  0.00    -0.273 A  
HETATM   27  C   UNL     1     -11.089  15.605  71.812  1.00  0.00    -0.182 A  
HETATM   28  C   UNL     1     -10.764  17.639  68.108  1.00  0.00    -0.312 A  
HETATM   29  C   UNL     1     -12.206  15.268  72.583  1.00  0.00    -0.502 A  
HETATM   30  C   UNL     1     -10.537  18.726  67.261  1.00  0.00    -0.504 A  
HETATM   31  C   UNL     1      -9.244  19.180  67.031  1.00  0.00    -0.336 A  
HETATM   32  C   UNL     1     -13.407  14.915  71.968  1.00  0.00    -0.463 A  
HETATM   33  C   UNL     1     -13.503  14.928  70.583  1.00  0.00    -0.178 A  
HETATM   34  C   UNL     1      -8.175  18.558  67.665  1.00  0.00    -0.267 A  
HETATM   35  C   UNL     1      -8.405  17.474  68.520  1.00  0.00    -0.274 A  
HETATM   36  C   UNL     1     -12.388  15.255  69.813  1.00  0.00    -0.288 A  
ENDBRANCH  22  23
ENDBRANCH  20  22
ENDBRANCH  16  20
ENDBRANCH  13  15
ENDBRANCH  11  13
BRANCH  12  37
HETATM   37  C   UNL     1      -9.556   7.619  70.083  1.00  0.00    -0.168 A  
HETATM   38  O   UNL     1      -5.537   6.653  70.381  1.00  0.00    -0.021 OA 
HETATM   39  C   UNL     1      -8.204   7.267  70.257  1.00  0.00    -0.133 A  
HETATM   40  O   UNL     1      -5.753   4.989  68.969  1.00  0.00    -0.014 OA 
HETATM   41  C   UNL     1      -9.788   5.798  68.489  1.00  0.00    -0.177 A  
HETATM   42  C   UNL     1      -7.644   6.225  69.508  1.00  0.00    -0.094 A  
HETATM   43  N   UNL     1      -6.209   5.932  69.632  1.00  0.00    -0.028 N  
HETATM   44  C   UNL     1      -8.435   5.485  68.625  1.00  0.00    -0.104 A  
HETATM   45  C   UNL     1     -10.344   6.860  69.208  1.00  0.00    -0.212 A  
ENDBRANCH  12  37
ENDBRANCH   3   5
ENDBRANCH   2   3
TORSDOF 8
ENDMDL
MODEL       44
REMARK 921   NORMALIZED FREE ENERGY PREDICTED BY IDOCK:   -6.04 KCAL/MOL
REMARK 922        TOTAL FREE ENERGY PREDICTED BY IDOCK:  -10.77 KCAL/MOL
REMARK 923 INTER-LIGAND FREE ENERGY PREDICTED BY IDOCK:  -10.05 KCAL/MOL
REMARK 924 INTRA-LIGAND FREE ENERGY PREDICTED BY IDOCK:   -0.72 KCAL/MOL
REMARK 927      BINDING AFFINITY PREDICTED BY RF-SCORE:    0.00 PKD
ROOT
HETATM    1  C   UNL     1     -13.148   7.032  71.569  1.00  0.00    -0.339 C  
HETATM    2  O   UNL     1     -12.183   7.668  70.725  1.00  0.00    -0.213 OA 
ENDROOT
BRANCH   2   3
HETATM    3  C   UNL     1     -11.289   6.799  70.181  1.00  0.00    -0.350 C  
HETATM    4  O   UNL     1     -11.278   5.598  70.402  1.00  0.00    -0.231 OA 
BRANCH   3   5
HETATM    5  C   UNL     1     -10.336   7.510  69.286  1.00  0.00    -0.209 C  
HETATM    6  C   UNL     1     -10.319   7.273  67.951  1.00  0.00    -0.201 C  
HETATM    7  N   UNL     1      -9.466   8.000  67.139  1.00  0.00    -0.153 NA 
HETATM    8  C   UNL     1     -11.135   6.258  67.185  1.00  0.00    -0.389 C  
HETATM    9  C   UNL     1      -8.467   8.841  67.583  1.00  0.00    -0.125 C  
HETATM   10  C   UNL     1      -7.584   9.418  66.499  1.00  0.00    -0.093 C  
HETATM   11  C   UNL     1      -8.347   9.098  68.908  1.00  0.00    -0.124 C  
HETATM   12  C   UNL     1      -9.354   8.523  69.915  1.00  0.00    -0.159 C  
BRANCH  11  13
HETATM   13  C   UNL     1      -7.175   9.893  69.357  1.00  0.00    -0.083 C  
HETATM   14  O   UNL     1      -6.127   9.376  69.712  1.00  0.00    -0.038 OA 
BRANCH  13  15
HETATM   15  O   UNL     1      -7.385  11.225  69.234  1.00  0.00    -0.115 OA 
HETATM   16  C   UNL     1      -6.741  13.609  69.242  1.00  0.00    -0.094 C  
HETATM   17  C   UNL     1      -5.332  11.846  68.079  1.00  0.00    -0.049 C  
HETATM   18  C   UNL     1      -6.235  12.125  69.292  1.00  0.00    -0.097 C  
HETATM   19  C   UNL     1      -5.443  12.004  70.615  1.00  0.00    -0.159 C  
BRANCH  16  20
HETATM   20  N   UNL     1      -7.489  14.079  68.047  1.00  0.00    -0.124 NA 
HETATM   21  C   UNL     1      -8.127  12.954  67.359  1.00  0.00    -0.181 C  
BRANCH  20  22
HETATM   22  C   UNL     1      -8.568  15.012  68.438  1.00  0.00    -0.162 C  
BRANCH  22  23
HETATM   23  C   UNL     1      -9.761  14.395  69.171  1.00  0.00    -0.011 C  
HETATM   24  C   UNL     1     -11.175  14.876  68.754  1.00  0.00    -0.288 C  
HETATM   25  C   UNL     1     -12.156  14.381  69.831  1.00  0.00    -0.398 A  
HETATM   26  C   UNL     1     -11.501  14.519  67.302  1.00  0.00    -0.381 A  
HETATM   27  C   UNL     1     -12.938  15.298  70.549  1.00  0.00    -0.380 A  
HETATM   28  C   UNL     1     -12.084  13.305  66.908  1.00  0.00    -0.389 A  
HETATM   29  C   UNL     1     -13.658  14.890  71.676  1.00  0.00    -0.506 A  
HETATM   30  C   UNL     1     -12.244  12.981  65.558  1.00  0.00    -0.521 A  
HETATM   31  C   UNL     1     -11.828  13.864  64.570  1.00  0.00    -0.449 A  
HETATM   32  C   UNL     1     -13.623  13.559  72.091  1.00  0.00    -0.651 A  
HETATM   33  C   UNL     1     -12.892  12.628  71.365  1.00  0.00    -0.358 A  
HETATM   34  C   UNL     1     -11.268  15.084  64.930  1.00  0.00    -0.423 A  
HETATM   35  C   UNL     1     -11.116  15.410  66.283  1.00  0.00    -0.226 A  
HETATM   36  C   UNL     1     -12.167  13.035  70.247  1.00  0.00    -0.368 A  
ENDBRANCH  22  23
ENDBRANCH  20  22
ENDBRANCH  16  20
ENDBRANCH  13  15
ENDBRANCH  11  13
BRANCH  12  37
HETATM   37  C   UNL     1      -8.637   7.935  71.134  1.00  0.00    -0.136 A  
HETATM   38  O   UNL     1      -6.264   4.555  70.784  1.00  0.00    -0.017 OA 
HETATM   39  C   UNL     1      -7.777   6.830  70.978  1.00  0.00    -0.097 A  
HETATM   40  O   UNL     1      -5.865   4.518  72.940  1.00  0.00    -0.011 OA 
HETATM   41  C   UNL     1      -8.224   7.872  73.529  1.00  0.00    -0.251 A  
HETATM   42  C   UNL     1      -7.197   6.224  72.099  1.00  0.00    -0.091 A  
HETATM   43  N   UNL     1      -6.380   5.015  71.928  1.00  0.00    -0.029 N  
HETATM   44  C   UNL     1      -7.415   6.745  73.377  1.00  0.00    -0.082 A  
HETATM   45  C   UNL     1      -8.835   8.460  72.417  1.00  0.00    -0.294 A  
ENDBRANCH  12  37
ENDBRANCH   3   5
ENDBRANCH   2   3
TORSDOF 8
ENDMDL
MODEL       45
REMARK 921   NORMALIZED FREE ENERGY PREDICTED BY IDOCK:   -6.00 KCAL/MOL
REMARK 922        TOTAL FREE ENERGY PREDICTED BY IDOCK:  -10.73 KCAL/MOL
REMARK 923 INTER-LIGAND FREE ENERGY PREDICTED BY IDOCK:   -9.36 KCAL/MOL
REMARK 924 INTRA-LIGAND FREE ENERGY PREDICTED BY IDOCK:   -1.36 KCAL/MOL
REMARK 927      BINDING AFFINITY PREDICTED BY RF-SCORE:    0.00 PKD
ROOT
HETATM    1  C   UNL     1     -10.900   5.348  71.791  1.00  0.00    -0.174 C  
HETATM    2  O   UNL     1      -9.960   6.370  72.140  1.00  0.00    -0.167 OA 
ENDROOT
BRANCH   2   3
HETATM    3  C   UNL     1      -8.679   6.060  71.805  1.00  0.00    -0.138 C  
HETATM    4  O   UNL     1      -8.212   4.932  71.848  1.00  0.00    -0.110 OA 
BRANCH   3   5
HETATM    5  C   UNL     1      -7.935   7.276  71.378  1.00  0.00    -0.097 C  
HETATM    6  C   UNL     1      -7.607   8.245  72.268  1.00  0.00    -0.123 C  
HETATM    7  N   UNL     1      -6.858   9.331  71.850  1.00  0.00    -0.307 NA 
HETATM    8  C   UNL     1      -7.982   8.319  73.729  1.00  0.00    -0.241 C  
HETATM    9  C   UNL     1      -6.552   9.631  70.539  1.00  0.00    -0.107 C  
HETATM   10  C   UNL     1      -5.831  10.945  70.332  1.00  0.00    -0.128 C  
HETATM   11  C   UNL     1      -6.892   8.763  69.556  1.00  0.00    -0.048 C  
HETATM   12  C   UNL     1      -7.548   7.415  69.889  1.00  0.00    -0.090 C  
BRANCH  11  13
HETATM   13  C   UNL     1      -6.673   9.188  68.148  1.00  0.00    -0.061 C  
HETATM   14  O   UNL     1      -6.576   8.390  67.229  1.00  0.00    -0.057 OA 
BRANCH  13  15
HETATM   15  O   UNL     1      -6.689  10.535  68.015  1.00  0.00    -0.064 OA 
HETATM   16  C   UNL     1      -7.581  12.702  67.236  1.00  0.00    -0.120 C  
HETATM   17  C   UNL     1      -9.080  10.929  68.264  1.00  0.00    -0.158 C  
HETATM   18  C   UNL     1      -7.845  11.162  67.378  1.00  0.00    -0.121 C  
HETATM   19  C   UNL     1      -8.089  10.652  65.938  1.00  0.00    -0.159 C  
BRANCH  16  20
HETATM   20  N   UNL     1      -7.376  13.517  68.461  1.00  0.00    -0.109 NA 
HETATM   21  C   UNL     1      -6.076  14.192  68.425  1.00  0.00    -0.101 C  
BRANCH  20  22
HETATM   22  C   UNL     1      -8.406  14.574  68.565  1.00  0.00    -0.160 C  
BRANCH  22  23
HETATM   23  C   UNL     1      -9.697  14.191  69.291  1.00  0.00     0.204 C  
HETATM   24  C   UNL     1     -11.031  14.697  68.682  1.00  0.00    -0.266 C  
HETATM   25  C   UNL     1     -12.123  14.478  69.742  1.00  0.00    -0.380 A  
HETATM   26  C   UNL     1     -11.287  14.115  67.289  1.00  0.00    -0.349 A  
HETATM   27  C   UNL     1     -12.866  15.565  70.225  1.00  0.00    -0.239 A  
HETATM   28  C   UNL     1     -11.949  12.899  67.062  1.00  0.00    -0.390 A  
HETATM   29  C   UNL     1     -13.696  15.420  71.342  1.00  0.00    -0.591 A  
HETATM   30  C   UNL     1     -12.045  12.355  65.778  1.00  0.00    -0.381 A  
HETATM   31  C   UNL     1     -11.484  13.014  64.692  1.00  0.00    -0.374 A  
HETATM   32  C   UNL     1     -13.809  14.185  71.980  1.00  0.00    -0.577 A  
HETATM   33  C   UNL     1     -13.118  13.086  71.486  1.00  0.00    -0.400 A  
HETATM   34  C   UNL     1     -10.842  14.232  64.884  1.00  0.00    -0.429 A  
HETATM   35  C   UNL     1     -10.754  14.779  66.169  1.00  0.00    -0.314 A  
HETATM   36  C   UNL     1     -12.284  13.232  70.379  1.00  0.00    -0.404 A  
ENDBRANCH  22  23
ENDBRANCH  20  22
ENDBRANCH  16  20
ENDBRANCH  13  15
ENDBRANCH  11  13
BRANCH  12  37
HETATM   37  C   UNL     1      -8.740   7.142  68.966  1.00  0.00    -0.132 A  
HETATM   38  O   UNL     1      -8.664   4.004  66.260  1.00  0.00    -0.112 OA 
HETATM   39  C   UNL     1      -8.722   6.026  68.107  1.00  0.00    -0.113 A  
HETATM   40  O   UNL     1     -10.628   4.551  65.452  1.00  0.00    -0.264 OA 
HETATM   41  C   UNL     1     -10.901   7.770  68.046  1.00  0.00    -0.046 A  
HETATM   42  C   UNL     1      -9.761   5.825  67.189  1.00  0.00    -0.136 A  
HETATM   43  N   UNL     1      -9.680   4.711  66.235  1.00  0.00    -0.181 N  
HETATM   44  C   UNL     1     -10.855   6.693  67.159  1.00  0.00    -0.471 A  
HETATM   45  C   UNL     1      -9.849   7.996  68.940  1.00  0.00    -0.176 A  
ENDBRANCH  12  37
ENDBRANCH   3   5
ENDBRANCH   2   3
TORSDOF 8
ENDMDL
MODEL       46
REMARK 921   NORMALIZED FREE ENERGY PREDICTED BY IDOCK:   -6.00 KCAL/MOL
REMARK 922        TOTAL FREE ENERGY PREDICTED BY IDOCK:  -10.72 KCAL/MOL
REMARK 923 INTER-LIGAND FREE ENERGY PREDICTED BY IDOCK:  -10.08 KCAL/MOL
REMARK 924 INTRA-LIGAND FREE ENERGY PREDICTED BY IDOCK:   -0.64 KCAL/MOL
REMARK 927      BINDING AFFINITY PREDICTED BY RF-SCORE:    0.00 PKD
ROOT
HETATM    1  C   UNL     1      -5.494   4.151  72.585  1.00  0.00    -0.003 C  
HETATM    2  O   UNL     1      -6.139   4.115  71.307  1.00  0.00    -0.013 OA 
ENDROOT
BRANCH   2   3
HETATM    3  C   UNL     1      -7.341   3.480  71.330  1.00  0.00    -0.036 C  
HETATM    4  O   UNL     1      -7.578   2.483  71.995  1.00  0.00    -0.043 OA 
BRANCH   3   5
HETATM    5  C   UNL     1      -8.319   4.165  70.442  1.00  0.00    -0.083 C  
HETATM    6  C   UNL     1      -8.162   4.164  69.095  1.00  0.00    -0.069 C  
HETATM    7  N   UNL     1      -9.125   4.755  68.295  1.00  0.00    -0.112 NA 
HETATM    8  C   UNL     1      -7.011   3.592  68.302  1.00  0.00    -0.050 C  
HETATM    9  C   UNL     1     -10.172   5.529  68.748  1.00  0.00    -0.199 C  
HETATM   10  C   UNL     1     -11.012   6.171  67.665  1.00  0.00    -0.400 C  
HETATM   11  C   UNL     1     -10.384   5.657  70.081  1.00  0.00    -0.341 C  
HETATM   12  C   UNL     1      -9.518   4.891  71.091  1.00  0.00    -0.216 C  
BRANCH  11  13
HETATM   13  C   UNL     1     -11.431   6.611  70.528  1.00  0.00    -0.376 C  
HETATM   14  O   UNL     1     -12.210   6.355  71.434  1.00  0.00    -0.292 OA 
BRANCH  13  15
HETATM   15  O   UNL     1     -11.349   7.798  69.883  1.00  0.00    -0.139 OA 
HETATM   16  C   UNL     1     -11.472  10.256  69.681  1.00  0.00    -0.235 C  
HETATM   17  C   UNL     1     -10.306   9.130  71.635  1.00  0.00    -0.388 C  
HETATM   18  C   UNL     1     -11.488   9.029  70.658  1.00  0.00    -0.248 C  
HETATM   19  C   UNL     1     -12.838   9.118  71.407  1.00  0.00    -0.376 C  
BRANCH  16  20
HETATM   20  N   UNL     1     -10.264  10.505  68.851  1.00  0.00    -0.197 NA 
HETATM   21  C   UNL     1     -10.605  10.507  67.426  1.00  0.00    -0.263 C  
BRANCH  20  22
HETATM   22  C   UNL     1      -9.684  11.831  69.156  1.00  0.00     0.266 C  
BRANCH  22  23
HETATM   23  C   UNL     1      -9.990  12.948  68.157  1.00  0.00    -0.234 C  
HETATM   24  C   UNL     1     -11.426  13.534  68.165  1.00  0.00    -0.338 C  
HETATM   25  C   UNL     1     -11.577  14.375  66.886  1.00  0.00    -0.404 A  
HETATM   26  C   UNL     1     -11.762  14.221  69.491  1.00  0.00    -0.366 A  
HETATM   27  C   UNL     1     -12.577  14.065  65.952  1.00  0.00    -0.484 A  
HETATM   28  C   UNL     1     -11.491  15.571  69.762  1.00  0.00    -0.339 A  
HETATM   29  C   UNL     1     -12.584  14.670  64.690  1.00  0.00    -0.173 A  
HETATM   30  C   UNL     1     -11.704  16.113  71.032  1.00  0.00    -0.407 A  
HETATM   31  C   UNL     1     -12.195  15.319  72.061  1.00  0.00    -0.441 A  
HETATM   32  C   UNL     1     -11.605  15.602  64.350  1.00  0.00    -0.250 A  
HETATM   33  C   UNL     1     -10.635  15.956  65.279  1.00  0.00    -0.441 A  
HETATM   34  C   UNL     1     -12.493  13.983  71.816  1.00  0.00    -0.328 A  
HETATM   35  C   UNL     1     -12.287  13.445  70.541  1.00  0.00    -0.401 A  
HETATM   36  C   UNL     1     -10.622  15.348  66.533  1.00  0.00    -0.306 A  
ENDBRANCH  22  23
ENDBRANCH  20  22
ENDBRANCH  16  20
ENDBRANCH  13  15
ENDBRANCH  11  13
BRANCH  12  37
HETATM   37  C   UNL     1      -9.074   5.804  72.238  1.00  0.00    -0.145 A  
HETATM   38  O   UNL     1      -5.928   8.458  71.752  1.00  0.00    -0.038 OA 
HETATM   39  C   UNL     1      -8.052   6.750  72.027  1.00  0.00    -0.101 A  
HETATM   40  O   UNL     1      -6.055   9.111  73.842  1.00  0.00    -0.297 OA 
HETATM   41  C   UNL     1      -9.191   6.501  74.564  1.00  0.00    -0.228 A  
HETATM   42  C   UNL     1      -7.571   7.518  73.094  1.00  0.00    -0.096 A  
HETATM   43  N   UNL     1      -6.439   8.431  72.879  1.00  0.00    -0.094 N  
HETATM   44  C   UNL     1      -8.141   7.400  74.364  1.00  0.00    -0.215 A  
HETATM   45  C   UNL     1      -9.650   5.706  73.510  1.00  0.00    -0.140 A  
ENDBRANCH  12  37
ENDBRANCH   3   5
ENDBRANCH   2   3
TORSDOF 8
ENDMDL
MODEL       47
REMARK 921   NORMALIZED FREE ENERGY PREDICTED BY IDOCK:   -5.95 KCAL/MOL
REMARK 922        TOTAL FREE ENERGY PREDICTED BY IDOCK:  -10.64 KCAL/MOL
REMARK 923 INTER-LIGAND FREE ENERGY PREDICTED BY IDOCK:   -8.86 KCAL/MOL
REMARK 924 INTRA-LIGAND FREE ENERGY PREDICTED BY IDOCK:   -1.78 KCAL/MOL
REMARK 927      BINDING AFFINITY PREDICTED BY RF-SCORE:    0.00 PKD
ROOT
HETATM    1  C   UNL     1      -5.999   6.004  67.702  1.00  0.00    -0.017 C  
HETATM    2  O   UNL     1      -7.020   5.348  68.461  1.00  0.00    -0.057 OA 
ENDROOT
BRANCH   2   3
HETATM    3  C   UNL     1      -7.024   5.703  69.775  1.00  0.00    -0.062 C  
HETATM    4  O   UNL     1      -6.021   5.792  70.465  1.00  0.00    -0.023 OA 
BRANCH   3   5
HETATM    5  C   UNL     1      -8.410   5.968  70.247  1.00  0.00    -0.124 C  
HETATM    6  C   UNL     1      -9.364   5.005  70.196  1.00  0.00    -0.157 C  
HETATM    7  N   UNL     1     -10.625   5.265  70.704  1.00  0.00    -0.233 NA 
HETATM    8  C   UNL     1      -9.241   3.616  69.614  1.00  0.00    -0.221 C  
HETATM    9  C   UNL     1     -11.082   6.503  71.106  1.00  0.00    -0.282 C  
HETATM   10  C   UNL     1     -12.542   6.550  71.500  1.00  0.00    -0.175 C  
HETATM   11  C   UNL     1     -10.230   7.556  71.132  1.00  0.00    -0.199 C  
HETATM   12  C   UNL     1      -8.744   7.375  70.790  1.00  0.00    -0.145 C  
BRANCH  11  13
HETATM   13  C   UNL     1     -10.795   8.897  71.434  1.00  0.00    -0.307 C  
HETATM   14  O   UNL     1     -10.873   9.337  72.571  1.00  0.00     0.288 OA 
BRANCH  13  15
HETATM   15  O   UNL     1     -11.113   9.581  70.309  1.00  0.00    -0.245 OA 
HETATM   16  C   UNL     1     -12.536  10.996  68.870  1.00  0.00     0.395 C  
HETATM   17  C   UNL     1     -12.141  11.546  71.317  1.00  0.00    -0.025 C  
HETATM   18  C   UNL     1     -12.322  10.402  70.307  1.00  0.00    -0.250 C  
HETATM   19  C   UNL     1     -13.602   9.589  70.610  1.00  0.00     0.206 C  
BRANCH  16  20
HETATM   20  N   UNL     1     -11.503  11.899  68.300  1.00  0.00    -0.286 NA 
HETATM   21  C   UNL     1     -11.179  11.513  66.923  1.00  0.00    -0.298 C  
BRANCH  20  22
HETATM   22  C   UNL     1     -11.996  13.293  68.250  1.00  0.00    -0.302 C  
BRANCH  22  23
HETATM   23  C   UNL     1     -10.951  14.388  68.476  1.00  0.00    -0.264 C  
HETATM   24  C   UNL     1     -11.442  15.720  69.098  1.00  0.00    -0.383 C  
HETATM   25  C   UNL     1     -10.312  16.747  68.916  1.00  0.00    -0.317 A  
HETATM   26  C   UNL     1     -11.985  15.529  70.517  1.00  0.00    -0.406 A  
HETATM   27  C   UNL     1     -10.543  17.932  68.201  1.00  0.00    -0.351 A  
HETATM   28  C   UNL     1     -11.189  15.588  71.671  1.00  0.00    -0.388 A  
HETATM   29  C   UNL     1      -9.477  18.761  67.834  1.00  0.00    -0.339 A  
HETATM   30  C   UNL     1     -11.714  15.282  72.930  1.00  0.00    -0.478 A  
HETATM   31  C   UNL     1     -13.047  14.913  73.065  1.00  0.00    -0.605 A  
HETATM   32  C   UNL     1      -8.171  18.429  68.191  1.00  0.00    -0.303 A  
HETATM   33  C   UNL     1      -7.929  17.285  68.940  1.00  0.00    -0.196 A  
HETATM   34  C   UNL     1     -13.865  14.869  71.941  1.00  0.00    -0.557 A  
HETATM   35  C   UNL     1     -13.339  15.184  70.683  1.00  0.00    -0.304 A  
HETATM   36  C   UNL     1      -8.988  16.453  69.298  1.00  0.00    -0.130 A  
ENDBRANCH  22  23
ENDBRANCH  20  22
ENDBRANCH  16  20
ENDBRANCH  13  15
ENDBRANCH  11  13
BRANCH  12  37
HETATM   37  C   UNL     1      -8.260   8.477  69.845  1.00  0.00    -0.121 A  
HETATM   38  O   UNL     1      -5.864  11.566  71.223  1.00  0.00    -0.372 OA 
HETATM   39  C   UNL     1      -7.386   9.476  70.319  1.00  0.00    -0.135 A  
HETATM   40  O   UNL     1      -5.861  12.543  69.260  1.00  0.00    -0.074 OA 
HETATM   41  C   UNL     1      -8.287   9.580  67.679  1.00  0.00    -0.125 A  
HETATM   42  C   UNL     1      -7.019  10.543  69.490  1.00  0.00    -0.114 A  
HETATM   43  N   UNL     1      -6.185  11.626  70.029  1.00  0.00    -0.151 N  
HETATM   44  C   UNL     1      -7.464  10.597  68.167  1.00  0.00    -0.090 A  
HETATM   45  C   UNL     1      -8.686   8.531  68.512  1.00  0.00    -0.139 A  
ENDBRANCH  12  37
ENDBRANCH   3   5
ENDBRANCH   2   3
TORSDOF 8
ENDMDL
MODEL       48
REMARK 921   NORMALIZED FREE ENERGY PREDICTED BY IDOCK:   -5.92 KCAL/MOL
REMARK 922        TOTAL FREE ENERGY PREDICTED BY IDOCK:  -10.60 KCAL/MOL
REMARK 923 INTER-LIGAND FREE ENERGY PREDICTED BY IDOCK:   -9.76 KCAL/MOL
REMARK 924 INTRA-LIGAND FREE ENERGY PREDICTED BY IDOCK:   -0.84 KCAL/MOL
REMARK 927      BINDING AFFINITY PREDICTED BY RF-SCORE:    0.00 PKD
ROOT
HETATM    1  C   UNL     1     -12.023  10.334  71.340  1.00  0.00    -0.327 C  
HETATM    2  O   UNL     1     -11.947   9.276  72.302  1.00  0.00    -0.299 OA 
ENDROOT
BRANCH   2   3
HETATM    3  C   UNL     1     -10.832   8.508  72.169  1.00  0.00    -0.357 C  
HETATM    4  O   UNL     1     -10.009   8.334  73.054  1.00  0.00    -0.269 OA 
BRANCH   3   5
HETATM    5  C   UNL     1     -10.758   7.914  70.806  1.00  0.00    -0.230 C  
HETATM    6  C   UNL     1     -11.700   7.043  70.369  1.00  0.00    -0.279 C  
HETATM    7  N   UNL     1     -11.636   6.560  69.074  1.00  0.00    -0.126 NA 
HETATM    8  C   UNL     1     -12.866   6.481  71.148  1.00  0.00     0.103 C  
HETATM    9  C   UNL     1     -10.577   6.737  68.209  1.00  0.00    -0.230 C  
HETATM   10  C   UNL     1     -10.692   5.999  66.893  1.00  0.00    -0.407 C  
HETATM   11  C   UNL     1      -9.543   7.536  68.570  1.00  0.00    -0.150 C  
HETATM   12  C   UNL     1      -9.570   8.306  69.899  1.00  0.00    -0.171 C  
BRANCH  11  13
HETATM   13  C   UNL     1      -8.360   7.587  67.672  1.00  0.00    -0.118 C  
HETATM   14  O   UNL     1      -7.982   6.620  67.028  1.00  0.00    -0.106 OA 
BRANCH  13  15
HETATM   15  O   UNL     1      -7.833   8.832  67.593  1.00  0.00    -0.100 OA 
HETATM   16  C   UNL     1      -7.467  11.053  66.579  1.00  0.00    -0.145 C  
HETATM   17  C   UNL     1      -9.785  10.038  66.775  1.00  0.00    -0.239 C  
HETATM   18  C   UNL     1      -8.299   9.724  66.534  1.00  0.00    -0.124 C  
HETATM   19  C   UNL     1      -8.075   9.146  65.118  1.00  0.00    -0.130 C  
BRANCH  16  20
HETATM   20  N   UNL     1      -7.523  11.902  67.797  1.00  0.00    -0.112 NA 
HETATM   21  C   UNL     1      -6.180  12.347  68.183  1.00  0.00    -0.065 C  
BRANCH  20  22
HETATM   22  C   UNL     1      -8.325  13.120  67.550  1.00  0.00    -0.185 C  
BRANCH  22  23
HETATM   23  C   UNL     1      -9.509  13.353  68.491  1.00  0.00    -0.121 C  
HETATM   24  C   UNL     1     -10.379  14.611  68.239  1.00  0.00    -0.230 C  
HETATM   25  C   UNL     1     -11.268  14.801  69.479  1.00  0.00    -0.305 A  
HETATM   26  C   UNL     1     -11.083  14.564  66.880  1.00  0.00    -0.325 A  
HETATM   27  C   UNL     1     -11.199  15.989  70.223  1.00  0.00    -0.397 A  
HETATM   28  C   UNL     1     -12.339  13.975  66.673  1.00  0.00    -0.408 A  
HETATM   29  C   UNL     1     -11.826  16.085  71.470  1.00  0.00    -0.554 A  
HETATM   30  C   UNL     1     -12.878  13.849  65.389  1.00  0.00    -0.466 A  
HETATM   31  C   UNL     1     -12.175  14.311  64.284  1.00  0.00    -0.451 A  
HETATM   32  C   UNL     1     -12.544  15.006  71.983  1.00  0.00    -0.405 A  
HETATM   33  C   UNL     1     -12.663  13.839  71.239  1.00  0.00    -0.450 A  
HETATM   34  C   UNL     1     -10.937  14.919  64.462  1.00  0.00    -0.216 A  
HETATM   35  C   UNL     1     -10.403  15.052  65.748  1.00  0.00    -0.354 A  
HETATM   36  C   UNL     1     -12.032  13.738  70.001  1.00  0.00    -0.407 A  
ENDBRANCH  22  23
ENDBRANCH  20  22
ENDBRANCH  16  20
ENDBRANCH  13  15
ENDBRANCH  11  13
BRANCH  12  37
HETATM   37  C   UNL     1      -8.231   8.182  70.632  1.00  0.00    -0.114 A  
HETATM   38  O   UNL     1      -7.036   4.578  72.293  1.00  0.00    -0.055 OA 
HETATM   39  C   UNL     1      -7.812   6.931  71.124  1.00  0.00    -0.100 A  
HETATM   40  O   UNL     1      -5.211   5.475  73.115  1.00  0.00    -0.017 OA 
HETATM   41  C   UNL     1      -6.227   9.184  71.575  1.00  0.00    -0.069 A  
HETATM   42  C   UNL     1      -6.639   6.828  71.882  1.00  0.00    -0.054 A  
HETATM   43  N   UNL     1      -6.267   5.533  72.469  1.00  0.00    -0.041 N  
HETATM   44  C   UNL     1      -5.841   7.952  72.106  1.00  0.00    -0.036 A  
HETATM   45  C   UNL     1      -7.415   9.300  70.847  1.00  0.00    -0.123 A  
ENDBRANCH  12  37
ENDBRANCH   3   5
ENDBRANCH   2   3
TORSDOF 8
ENDMDL
MODEL       49
REMARK 921   NORMALIZED FREE ENERGY PREDICTED BY IDOCK:   -5.90 KCAL/MOL
REMARK 922        TOTAL FREE ENERGY PREDICTED BY IDOCK:  -10.57 KCAL/MOL
REMARK 923 INTER-LIGAND FREE ENERGY PREDICTED BY IDOCK:   -9.04 KCAL/MOL
REMARK 924 INTRA-LIGAND FREE ENERGY PREDICTED BY IDOCK:   -1.53 KCAL/MOL
REMARK 927      BINDING AFFINITY PREDICTED BY RF-SCORE:    0.00 PKD
ROOT
HETATM    1  C   UNL     1     -10.230   3.343  72.797  1.00  0.00    -0.168 C  
HETATM    2  O   UNL     1      -9.305   4.420  72.980  1.00  0.00    -0.121 OA 
ENDROOT
BRANCH   2   3
HETATM    3  C   UNL     1      -8.102   4.202  72.385  1.00  0.00    -0.095 C  
HETATM    4  O   UNL     1      -7.673   3.097  72.088  1.00  0.00    -0.052 OA 
BRANCH   3   5
HETATM    5  C   UNL     1      -7.389   5.486  72.145  1.00  0.00    -0.090 C  
HETATM    6  C   UNL     1      -6.666   6.080  73.126  1.00  0.00    -0.074 C  
HETATM    7  N   UNL     1      -5.963   7.239  72.849  1.00  0.00    -0.048 NA 
HETATM    8  C   UNL     1      -6.528   5.639  74.564  1.00  0.00    -0.072 C  
HETATM    9  C   UNL     1      -6.068   7.978  71.689  1.00  0.00    -0.036 C  
HETATM   10  C   UNL     1      -5.293   9.277  71.683  1.00  0.00    -0.062 C  
HETATM   11  C   UNL     1      -6.821   7.511  70.663  1.00  0.00    -0.047 C  
HETATM   12  C   UNL     1      -7.499   6.136  70.747  1.00  0.00    -0.091 C  
BRANCH  11  13
HETATM   13  C   UNL     1      -7.023   8.401  69.490  1.00  0.00    -0.045 C  
HETATM   14  O   UNL     1      -6.337   8.325  68.482  1.00  0.00    -0.051 OA 
BRANCH  13  15
HETATM   15  O   UNL     1      -8.093   9.215  69.647  1.00  0.00    -0.094 OA 
HETATM   16  C   UNL     1      -9.473  11.217  69.212  1.00  0.00     0.119 C  
HETATM   17  C   UNL     1      -8.435   9.872  67.326  1.00  0.00    -0.121 C  
HETATM   18  C   UNL     1      -8.228  10.372  68.765  1.00  0.00    -0.128 C  
HETATM   19  C   UNL     1      -7.024  11.338  68.851  1.00  0.00    -0.099 C  
BRANCH  16  20
HETATM   20  N   UNL     1     -10.821  10.594  69.175  1.00  0.00    -0.220 NA 
HETATM   21  C   UNL     1     -11.426  10.586  70.511  1.00  0.00    -0.345 C  
BRANCH  20  22
HETATM   22  C   UNL     1     -11.729  11.363  68.297  1.00  0.00    -0.288 C  
BRANCH  22  23
HETATM   23  C   UNL     1     -11.485  12.872  68.228  1.00  0.00    -0.348 C  
HETATM   24  C   UNL     1     -10.481  13.381  67.162  1.00  0.00    -0.249 C  
HETATM   25  C   UNL     1     -10.160  14.845  67.506  1.00  0.00    -0.228 A  
HETATM   26  C   UNL     1     -10.957  13.090  65.736  1.00  0.00    -0.299 A  
HETATM   27  C   UNL     1      -8.838  15.235  67.767  1.00  0.00    -0.174 A  
HETATM   28  C   UNL     1     -11.777  13.955  64.996  1.00  0.00    -0.365 A  
HETATM   29  C   UNL     1      -8.561  16.499  68.300  1.00  0.00    -0.200 A  
HETATM   30  C   UNL     1     -12.283  13.583  63.748  1.00  0.00    -0.449 A  
HETATM   31  C   UNL     1     -11.979  12.339  63.209  1.00  0.00    -0.499 A  
HETATM   32  C   UNL     1      -9.596  17.396  68.561  1.00  0.00    -0.298 A  
HETATM   33  C   UNL     1     -10.906  17.044  68.263  1.00  0.00    -0.341 A  
HETATM   34  C   UNL     1     -11.150  11.471  63.909  1.00  0.00    -0.458 A  
HETATM   35  C   UNL     1     -10.638  11.849  65.155  1.00  0.00    -0.333 A  
HETATM   36  C   UNL     1     -11.185  15.782  67.742  1.00  0.00    -0.286 A  
ENDBRANCH  22  23
ENDBRANCH  20  22
ENDBRANCH  16  20
ENDBRANCH  13  15
ENDBRANCH  11  13
BRANCH  12  37
HETATM   37  C   UNL     1      -8.952   6.210  70.269  1.00  0.00    -0.154 A  
HETATM   38  O   UNL     1     -11.919   7.776  72.703  1.00  0.00    -0.298 OA 
HETATM   39  C   UNL     1      -9.930   6.813  71.084  1.00  0.00    -0.194 A  
HETATM   40  O   UNL     1     -13.475   7.330  71.222  1.00  0.00    -0.369 OA 
HETATM   41  C   UNL     1     -10.681   5.683  68.645  1.00  0.00    -0.249 A  
HETATM   42  C   UNL     1     -11.276   6.795  70.700  1.00  0.00    -0.312 A  
HETATM   43  N   UNL     1     -12.296   7.343  71.605  1.00  0.00    -0.326 N  
HETATM   44  C   UNL     1     -11.656   6.234  69.478  1.00  0.00    -0.238 A  
HETATM   45  C   UNL     1      -9.340   5.666  69.039  1.00  0.00    -0.150 A  
ENDBRANCH  12  37
ENDBRANCH   3   5
ENDBRANCH   2   3
TORSDOF 8
ENDMDL
MODEL       50
REMARK 921   NORMALIZED FREE ENERGY PREDICTED BY IDOCK:   -5.90 KCAL/MOL
REMARK 922        TOTAL FREE ENERGY PREDICTED BY IDOCK:  -10.56 KCAL/MOL
REMARK 923 INTER-LIGAND FREE ENERGY PREDICTED BY IDOCK:   -9.93 KCAL/MOL
REMARK 924 INTRA-LIGAND FREE ENERGY PREDICTED BY IDOCK:   -0.63 KCAL/MOL
REMARK 927      BINDING AFFINITY PREDICTED BY RF-SCORE:    0.00 PKD
ROOT
HETATM    1  C   UNL     1     -10.307   5.254  72.470  1.00  0.00    -0.201 C  
HETATM    2  O   UNL     1     -11.162   6.311  72.024  1.00  0.00    -0.252 OA 
ENDROOT
BRANCH   2   3
HETATM    3  C   UNL     1     -10.923   7.496  72.649  1.00  0.00    -0.336 C  
HETATM    4  O   UNL     1     -10.578   7.598  73.816  1.00  0.00    -0.248 OA 
BRANCH   3   5
HETATM    5  C   UNL     1     -11.134   8.637  71.718  1.00  0.00    -0.396 C  
HETATM    6  C   UNL     1     -12.343   9.242  71.613  1.00  0.00    -0.372 C  
HETATM    7  N   UNL     1     -12.486  10.342  70.787  1.00  0.00    -0.341 NA 
HETATM    8  C   UNL     1     -13.631   8.851  72.299  1.00  0.00    -0.513 C  
HETATM    9  C   UNL     1     -11.542  10.793  69.889  1.00  0.00    -0.331 C  
HETATM   10  C   UNL     1     -11.991  11.937  69.005  1.00  0.00    -0.321 C  
HETATM   11  C   UNL     1     -10.317  10.216  69.858  1.00  0.00    -0.308 C  
HETATM   12  C   UNL     1      -9.941   9.115  70.860  1.00  0.00    -0.357 C  
BRANCH  11  13
HETATM   13  C   UNL     1      -9.380  10.634  68.783  1.00  0.00    -0.180 C  
HETATM   14  O   UNL     1      -9.462  10.213  67.639  1.00  0.00    -0.146 OA 
BRANCH  13  15
HETATM   15  O   UNL     1      -8.512  11.584  69.204  1.00  0.00     0.037 OA 
HETATM   16  C   UNL     1      -6.377  12.826  69.219  1.00  0.00    -0.108 C  
HETATM   17  C   UNL     1      -7.573  12.244  67.056  1.00  0.00    -0.071 C  
HETATM   18  C   UNL     1      -7.255  11.756  68.479  1.00  0.00    -0.095 C  
HETATM   19  C   UNL     1      -6.397  10.470  68.448  1.00  0.00    -0.054 C  
BRANCH  16  20
HETATM   20  N   UNL     1      -6.891  14.213  69.357  1.00  0.00    -0.120 NA 
HETATM   21  C   UNL     1      -5.820  15.188  69.130  1.00  0.00    -0.098 C  
BRANCH  20  22
HETATM   22  C   UNL     1      -7.940  14.486  68.351  1.00  0.00    -0.141 C  
BRANCH  22  23
HETATM   23  C   UNL     1      -9.350  14.729  68.893  1.00  0.00    -0.184 C  
HETATM   24  C   UNL     1      -9.601  16.061  69.646  1.00  0.00    -0.120 C  
HETATM   25  C   UNL     1     -10.953  15.925  70.366  1.00  0.00    -0.361 A  
HETATM   26  C   UNL     1      -9.416  17.280  68.739  1.00  0.00    -0.256 A  
HETATM   27  C   UNL     1     -11.027  16.059  71.761  1.00  0.00     0.355 A  
HETATM   28  C   UNL     1     -10.441  17.834  67.957  1.00  0.00    -0.399 A  
HETATM   29  C   UNL     1     -12.197  15.716  72.447  1.00  0.00    -0.538 A  
HETATM   30  C   UNL     1     -10.186  18.868  67.053  1.00  0.00    -0.437 A  
HETATM   31  C   UNL     1      -8.901  19.376  66.912  1.00  0.00    -0.345 A  
HETATM   32  C   UNL     1     -13.312  15.252  71.751  1.00  0.00    -0.540 A  
HETATM   33  C   UNL     1     -13.273  15.159  70.366  1.00  0.00    -0.169 A  
HETATM   34  C   UNL     1      -7.869  18.863  67.690  1.00  0.00    -0.265 A  
HETATM   35  C   UNL     1      -8.129  17.832  68.600  1.00  0.00    -0.277 A  
HETATM   36  C   UNL     1     -12.105  15.492  69.681  1.00  0.00    -0.352 A  
ENDBRANCH  22  23
ENDBRANCH  20  22
ENDBRANCH  16  20
ENDBRANCH  13  15
ENDBRANCH  11  13
BRANCH  12  37
HETATM   37  C   UNL     1      -9.245   7.946  70.157  1.00  0.00    -0.153 A  
HETATM   38  O   UNL     1     -11.165   5.808  67.171  1.00  0.00    -0.072 OA 
HETATM   39  C   UNL     1      -9.888   7.281  69.094  1.00  0.00    -0.166 A  
HETATM   40  O   UNL     1      -9.473   4.427  66.965  1.00  0.00    -0.149 OA 
HETATM   41  C   UNL     1      -7.385   6.394  69.954  1.00  0.00    -0.082 A  
HETATM   42  C   UNL     1      -9.303   6.149  68.513  1.00  0.00    -0.117 A  
HETATM   43  N   UNL     1     -10.031   5.411  67.472  1.00  0.00    -0.153 N  
HETATM   44  C   UNL     1      -8.049   5.705  68.938  1.00  0.00    -0.100 A  
HETATM   45  C   UNL     1      -7.980   7.503  70.563  1.00  0.00    -0.098 A  
ENDBRANCH  12  37
ENDBRANCH   3   5
ENDBRANCH   2   3
TORSDOF 8
ENDMDL
MODEL       51
REMARK 921   NORMALIZED FREE ENERGY PREDICTED BY IDOCK:   -5.88 KCAL/MOL
REMARK 922        TOTAL FREE ENERGY PREDICTED BY IDOCK:  -10.54 KCAL/MOL
REMARK 923 INTER-LIGAND FREE ENERGY PREDICTED BY IDOCK:  -10.06 KCAL/MOL
REMARK 924 INTRA-LIGAND FREE ENERGY PREDICTED BY IDOCK:   -0.48 KCAL/MOL
REMARK 927      BINDING AFFINITY PREDICTED BY RF-SCORE:    0.00 PKD
ROOT
HETATM    1  C   UNL     1      -7.287   2.605  66.922  1.00  0.00    -0.065 C  
HETATM    2  O   UNL     1      -7.934   3.459  67.872  1.00  0.00    -0.078 OA 
ENDROOT
BRANCH   2   3
HETATM    3  C   UNL     1      -7.275   3.538  69.059  1.00  0.00    -0.049 C  
HETATM    4  O   UNL     1      -6.072   3.370  69.189  1.00  0.00    -0.026 OA 
BRANCH   3   5
HETATM    5  C   UNL     1      -8.216   3.858  70.166  1.00  0.00    -0.071 C  
HETATM    6  C   UNL     1      -9.149   2.962  70.574  1.00  0.00    -0.120 C  
HETATM    7  N   UNL     1      -9.964   3.268  71.650  1.00  0.00    -0.143 NA 
HETATM    8  C   UNL     1      -9.452   1.609  69.974  1.00  0.00    -0.139 C  
HETATM    9  C   UNL     1     -10.053   4.502  72.257  1.00  0.00    -0.191 C  
HETATM   10  C   UNL     1     -11.116   4.616  73.329  1.00  0.00    -0.403 C  
HETATM   11  C   UNL     1      -9.213   5.497  71.881  1.00  0.00    -0.156 C  
HETATM   12  C   UNL     1      -8.113   5.245  70.839  1.00  0.00    -0.107 C  
BRANCH  11  13
HETATM   13  C   UNL     1      -9.435   6.848  72.458  1.00  0.00    -0.138 C  
HETATM   14  O   UNL     1      -9.161   7.121  73.617  1.00  0.00    -0.155 OA 
BRANCH  13  15
HETATM   15  O   UNL     1      -9.878   7.731  71.532  1.00  0.00    -0.165 OA 
HETATM   16  C   UNL     1     -11.582   8.892  70.173  1.00  0.00     0.042 C  
HETATM   17  C   UNL     1     -11.882   8.524  72.667  1.00  0.00    -0.311 C  
HETATM   18  C   UNL     1     -11.319   7.915  71.372  1.00  0.00    -0.252 C  
HETATM   19  C   UNL     1     -12.056   6.606  71.006  1.00  0.00    -0.384 C  
BRANCH  16  20
HETATM   20  N   UNL     1     -11.060  10.281  70.243  1.00  0.00    -0.302 NA 
HETATM   21  C   UNL     1      -9.699  10.353  69.703  1.00  0.00    -0.124 C  
BRANCH  20  22
HETATM   22  C   UNL     1     -11.893  11.194  69.430  1.00  0.00    -0.345 C  
BRANCH  22  23
HETATM   23  C   UNL     1     -11.418  11.448  67.998  1.00  0.00    -0.377 C  
HETATM   24  C   UNL     1     -11.952  12.718  67.287  1.00  0.00    -0.345 C  
HETATM   25  C   UNL     1     -11.613  12.577  65.794  1.00  0.00    -0.439 A  
HETATM   26  C   UNL     1     -11.499  14.004  67.984  1.00  0.00    -0.342 A  
HETATM   27  C   UNL     1     -12.635  12.591  64.833  1.00  0.00    -0.469 A  
HETATM   28  C   UNL     1     -10.296  14.666  67.693  1.00  0.00    -0.233 A  
HETATM   29  C   UNL     1     -12.369  12.238  63.506  1.00  0.00    -0.670 A  
HETATM   30  C   UNL     1      -9.873  15.765  68.447  1.00  0.00    -0.206 A  
HETATM   31  C   UNL     1     -10.643  16.228  69.506  1.00  0.00    -0.314 A  
HETATM   32  C   UNL     1     -11.078  11.885  63.116  1.00  0.00    -0.267 A  
HETATM   33  C   UNL     1     -10.044  11.911  64.043  1.00  0.00    -0.361 A  
HETATM   34  C   UNL     1     -11.850  15.606  69.803  1.00  0.00    -0.376 A  
HETATM   35  C   UNL     1     -12.276  14.511  69.042  1.00  0.00    -0.215 A  
HETATM   36  C   UNL     1     -10.309  12.254  65.368  1.00  0.00    -0.298 A  
ENDBRANCH  22  23
ENDBRANCH  20  22
ENDBRANCH  16  20
ENDBRANCH  13  15
ENDBRANCH  11  13
BRANCH  12  37
HETATM   37  C   UNL     1      -8.067   6.374  69.806  1.00  0.00    -0.121 A  
HETATM   38  O   UNL     1     -11.051   6.778  66.957  1.00  0.00    -0.403 OA 
HETATM   39  C   UNL     1      -9.129   6.536  68.894  1.00  0.00    -0.131 A  
HETATM   40  O   UNL     1     -10.028   8.473  66.014  1.00  0.00    -0.191 OA 
HETATM   41  C   UNL     1      -6.916   8.229  68.738  1.00  0.00    -0.067 A  
HETATM   42  C   UNL     1      -9.049   7.501  67.883  1.00  0.00    -0.130 A  
HETATM   43  N   UNL     1     -10.122   7.593  66.882  1.00  0.00    -0.257 N  
HETATM   44  C   UNL     1      -7.945   8.353  67.804  1.00  0.00    -0.111 A  
HETATM   45  C   UNL     1      -6.973   7.245  69.728  1.00  0.00    -0.057 A  
ENDBRANCH  12  37
ENDBRANCH   3   5
ENDBRANCH   2   3
TORSDOF 8
ENDMDL
MODEL       52
REMARK 921   NORMALIZED FREE ENERGY PREDICTED BY IDOCK:   -5.88 KCAL/MOL
REMARK 922        TOTAL FREE ENERGY PREDICTED BY IDOCK:  -10.54 KCAL/MOL
REMARK 923 INTER-LIGAND FREE ENERGY PREDICTED BY IDOCK:   -9.24 KCAL/MOL
REMARK 924 INTRA-LIGAND FREE ENERGY PREDICTED BY IDOCK:   -1.30 KCAL/MOL
REMARK 927      BINDING AFFINITY PREDICTED BY RF-SCORE:    0.00 PKD
ROOT
HETATM    1  C   UNL     1     -10.334  20.094  68.871  1.00  0.00    -0.075 C  
HETATM    2  O   UNL     1     -10.281  18.664  68.907  1.00  0.00    -0.368 OA 
ENDROOT
BRANCH   2   3
HETATM    3  C   UNL     1     -10.062  18.103  67.688  1.00  0.00    -0.359 C  
HETATM    4  O   UNL     1     -10.783  18.269  66.716  1.00  0.00    -0.342 OA 
BRANCH   3   5
HETATM    5  C   UNL     1      -8.830  17.269  67.702  1.00  0.00    -0.220 C  
HETATM    6  C   UNL     1      -7.720  17.644  67.019  1.00  0.00    -0.209 C  
HETATM    7  N   UNL     1      -6.572  16.878  67.107  1.00  0.00    -0.170 NA 
HETATM    8  C   UNL     1      -7.560  18.840  66.109  1.00  0.00    -0.286 C  
HETATM    9  C   UNL     1      -6.487  15.633  67.693  1.00  0.00    -0.165 C  
HETATM   10  C   UNL     1      -5.149  14.943  67.545  1.00  0.00     0.181 C  
HETATM   11  C   UNL     1      -7.560  15.126  68.348  1.00  0.00    -0.117 C  
HETATM   12  C   UNL     1      -8.845  15.952  68.510  1.00  0.00    -0.195 C  
BRANCH  11  13
HETATM   13  C   UNL     1      -7.474  13.727  68.841  1.00  0.00    -0.056 C  
HETATM   14  O   UNL     1      -7.027  13.444  69.942  1.00  0.00     0.176 OA 
BRANCH  13  15
HETATM   15  O   UNL     1      -8.027  12.846  67.974  1.00  0.00    -0.134 OA 
HETATM   16  C   UNL     1      -8.159  10.738  66.694  1.00  0.00    -0.142 C  
HETATM   17  C   UNL     1      -7.556  10.772  69.160  1.00  0.00    -0.133 C  
HETATM   18  C   UNL     1      -7.416  11.527  67.829  1.00  0.00    -0.101 C  
HETATM   19  C   UNL     1      -5.937  11.596  67.381  1.00  0.00    -0.096 C  
BRANCH  16  20
HETATM   20  N   UNL     1      -9.605  10.434  66.852  1.00  0.00    -0.168 NA 
HETATM   21  C   UNL     1     -10.351  10.822  65.652  1.00  0.00    -0.230 C  
BRANCH  20  22
HETATM   22  C   UNL     1      -9.817   8.983  67.039  1.00  0.00    -0.209 C  
BRANCH  22  23
HETATM   23  C   UNL     1      -9.861   8.487  68.486  1.00  0.00    -0.186 C  
HETATM   24  C   UNL     1     -10.657   7.186  68.767  1.00  0.00    -0.219 C  
HETATM   25  C   UNL     1     -10.833   7.085  70.292  1.00  0.00    -0.283 A  
HETATM   26  C   UNL     1     -10.052   5.974  68.055  1.00  0.00    -0.187 A  
HETATM   27  C   UNL     1     -12.118   7.034  70.852  1.00  0.00    -0.403 A  
HETATM   28  C   UNL     1      -9.046   5.166  68.608  1.00  0.00    -0.135 A  
HETATM   29  C   UNL     1     -12.298   7.170  72.233  1.00  0.00    -0.137 A  
HETATM   30  C   UNL     1      -8.442   4.149  67.864  1.00  0.00    -0.102 A  
HETATM   31  C   UNL     1      -8.831   3.913  66.552  1.00  0.00    -0.125 A  
HETATM   32  C   UNL     1     -11.198   7.341  73.073  1.00  0.00    -0.309 A  
HETATM   33  C   UNL     1      -9.916   7.347  72.541  1.00  0.00    -0.228 A  
HETATM   34  C   UNL     1      -9.841   4.683  65.985  1.00  0.00    -0.236 A  
HETATM   35  C   UNL     1     -10.449   5.696  66.734  1.00  0.00    -0.353 A  
HETATM   36  C   UNL     1      -9.735   7.220  71.165  1.00  0.00    -0.171 A  
ENDBRANCH  22  23
ENDBRANCH  20  22
ENDBRANCH  16  20
ENDBRANCH  13  15
ENDBRANCH  11  13
BRANCH  12  37
HETATM   37  C   UNL     1     -10.083  15.108  68.195  1.00  0.00    -0.222 A  
HETATM   38  O   UNL     1     -11.154  14.275  64.279  1.00  0.00    -0.274 OA 
HETATM   39  C   UNL     1     -10.386  14.775  66.860  1.00  0.00    -0.267 A  
HETATM   40  O   UNL     1     -12.961  13.209  64.919  1.00  0.00    -0.734 OA 
HETATM   41  C   UNL     1     -12.105  13.958  68.902  1.00  0.00    -0.355 A  
HETATM   42  C   UNL     1     -11.569  14.091  66.555  1.00  0.00    -0.374 A  
HETATM   43  N   UNL     1     -11.917  13.837  65.150  1.00  0.00    -0.360 N  
HETATM   44  C   UNL     1     -12.430  13.677  67.574  1.00  0.00     0.117 A  
HETATM   45  C   UNL     1     -10.943  14.673  69.210  1.00  0.00    -0.278 A  
ENDBRANCH  12  37
ENDBRANCH   3   5
ENDBRANCH   2   3
TORSDOF 8
ENDMDL
MODEL       53
REMARK 921   NORMALIZED FREE ENERGY PREDICTED BY IDOCK:   -5.80 KCAL/MOL
REMARK 922        TOTAL FREE ENERGY PREDICTED BY IDOCK:  -10.42 KCAL/MOL
REMARK 923 INTER-LIGAND FREE ENERGY PREDICTED BY IDOCK:   -9.51 KCAL/MOL
REMARK 924 INTRA-LIGAND FREE ENERGY PREDICTED BY IDOCK:   -0.92 KCAL/MOL
REMARK 927      BINDING AFFINITY PREDICTED BY RF-SCORE:    0.00 PKD
ROOT
HETATM    1  C   UNL     1      -5.452   7.370  67.289  1.00  0.00    -0.029 C  
HETATM    2  O   UNL     1      -5.531   6.660  68.529  1.00  0.00    -0.014 OA 
ENDROOT
BRANCH   2   3
HETATM    3  C   UNL     1      -5.880   7.450  69.580  1.00  0.00    -0.023 C  
HETATM    4  O   UNL     1      -5.350   8.519  69.840  1.00  0.00    -0.028 OA 
BRANCH   3   5
HETATM    5  C   UNL     1      -6.991   6.836  70.358  1.00  0.00    -0.063 C  
HETATM    6  C   UNL     1      -6.744   5.924  71.330  1.00  0.00    -0.058 C  
HETATM    7  N   UNL     1      -7.795   5.422  72.078  1.00  0.00    -0.104 NA 
HETATM    8  C   UNL     1      -5.411   5.331  71.721  1.00  0.00    -0.009 C  
HETATM    9  C   UNL     1      -9.132   5.624  71.809  1.00  0.00    -0.135 C  
HETATM   10  C   UNL     1     -10.089   4.861  72.699  1.00  0.00    -0.222 C  
HETATM   11  C   UNL     1      -9.496   6.467  70.812  1.00  0.00    -0.180 C  
HETATM   12  C   UNL     1      -8.440   7.257  70.026  1.00  0.00    -0.139 C  
BRANCH  11  13
HETATM   13  C   UNL     1     -10.938   6.547  70.463  1.00  0.00    -0.294 C  
HETATM   14  O   UNL     1     -11.653   5.559  70.395  1.00  0.00     0.282 OA 
BRANCH  13  15
HETATM   15  O   UNL     1     -11.360   7.826  70.329  1.00  0.00    -0.252 OA 
HETATM   16  C   UNL     1     -12.700   9.819  70.904  1.00  0.00    -0.247 C  
HETATM   17  C   UNL     1     -11.524   8.438  72.681  1.00  0.00    -0.359 C  
HETATM   18  C   UNL     1     -12.266   8.374  71.336  1.00  0.00    -0.302 C  
HETATM   19  C   UNL     1     -13.582   7.571  71.463  1.00  0.00    -0.439 C  
BRANCH  16  20
HETATM   20  N   UNL     1     -11.663  10.874  70.761  1.00  0.00    -0.312 NA 
HETATM   21  C   UNL     1     -10.429  10.315  70.199  1.00  0.00    -0.203 C  
BRANCH  20  22
HETATM   22  C   UNL     1     -12.117  11.932  69.833  1.00  0.00    -0.272 C  
BRANCH  22  23
HETATM   23  C   UNL     1     -11.578  11.854  68.403  1.00  0.00    -0.376 C  
HETATM   24  C   UNL     1     -11.748  13.111  67.511  1.00  0.00    -0.414 C  
HETATM   25  C   UNL     1     -11.444  12.684  66.066  1.00  0.00    -0.414 A  
HETATM   26  C   UNL     1     -10.974  14.315  68.056  1.00  0.00    -0.261 A  
HETATM   27  C   UNL     1     -12.417  12.835  65.066  1.00  0.00    -0.572 A  
HETATM   28  C   UNL     1      -9.636  14.592  67.738  1.00  0.00    -0.215 A  
HETATM   29  C   UNL     1     -12.241  12.247  63.808  1.00  0.00    -0.642 A  
HETATM   30  C   UNL     1      -8.942  15.632  68.362  1.00  0.00    -0.185 A  
HETATM   31  C   UNL     1      -9.570  16.422  69.317  1.00  0.00    -0.198 A  
HETATM   32  C   UNL     1     -11.088  11.517  63.526  1.00  0.00    -0.434 A  
HETATM   33  C   UNL     1     -10.093  11.397  64.488  1.00  0.00    -0.337 A  
HETATM   34  C   UNL     1     -10.902  16.185  69.636  1.00  0.00    -0.338 A  
HETATM   35  C   UNL     1     -11.597  15.148  69.004  1.00  0.00    -0.350 A  
HETATM   36  C   UNL     1     -10.270  11.974  65.744  1.00  0.00    -0.274 A  
ENDBRANCH  22  23
ENDBRANCH  20  22
ENDBRANCH  16  20
ENDBRANCH  13  15
ENDBRANCH  11  13
BRANCH  12  37
HETATM   37  C   UNL     1      -8.716   7.196  68.520  1.00  0.00    -0.126 A  
HETATM   38  O   UNL     1      -8.751   3.574  66.506  1.00  0.00    -0.112 OA 
HETATM   39  C   UNL     1      -8.796   5.948  67.871  1.00  0.00    -0.105 A  
HETATM   40  O   UNL     1      -9.093   4.562  64.578  1.00  0.00    -0.150 OA 
HETATM   41  C   UNL     1      -9.058   8.293  66.378  1.00  0.00    -0.226 A  
HETATM   42  C   UNL     1      -8.948   5.886  66.480  1.00  0.00    -0.131 A  
HETATM   43  N   UNL     1      -8.933   4.579  65.807  1.00  0.00    -0.126 N  
HETATM   44  C   UNL     1      -9.084   7.057  65.730  1.00  0.00     0.017 A  
HETATM   45  C   UNL     1      -8.871   8.362  67.762  1.00  0.00    -0.137 A  
ENDBRANCH  12  37
ENDBRANCH   3   5
ENDBRANCH   2   3
TORSDOF 8
ENDMDL
MODEL       54
REMARK 921   NORMALIZED FREE ENERGY PREDICTED BY IDOCK:   -5.77 KCAL/MOL
REMARK 922        TOTAL FREE ENERGY PREDICTED BY IDOCK:  -10.39 KCAL/MOL
REMARK 923 INTER-LIGAND FREE ENERGY PREDICTED BY IDOCK:  -10.71 KCAL/MOL
REMARK 924 INTRA-LIGAND FREE ENERGY PREDICTED BY IDOCK:    0.32 KCAL/MOL
REMARK 927      BINDING AFFINITY PREDICTED BY RF-SCORE:    0.00 PKD
ROOT
HETATM    1  C   UNL     1     -10.779  18.955  67.613  1.00  0.00    -0.394 C  
HETATM    2  O   UNL     1     -10.627  17.535  67.725  1.00  0.00    -0.370 OA 
ENDROOT
BRANCH   2   3
HETATM    3  C   UNL     1     -10.031  16.972  66.640  1.00  0.00    -0.302 C  
HETATM    4  O   UNL     1     -10.442  17.082  65.496  1.00  0.00    -0.572 OA 
BRANCH   3   5
HETATM    5  C   UNL     1      -8.816  16.212  67.040  1.00  0.00    -0.231 C  
HETATM    6  C   UNL     1      -7.580  16.603  66.640  1.00  0.00    -0.279 C  
HETATM    7  N   UNL     1      -6.468  15.911  67.084  1.00  0.00    -0.300 NA 
HETATM    8  C   UNL     1      -7.231  17.741  65.710  1.00  0.00    -0.154 C  
HETATM    9  C   UNL     1      -6.494  14.714  67.769  1.00  0.00    -0.164 C  
HETATM   10  C   UNL     1      -5.139  14.093  68.028  1.00  0.00    -0.095 C  
HETATM   11  C   UNL     1      -7.681  14.193  68.162  1.00  0.00    -0.140 C  
HETATM   12  C   UNL     1      -8.993  14.953  67.919  1.00  0.00    -0.177 C  
BRANCH  11  13
HETATM   13  C   UNL     1      -7.676  12.837  68.770  1.00  0.00     0.007 C  
HETATM   14  O   UNL     1      -7.104  12.590  69.821  1.00  0.00     0.238 OA 
BRANCH  13  15
HETATM   15  O   UNL     1      -8.444  11.964  68.076  1.00  0.00    -0.146 OA 
HETATM   16  C   UNL     1      -8.877   9.969  66.686  1.00  0.00    -0.132 C  
HETATM   17  C   UNL     1      -7.355   9.881  68.716  1.00  0.00    -0.078 C  
HETATM   18  C   UNL     1      -7.822  10.755  67.541  1.00  0.00    -0.109 C  
HETATM   19  C   UNL     1      -6.653  11.057  66.574  1.00  0.00    -0.132 C  
BRANCH  16  20
HETATM   20  N   UNL     1     -10.109   9.462  67.345  1.00  0.00    -0.200 NA 
HETATM   21  C   UNL     1     -10.518   8.180  66.765  1.00  0.00    -0.246 C  
BRANCH  20  22
HETATM   22  C   UNL     1      -9.872   9.226  68.786  1.00  0.00    -0.165 C  
BRANCH  22  23
HETATM   23  C   UNL     1      -9.780   7.763  69.224  1.00  0.00    -0.165 C  
HETATM   24  C   UNL     1      -9.965   7.461  70.734  1.00  0.00    -0.182 C  
HETATM   25  C   UNL     1      -9.505   6.012  70.965  1.00  0.00    -0.187 A  
HETATM   26  C   UNL     1     -11.366   7.833  71.229  1.00  0.00    -0.289 A  
HETATM   27  C   UNL     1      -8.464   5.736  71.864  1.00  0.00    -0.127 A  
HETATM   28  C   UNL     1     -12.464   6.961  71.188  1.00  0.00    -0.398 A  
HETATM   29  C   UNL     1      -7.886   4.463  71.915  1.00  0.00    -0.085 A  
HETATM   30  C   UNL     1     -13.747   7.394  71.536  1.00  0.00    -0.467 A  
HETATM   31  C   UNL     1     -13.960   8.707  71.937  1.00  0.00    -0.501 A  
HETATM   32  C   UNL     1      -8.350   3.445  71.083  1.00  0.00    -0.088 A  
HETATM   33  C   UNL     1      -9.412   3.687  70.221  1.00  0.00    -0.257 A  
HETATM   34  C   UNL     1     -12.886   9.587  72.009  1.00  0.00    -0.499 A  
HETATM   35  C   UNL     1     -11.602   9.149  71.667  1.00  0.00    -0.449 A  
HETATM   36  C   UNL     1      -9.983   4.957  70.163  1.00  0.00    -0.325 A  
ENDBRANCH  22  23
ENDBRANCH  20  22
ENDBRANCH  16  20
ENDBRANCH  13  15
ENDBRANCH  11  13
BRANCH  12  37
HETATM   37  C   UNL     1     -10.073  14.021  67.362  1.00  0.00    -0.244 A  
HETATM   38  O   UNL     1      -9.915  12.677  63.444  1.00  0.00    -0.329 OA 
HETATM   39  C   UNL     1      -9.960  13.518  66.051  1.00  0.00    -0.308 A  
HETATM   40  O   UNL     1     -11.822  11.613  63.651  1.00  0.00    -0.420 OA 
HETATM   41  C   UNL     1     -12.204  12.872  67.580  1.00  0.00    -0.077 A  
HETATM   42  C   UNL     1     -10.991  12.748  65.499  1.00  0.00    -0.280 A  
HETATM   43  N   UNL     1     -10.900  12.312  64.099  1.00  0.00    -0.332 N  
HETATM   44  C   UNL     1     -12.114  12.419  66.263  1.00  0.00    -0.256 A  
HETATM   45  C   UNL     1     -11.194  13.671  68.124  1.00  0.00    -0.303 A  
ENDBRANCH  12  37
ENDBRANCH   3   5
ENDBRANCH   2   3
TORSDOF 8
ENDMDL
MODEL       55
REMARK 921   NORMALIZED FREE ENERGY PREDICTED BY IDOCK:   -5.74 KCAL/MOL
REMARK 922        TOTAL FREE ENERGY PREDICTED BY IDOCK:  -10.34 KCAL/MOL
REMARK 923 INTER-LIGAND FREE ENERGY PREDICTED BY IDOCK:   -9.50 KCAL/MOL
REMARK 924 INTRA-LIGAND FREE ENERGY PREDICTED BY IDOCK:   -0.84 KCAL/MOL
REMARK 927      BINDING AFFINITY PREDICTED BY RF-SCORE:    0.00 PKD
ROOT
HETATM    1  C   UNL     1      -9.931   6.240  74.316  1.00  0.00    -0.310 C  
HETATM    2  O   UNL     1      -9.038   6.374  73.204  1.00  0.00    -0.130 OA 
ENDROOT
BRANCH   2   3
HETATM    3  C   UNL     1      -9.576   5.950  72.029  1.00  0.00    -0.149 C  
HETATM    4  O   UNL     1      -9.772   4.777  71.748  1.00  0.00    -0.152 OA 
BRANCH   3   5
HETATM    5  C   UNL     1      -9.891   7.103  71.144  1.00  0.00    -0.180 C  
HETATM    6  C   UNL     1     -11.157   7.576  71.032  1.00  0.00    -0.257 C  
HETATM    7  N   UNL     1     -11.403   8.691  70.251  1.00  0.00    -0.194 NA 
HETATM    8  C   UNL     1     -12.409   7.014  71.663  1.00  0.00    -0.407 C  
HETATM    9  C   UNL     1     -10.494   9.285  69.401  1.00  0.00    -0.219 C  
HETATM   10  C   UNL     1     -11.046  10.413  68.556  1.00  0.00    -0.318 C  
HETATM   11  C   UNL     1      -9.212   8.848  69.379  1.00  0.00    -0.146 C  
HETATM   12  C   UNL     1      -8.739   7.749  70.342  1.00  0.00    -0.139 C  
BRANCH  11  13
HETATM   13  C   UNL     1      -8.302   9.416  68.350  1.00  0.00    -0.119 C  
HETATM   14  O   UNL     1      -8.056   8.841  67.301  1.00  0.00    -0.100 OA 
BRANCH  13  15
HETATM   15  O   UNL     1      -7.873  10.657  68.679  1.00  0.00    -0.105 OA 
HETATM   16  C   UNL     1      -6.619  12.759  68.349  1.00  0.00    -0.083 C  
HETATM   17  C   UNL     1      -7.990  11.712  66.487  1.00  0.00    -0.053 C  
HETATM   18  C   UNL     1      -7.094  11.412  67.700  1.00  0.00    -0.092 C  
HETATM   19  C   UNL     1      -5.800  10.684  67.269  1.00  0.00    -0.046 C  
BRANCH  16  20
HETATM   20  N   UNL     1      -7.636  13.738  68.812  1.00  0.00    -0.125 NA 
HETATM   21  C   UNL     1      -7.026  14.750  69.679  1.00  0.00    -0.172 C  
BRANCH  20  22
HETATM   22  C   UNL     1      -8.231  14.457  67.665  1.00  0.00    -0.176 C  
BRANCH  22  23
HETATM   23  C   UNL     1      -8.537  15.940  67.882  1.00  0.00    -0.164 C  
HETATM   24  C   UNL     1     -10.021  16.381  67.786  1.00  0.00    -0.248 C  
HETATM   25  C   UNL     1     -10.032  17.916  67.705  1.00  0.00    -0.331 A  
HETATM   26  C   UNL     1     -10.885  15.736  68.873  1.00  0.00    -0.260 A  
HETATM   27  C   UNL     1     -10.611  18.561  66.602  1.00  0.00    -0.383 A  
HETATM   28  C   UNL     1     -11.076  16.289  70.149  1.00  0.00    -0.346 A  
HETATM   29  C   UNL     1     -10.429  19.934  66.404  1.00  0.00    -0.589 A  
HETATM   30  C   UNL     1     -11.772  15.596  71.143  1.00  0.00    -0.461 A  
HETATM   31  C   UNL     1     -12.296  14.336  70.885  1.00  0.00    -0.429 A  
HETATM   32  C   UNL     1      -9.684  20.684  67.312  1.00  0.00    -0.562 A  
HETATM   33  C   UNL     1      -9.144  20.072  68.436  1.00  0.00    -0.192 A  
HETATM   34  C   UNL     1     -12.142  13.772  69.623  1.00  0.00    -0.392 A  
HETATM   35  C   UNL     1     -11.452  14.471  68.627  1.00  0.00    -0.321 A  
HETATM   36  C   UNL     1      -9.316  18.702  68.630  1.00  0.00    -0.375 A  
ENDBRANCH  22  23
ENDBRANCH  20  22
ENDBRANCH  16  20
ENDBRANCH  13  15
ENDBRANCH  11  13
BRANCH  12  37
HETATM   37  C   UNL     1      -7.901   6.698  69.608  1.00  0.00    -0.115 A  
HETATM   38  O   UNL     1      -9.647   4.097  66.894  1.00  0.00    -0.185 OA 
HETATM   39  C   UNL     1      -8.502   5.874  68.636  1.00  0.00    -0.111 A  
HETATM   40  O   UNL     1      -7.750   3.048  66.561  1.00  0.00    -0.075 OA 
HETATM   41  C   UNL     1      -5.807   5.512  69.267  1.00  0.00    -0.016 A  
HETATM   42  C   UNL     1      -7.769   4.845  68.033  1.00  0.00    -0.083 A  
HETATM   43  N   UNL     1      -8.436   3.934  67.092  1.00  0.00    -0.099 N  
HETATM   44  C   UNL     1      -6.419   4.663  68.343  1.00  0.00    -0.037 A  
HETATM   45  C   UNL     1      -6.543   6.518  69.898  1.00  0.00    -0.048 A  
ENDBRANCH  12  37
ENDBRANCH   3   5
ENDBRANCH   2   3
TORSDOF 8
ENDMDL
MODEL       56
REMARK 921   NORMALIZED FREE ENERGY PREDICTED BY IDOCK:   -5.74 KCAL/MOL
REMARK 922        TOTAL FREE ENERGY PREDICTED BY IDOCK:  -10.33 KCAL/MOL
REMARK 923 INTER-LIGAND FREE ENERGY PREDICTED BY IDOCK:   -8.72 KCAL/MOL
REMARK 924 INTRA-LIGAND FREE ENERGY PREDICTED BY IDOCK:   -1.61 KCAL/MOL
REMARK 927      BINDING AFFINITY PREDICTED BY RF-SCORE:    0.00 PKD
ROOT
HETATM    1  C   UNL     1      -5.891  18.032  66.010  1.00  0.00    -0.205 C  
HETATM    2  O   UNL     1      -6.964  18.958  65.805  1.00  0.00    -0.260 OA 
ENDROOT
BRANCH   2   3
HETATM    3  C   UNL     1      -8.004  18.772  66.661  1.00  0.00    -0.266 C  
HETATM    4  O   UNL     1      -8.043  19.213  67.799  1.00  0.00    -0.268 OA 
BRANCH   3   5
HETATM    5  C   UNL     1      -9.079  17.966  66.021  1.00  0.00    -0.018 C  
HETATM    6  C   UNL     1     -10.211  18.551  65.556  1.00  0.00     0.294 C  
HETATM    7  N   UNL     1     -11.160  17.781  64.907  1.00  0.00    -0.638 NA 
HETATM    8  C   UNL     1     -10.610  20.004  65.667  1.00  0.00    -0.380 C  
HETATM    9  C   UNL     1     -11.160  16.403  64.843  1.00  0.00    -0.239 C  
HETATM   10  C   UNL     1     -12.380  15.791  64.188  1.00  0.00     0.245 C  
HETATM   11  C   UNL     1     -10.108  15.709  65.339  1.00  0.00    -0.370 C  
HETATM   12  C   UNL     1      -8.881  16.438  65.907  1.00  0.00    -0.170 C  
BRANCH  11  13
HETATM   13  C   UNL     1     -10.211  14.227  65.378  1.00  0.00    -0.371 C  
HETATM   14  O   UNL     1      -9.675  13.509  64.548  1.00  0.00    -0.028 OA 
BRANCH  13  15
HETATM   15  O   UNL     1     -10.877  13.791  66.473  1.00  0.00    -0.286 OA 
HETATM   16  C   UNL     1     -12.131  12.156  67.834  1.00  0.00     0.043 C  
HETATM   17  C   UNL     1     -10.022  11.512  66.576  1.00  0.00    -0.240 C  
HETATM   18  C   UNL     1     -11.284  12.389  66.534  1.00  0.00    -0.319 C  
HETATM   19  C   UNL     1     -12.207  11.979  65.363  1.00  0.00     0.032 C  
BRANCH  16  20
HETATM   20  N   UNL     1     -11.502  12.392  69.159  1.00  0.00    -0.284 NA 
HETATM   21  C   UNL     1     -12.083  13.572  69.807  1.00  0.00    -0.318 C  
BRANCH  20  22
HETATM   22  C   UNL     1     -11.740  11.245  70.063  1.00  0.00    -0.346 C  
BRANCH  22  23
HETATM   23  C   UNL     1     -10.738  10.092  69.970  1.00  0.00    -0.356 C  
HETATM   24  C   UNL     1     -10.562   9.201  71.227  1.00  0.00    -0.399 C  
HETATM   25  C   UNL     1      -9.298   8.354  71.007  1.00  0.00    -0.211 A  
HETATM   26  C   UNL     1     -11.847   8.451  71.587  1.00  0.00    -0.357 A  
HETATM   27  C   UNL     1      -8.226   8.438  71.909  1.00  0.00    -0.210 A  
HETATM   28  C   UNL     1     -12.188   7.194  71.065  1.00  0.00    -0.384 A  
HETATM   29  C   UNL     1      -6.992   7.854  71.604  1.00  0.00    -0.066 A  
HETATM   30  C   UNL     1     -13.431   6.612  71.330  1.00  0.00     0.125 A  
HETATM   31  C   UNL     1     -14.361   7.271  72.124  1.00  0.00    -0.311 A  
HETATM   32  C   UNL     1      -6.816   7.164  70.405  1.00  0.00    -0.057 A  
HETATM   33  C   UNL     1      -7.880   7.031  69.522  1.00  0.00    -0.119 A  
HETATM   34  C   UNL     1     -14.041   8.508  72.673  1.00  0.00    -0.222 A  
HETATM   35  C   UNL     1     -12.794   9.085  72.413  1.00  0.00    -0.454 A  
HETATM   36  C   UNL     1      -9.107   7.620  69.820  1.00  0.00    -0.147 A  
ENDBRANCH  22  23
ENDBRANCH  20  22
ENDBRANCH  16  20
ENDBRANCH  13  15
ENDBRANCH  11  13
BRANCH  12  37
HETATM   37  C   UNL     1      -8.444  15.822  67.239  1.00  0.00    -0.212 A  
HETATM   38  O   UNL     1      -5.141  13.327  67.449  1.00  0.00    -0.319 OA 
HETATM   39  C   UNL     1      -7.276  15.037  67.300  1.00  0.00    -0.175 A  
HETATM   40  O   UNL     1      -5.462  12.955  69.586  1.00  0.00    -0.079 OA 
HETATM   41  C   UNL     1      -8.820  15.381  69.599  1.00  0.00    -0.138 A  
HETATM   42  C   UNL     1      -6.924  14.388  68.489  1.00  0.00    -0.100 A  
HETATM   43  N   UNL     1      -5.756  13.496  68.510  1.00  0.00    -0.082 N  
HETATM   44  C   UNL     1      -7.692  14.560  69.643  1.00  0.00     0.138 A  
HETATM   45  C   UNL     1      -9.197  16.003  68.405  1.00  0.00    -0.196 A  
ENDBRANCH  12  37
ENDBRANCH   3   5
ENDBRANCH   2   3
TORSDOF 8
ENDMDL
MODEL       57
REMARK 921   NORMALIZED FREE ENERGY PREDICTED BY IDOCK:   -5.73 KCAL/MOL
REMARK 922        TOTAL FREE ENERGY PREDICTED BY IDOCK:  -10.33 KCAL/MOL
REMARK 923 INTER-LIGAND FREE ENERGY PREDICTED BY IDOCK:   -9.01 KCAL/MOL
REMARK 924 INTRA-LIGAND FREE ENERGY PREDICTED BY IDOCK:   -1.31 KCAL/MOL
REMARK 927      BINDING AFFINITY PREDICTED BY RF-SCORE:    0.00 PKD
ROOT
HETATM    1  C   UNL     1     -10.930   4.780  65.556  1.00  0.00     0.056 C  
HETATM    2  O   UNL     1      -9.839   3.855  65.495  1.00  0.00    -0.184 OA 
ENDROOT
BRANCH   2   3
HETATM    3  C   UNL     1      -9.030   3.906  66.587  1.00  0.00    -0.135 C  
HETATM    4  O   UNL     1      -9.077   3.113  67.515  1.00  0.00    -0.144 OA 
BRANCH   3   5
HETATM    5  C   UNL     1      -8.085   5.052  66.492  1.00  0.00    -0.108 C  
HETATM    6  C   UNL     1      -7.019   5.014  65.655  1.00  0.00    -0.063 C  
HETATM    7  N   UNL     1      -6.198   6.123  65.543  1.00  0.00    -0.036 NA 
HETATM    8  C   UNL     1      -6.566   3.860  64.792  1.00  0.00    -0.043 C  
HETATM    9  C   UNL     1      -6.247   7.235  66.357  1.00  0.00    -0.040 C  
HETATM   10  C   UNL     1      -5.156   8.256  66.115  1.00  0.00    -0.024 C  
HETATM   11  C   UNL     1      -7.233   7.349  67.279  1.00  0.00    -0.093 C  
HETATM   12  C   UNL     1      -8.341   6.290  67.380  1.00  0.00    -0.109 C  
BRANCH  11  13
HETATM   13  C   UNL     1      -7.168   8.491  68.228  1.00  0.00    -0.086 C  
HETATM   14  O   UNL     1      -6.322   8.567  69.106  1.00  0.00    -0.042 OA 
BRANCH  13  15
HETATM   15  O   UNL     1      -8.079   9.448  67.937  1.00  0.00    -0.102 OA 
HETATM   16  C   UNL     1      -9.694  11.242  68.459  1.00  0.00    -0.198 C  
HETATM   17  C   UNL     1      -7.405  11.142  69.552  1.00  0.00    -0.023 C  
HETATM   18  C   UNL     1      -8.573  10.297  69.019  1.00  0.00    -0.162 C  
HETATM   19  C   UNL     1      -9.244   9.493  70.157  1.00  0.00    -0.281 C  
BRANCH  16  20
HETATM   20  N   UNL     1      -9.355  12.212  67.385  1.00  0.00    -0.177 NA 
HETATM   21  C   UNL     1     -10.400  12.236  66.359  1.00  0.00    -0.225 C  
BRANCH  20  22
HETATM   22  C   UNL     1      -9.255  13.583  67.931  1.00  0.00    -0.211 C  
BRANCH  22  23
HETATM   23  C   UNL     1     -10.435  14.059  68.780  1.00  0.00    -0.238 C  
HETATM   24  C   UNL     1     -10.193  15.274  69.714  1.00  0.00    -0.241 C  
HETATM   25  C   UNL     1     -11.386  15.345  70.681  1.00  0.00    -0.360 A  
HETATM   26  C   UNL     1      -9.857  16.546  68.931  1.00  0.00    -0.260 A  
HETATM   27  C   UNL     1     -11.178  15.266  72.066  1.00  0.00    -0.323 A  
HETATM   28  C   UNL     1     -10.821  17.443  68.448  1.00  0.00    -0.234 A  
HETATM   29  C   UNL     1     -12.259  15.100  72.940  1.00  0.00    -0.493 A  
HETATM   30  C   UNL     1     -10.466  18.520  67.632  1.00  0.00    -0.452 A  
HETATM   31  C   UNL     1      -9.137  18.728  67.283  1.00  0.00    -0.291 A  
HETATM   32  C   UNL     1     -13.560  15.030  72.445  1.00  0.00    -0.565 A  
HETATM   33  C   UNL     1     -13.789  15.155  71.081  1.00  0.00    -0.495 A  
HETATM   34  C   UNL     1      -8.157  17.869  67.765  1.00  0.00    -0.231 A  
HETATM   35  C   UNL     1      -8.514  16.795  68.588  1.00  0.00    -0.259 A  
HETATM   36  C   UNL     1     -12.713  15.310  70.209  1.00  0.00    -0.353 A  
ENDBRANCH  22  23
ENDBRANCH  20  22
ENDBRANCH  16  20
ENDBRANCH  13  15
ENDBRANCH  11  13
BRANCH  12  37
HETATM   37  C   UNL     1      -8.593   5.898  68.839  1.00  0.00    -0.110 A  
HETATM   38  O   UNL     1     -12.226   6.705  70.664  1.00  0.00    -0.377 OA 
HETATM   39  C   UNL     1      -9.860   6.115  69.416  1.00  0.00    -0.191 A  
HETATM   40  O   UNL     1     -11.525   5.911  72.585  1.00  0.00    -0.291 OA 
HETATM   41  C   UNL     1      -7.805   5.051  70.977  1.00  0.00    -0.092 A  
HETATM   42  C   UNL     1     -10.070   5.854  70.776  1.00  0.00    -0.199 A  
HETATM   43  N   UNL     1     -11.368   6.177  71.384  1.00  0.00    -0.290 N  
HETATM   44  C   UNL     1      -9.045   5.317  71.559  1.00  0.00    -0.165 A  
HETATM   45  C   UNL     1      -7.578   5.344  69.629  1.00  0.00    -0.070 A  
ENDBRANCH  12  37
ENDBRANCH   3   5
ENDBRANCH   2   3
TORSDOF 8
ENDMDL
MODEL       58
REMARK 921   NORMALIZED FREE ENERGY PREDICTED BY IDOCK:   -5.73 KCAL/MOL
REMARK 922        TOTAL FREE ENERGY PREDICTED BY IDOCK:  -10.32 KCAL/MOL
REMARK 923 INTER-LIGAND FREE ENERGY PREDICTED BY IDOCK:   -9.69 KCAL/MOL
REMARK 924 INTRA-LIGAND FREE ENERGY PREDICTED BY IDOCK:   -0.64 KCAL/MOL
REMARK 927      BINDING AFFINITY PREDICTED BY RF-SCORE:    0.00 PKD
ROOT
HETATM    1  C   UNL     1      -8.325   2.761  73.710  1.00  0.00    -0.072 C  
HETATM    2  O   UNL     1      -8.516   3.636  72.593  1.00  0.00    -0.087 OA 
ENDROOT
BRANCH   2   3
HETATM    3  C   UNL     1      -9.521   3.240  71.766  1.00  0.00    -0.145 C  
HETATM    4  O   UNL     1     -10.532   2.668  72.140  1.00  0.00    -0.086 OA 
BRANCH   3   5
HETATM    5  C   UNL     1      -9.218   3.601  70.354  1.00  0.00    -0.216 C  
HETATM    6  C   UNL     1      -8.229   2.978  69.668  1.00  0.00    -0.047 C  
HETATM    7  N   UNL     1      -8.018   3.293  68.337  1.00  0.00    -0.058 NA 
HETATM    8  C   UNL     1      -7.259   1.942  70.186  1.00  0.00    -0.033 C  
HETATM    9  C   UNL     1      -8.609   4.340  67.663  1.00  0.00    -0.103 C  
HETATM   10  C   UNL     1      -8.113   4.556  66.249  1.00  0.00    -0.103 C  
HETATM   11  C   UNL     1      -9.566   5.078  68.276  1.00  0.00    -0.187 C  
HETATM   12  C   UNL     1     -10.053   4.716  69.687  1.00  0.00    -0.232 C  
BRANCH  11  13
HETATM   13  C   UNL     1     -10.075   6.281  67.568  1.00  0.00    -0.154 C  
HETATM   14  O   UNL     1     -11.060   6.251  66.845  1.00  0.00    -0.361 OA 
BRANCH  13  15
HETATM   15  O   UNL     1      -9.382   7.397  67.896  1.00  0.00    -0.134 OA 
HETATM   16  C   UNL     1      -8.248   9.545  67.454  1.00  0.00    -0.114 C  
HETATM   17  C   UNL     1     -10.528   9.009  66.475  1.00  0.00    -0.192 C  
HETATM   18  C   UNL     1      -9.166   8.415  66.870  1.00  0.00    -0.157 C  
HETATM   19  C   UNL     1      -8.414   7.872  65.633  1.00  0.00    -0.160 C  
BRANCH  16  20
HETATM   20  N   UNL     1      -8.719  10.328  68.625  1.00  0.00    -0.126 NA 
HETATM   21  C   UNL     1      -7.693  10.366  69.671  1.00  0.00    -0.144 C  
BRANCH  20  22
HETATM   22  C   UNL     1      -8.994  11.730  68.242  1.00  0.00    -0.180 C  
BRANCH  22  23
HETATM   23  C   UNL     1     -10.050  12.463  69.072  1.00  0.00     0.136 C  
HETATM   24  C   UNL     1     -10.400  13.915  68.653  1.00  0.00    -0.237 C  
HETATM   25  C   UNL     1     -11.208  14.535  69.805  1.00  0.00    -0.276 A  
HETATM   26  C   UNL     1     -11.022  13.979  67.255  1.00  0.00    -0.303 A  
HETATM   27  C   UNL     1     -10.745  15.692  70.450  1.00  0.00    -0.336 A  
HETATM   28  C   UNL     1     -12.397  13.855  67.007  1.00  0.00    -0.287 A  
HETATM   29  C   UNL     1     -11.342  16.133  71.636  1.00  0.00    -0.243 A  
HETATM   30  C   UNL     1     -12.896  13.795  65.703  1.00  0.00    -0.456 A  
HETATM   31  C   UNL     1     -12.032  13.860  64.617  1.00  0.00    -0.443 A  
HETATM   32  C   UNL     1     -12.419  15.437  72.183  1.00  0.00    -0.452 A  
HETATM   33  C   UNL     1     -12.921  14.318  71.533  1.00  0.00    -0.411 A  
HETATM   34  C   UNL     1     -10.666  14.006  64.832  1.00  0.00    -0.432 A  
HETATM   35  C   UNL     1     -10.170  14.074  66.139  1.00  0.00    -0.308 A  
HETATM   36  C   UNL     1     -12.322  13.872  70.357  1.00  0.00    -0.433 A  
ENDBRANCH  22  23
ENDBRANCH  20  22
ENDBRANCH  16  20
ENDBRANCH  13  15
ENDBRANCH  11  13
BRANCH  12  37
HETATM   37  C   UNL     1     -10.145   5.963  70.572  1.00  0.00    -0.254 A  
HETATM   38  O   UNL     1      -7.101   6.928  73.214  1.00  0.00    -0.075 OA 
HETATM   39  C   UNL     1      -9.066   6.312  71.409  1.00  0.00    -0.143 A  
HETATM   40  O   UNL     1      -8.211   8.658  73.981  1.00  0.00    -0.359 OA 
HETATM   41  C   UNL     1     -11.390   7.858  71.449  1.00  0.00    -0.285 A  
HETATM   42  C   UNL     1      -9.180   7.390  72.294  1.00  0.00    -0.132 A  
HETATM   43  N   UNL     1      -8.083   7.681  73.227  1.00  0.00    -0.122 N  
HETATM   44  C   UNL     1     -10.340   8.169  72.314  1.00  0.00    -0.361 A  
HETATM   45  C   UNL     1     -11.296   6.760  70.588  1.00  0.00    -0.384 A  
ENDBRANCH  12  37
ENDBRANCH   3   5
ENDBRANCH   2   3
TORSDOF 8
ENDMDL
MODEL       59
REMARK 921   NORMALIZED FREE ENERGY PREDICTED BY IDOCK:   -5.73 KCAL/MOL
REMARK 922        TOTAL FREE ENERGY PREDICTED BY IDOCK:  -10.32 KCAL/MOL
REMARK 923 INTER-LIGAND FREE ENERGY PREDICTED BY IDOCK:   -9.17 KCAL/MOL
REMARK 924 INTRA-LIGAND FREE ENERGY PREDICTED BY IDOCK:   -1.15 KCAL/MOL
REMARK 927      BINDING AFFINITY PREDICTED BY RF-SCORE:    0.00 PKD
ROOT
HETATM    1  C   UNL     1      -9.878   2.347  63.880  1.00  0.00    -0.140 C  
HETATM    2  O   UNL     1      -9.341   3.052  65.004  1.00  0.00    -0.147 OA 
ENDROOT
BRANCH   2   3
HETATM    3  C   UNL     1      -9.979   4.226  65.257  1.00  0.00    -0.219 C  
HETATM    4  O   UNL     1     -11.193   4.363  65.250  1.00  0.00    -0.121 OA 
BRANCH   3   5
HETATM    5  C   UNL     1      -9.000   5.309  65.545  1.00  0.00    -0.158 C  
HETATM    6  C   UNL     1      -8.223   5.831  64.563  1.00  0.00    -0.122 C  
HETATM    7  N   UNL     1      -7.371   6.882  64.853  1.00  0.00    -0.081 NA 
HETATM    8  C   UNL     1      -8.141   5.388  63.121  1.00  0.00    -0.102 C  
HETATM    9  C   UNL     1      -7.087   7.352  66.117  1.00  0.00    -0.069 C  
HETATM   10  C   UNL     1      -6.021   8.424  66.179  1.00  0.00    -0.045 C  
HETATM   11  C   UNL     1      -7.757   6.853  67.185  1.00  0.00    -0.108 C  
HETATM   12  C   UNL     1      -8.881   5.824  66.996  1.00  0.00    -0.112 C  
BRANCH  11  13
HETATM   13  C   UNL     1      -7.321   7.283  68.539  1.00  0.00    -0.100 C  
HETATM   14  O   UNL     1      -6.163   7.193  68.916  1.00  0.00    -0.026 OA 
BRANCH  13  15
HETATM   15  O   UNL     1      -8.328   7.855  69.240  1.00  0.00    -0.131 OA 
HETATM   16  C   UNL     1      -9.419   9.645  70.546  1.00  0.00    -0.181 C  
HETATM   17  C   UNL     1      -8.148  10.135  68.404  1.00  0.00    -0.104 C  
HETATM   18  C   UNL     1      -8.188   9.248  69.658  1.00  0.00    -0.126 C  
HETATM   19  C   UNL     1      -6.946   9.487  70.548  1.00  0.00    -0.124 C  
BRANCH  16  20
HETATM   20  N   UNL     1     -10.782   9.596  69.956  1.00  0.00    -0.240 NA 
HETATM   21  C   UNL     1     -11.627   8.640  70.678  1.00  0.00    -0.200 C  
BRANCH  20  22
HETATM   22  C   UNL     1     -11.444  10.915  70.056  1.00  0.00    -0.329 C  
BRANCH  22  23
HETATM   23  C   UNL     1     -11.000  11.973  69.044  1.00  0.00    -0.260 C  
HETATM   24  C   UNL     1     -11.959  13.166  68.797  1.00  0.00    -0.316 C  
HETATM   25  C   UNL     1     -11.465  13.888  67.532  1.00  0.00    -0.368 A  
HETATM   26  C   UNL     1     -12.154  14.019  70.053  1.00  0.00    -0.412 A  
HETATM   27  C   UNL     1     -12.311  14.024  66.421  1.00  0.00    -0.468 A  
HETATM   28  C   UNL     1     -11.325  15.097  70.400  1.00  0.00    -0.323 A  
HETATM   29  C   UNL     1     -11.808  14.471  65.194  1.00  0.00    -0.374 A  
HETATM   30  C   UNL     1     -11.473  15.761  71.621  1.00  0.00    -0.495 A  
HETATM   31  C   UNL     1     -12.454  15.366  72.522  1.00  0.00    -0.466 A  
HETATM   32  C   UNL     1     -10.460  14.805  65.065  1.00  0.00    -0.443 A  
HETATM   33  C   UNL     1      -9.619  14.722  66.167  1.00  0.00    -0.338 A  
HETATM   34  C   UNL     1     -13.305  14.316  72.194  1.00  0.00    -0.506 A  
HETATM   35  C   UNL     1     -13.160  13.658  70.968  1.00  0.00    -0.250 A  
HETATM   36  C   UNL     1     -10.117  14.269  67.387  1.00  0.00    -0.247 A  
ENDBRANCH  22  23
ENDBRANCH  20  22
ENDBRANCH  16  20
ENDBRANCH  13  15
ENDBRANCH  11  13
BRANCH  12  37
HETATM   37  C   UNL     1      -8.744   4.672  67.997  1.00  0.00    -0.112 A  
HETATM   38  O   UNL     1     -10.856   4.685  71.563  1.00  0.00     0.058 OA 
HETATM   39  C   UNL     1      -9.527   4.662  69.168  1.00  0.00    -0.224 A  
HETATM   40  O   UNL     1      -9.914   2.816  72.217  1.00  0.00    -0.153 OA 
HETATM   41  C   UNL     1      -7.673   2.620  68.738  1.00  0.00    -0.047 A  
HETATM   42  C   UNL     1      -9.336   3.667  70.135  1.00  0.00    -0.173 A  
HETATM   43  N   UNL     1     -10.093   3.725  71.393  1.00  0.00    -0.099 N  
HETATM   44  C   UNL     1      -8.412   2.641  69.921  1.00  0.00    -0.091 A  
HETATM   45  C   UNL     1      -7.833   3.630  67.785  1.00  0.00    -0.077 A  
ENDBRANCH  12  37
ENDBRANCH   3   5
ENDBRANCH   2   3
TORSDOF 8
ENDMDL
MODEL       60
REMARK 921   NORMALIZED FREE ENERGY PREDICTED BY IDOCK:   -5.72 KCAL/MOL
REMARK 922        TOTAL FREE ENERGY PREDICTED BY IDOCK:  -10.31 KCAL/MOL
REMARK 923 INTER-LIGAND FREE ENERGY PREDICTED BY IDOCK:   -9.35 KCAL/MOL
REMARK 924 INTRA-LIGAND FREE ENERGY PREDICTED BY IDOCK:   -0.96 KCAL/MOL
REMARK 927      BINDING AFFINITY PREDICTED BY RF-SCORE:    0.00 PKD
ROOT
HETATM    1  C   UNL     1      -9.615   3.324  71.584  1.00  0.00    -0.160 C  
HETATM    2  O   UNL     1      -8.777   4.475  71.735  1.00  0.00    -0.113 OA 
ENDROOT
BRANCH   2   3
HETATM    3  C   UNL     1      -9.468   5.646  71.740  1.00  0.00    -0.149 C  
HETATM    4  O   UNL     1     -10.668   5.733  71.951  1.00  0.00    -0.227 OA 
BRANCH   3   5
HETATM    5  C   UNL     1      -8.565   6.795  71.461  1.00  0.00    -0.120 C  
HETATM    6  C   UNL     1      -8.279   7.712  72.418  1.00  0.00    -0.112 C  
HETATM    7  N   UNL     1      -7.384   8.731  72.143  1.00  0.00    -0.315 NA 
HETATM    8  C   UNL     1      -8.847   7.791  73.816  1.00  0.00    -0.326 C  
HETATM    9  C   UNL     1      -6.873   9.027  70.897  1.00  0.00    -0.088 C  
HETATM   10  C   UNL     1      -6.015  10.272  70.835  1.00  0.00    -0.054 C  
HETATM   11  C   UNL     1      -7.149   8.215  69.848  1.00  0.00    -0.059 C  
HETATM   12  C   UNL     1      -7.964   6.928  70.044  1.00  0.00    -0.116 C  
BRANCH  11  13
HETATM   13  C   UNL     1      -6.697   8.645  68.499  1.00  0.00    -0.060 C  
HETATM   14  O   UNL     1      -6.339   7.853  67.642  1.00  0.00    -0.049 OA 
BRANCH  13  15
HETATM   15  O   UNL     1      -6.824   9.982  68.323  1.00  0.00    -0.062 OA 
HETATM   16  C   UNL     1      -7.095  12.056  67.010  1.00  0.00    -0.091 C  
HETATM   17  C   UNL     1      -8.500   9.991  66.555  1.00  0.00    -0.128 C  
HETATM   18  C   UNL     1      -7.109  10.487  66.982  1.00  0.00    -0.094 C  
HETATM   19  C   UNL     1      -6.033  10.085  65.946  1.00  0.00    -0.077 C  
BRANCH  16  20
HETATM   20  N   UNL     1      -8.075  12.773  67.866  1.00  0.00    -0.146 NA 
HETATM   21  C   UNL     1      -7.387  13.596  68.865  1.00  0.00    -0.060 C  
BRANCH  20  22
HETATM   22  C   UNL     1      -8.908  13.688  67.055  1.00  0.00    -0.223 C  
BRANCH  22  23
HETATM   23  C   UNL     1      -8.836  15.171  67.422  1.00  0.00    -0.199 C  
HETATM   24  C   UNL     1     -10.178  15.905  67.677  1.00  0.00    -0.263 C  
HETATM   25  C   UNL     1      -9.873  17.412  67.693  1.00  0.00    -0.282 A  
HETATM   26  C   UNL     1     -10.928  15.335  68.885  1.00  0.00    -0.261 A  
HETATM   27  C   UNL     1     -10.506  18.270  66.781  1.00  0.00    -0.387 A  
HETATM   28  C   UNL     1     -10.737  15.779  70.202  1.00  0.00    -0.354 A  
HETATM   29  C   UNL     1     -10.075  19.593  66.632  1.00  0.00    -0.555 A  
HETATM   30  C   UNL     1     -11.354  15.138  71.279  1.00  0.00    -0.368 A  
HETATM   31  C   UNL     1     -12.179  14.041  71.066  1.00  0.00    -0.430 A  
HETATM   32  C   UNL     1      -9.019  20.081  67.401  1.00  0.00    -0.440 A  
HETATM   33  C   UNL     1      -8.413  19.260  68.343  1.00  0.00    -0.386 A  
HETATM   34  C   UNL     1     -12.405  13.593  69.769  1.00  0.00    -0.285 A  
HETATM   35  C   UNL     1     -11.792  14.241  68.691  1.00  0.00    -0.379 A  
HETATM   36  C   UNL     1      -8.835  17.939  68.486  1.00  0.00    -0.293 A  
ENDBRANCH  22  23
ENDBRANCH  20  22
ENDBRANCH  16  20
ENDBRANCH  13  15
ENDBRANCH  11  13
BRANCH  12  37
HETATM   37  C   UNL     1      -9.034   6.786  68.958  1.00  0.00    -0.131 A  
HETATM   38  O   UNL     1      -8.943   3.627  66.276  1.00  0.00    -0.128 OA 
HETATM   39  C   UNL     1      -9.026   5.665  68.105  1.00  0.00    -0.111 A  
HETATM   40  O   UNL     1     -10.692   4.393  65.196  1.00  0.00    -0.255 OA 
HETATM   41  C   UNL     1     -10.950   7.653  67.739  1.00  0.00    -0.021 A  
HETATM   42  C   UNL     1      -9.938   5.577  67.046  1.00  0.00    -0.174 A  
HETATM   43  N   UNL     1      -9.854   4.449  66.108  1.00  0.00    -0.212 N  
HETATM   44  C   UNL     1     -10.906   6.568  66.863  1.00  0.00    -0.427 A  
HETATM   45  C   UNL     1     -10.019   7.764  68.776  1.00  0.00    -0.181 A  
ENDBRANCH  12  37
ENDBRANCH   3   5
ENDBRANCH   2   3
TORSDOF 8
ENDMDL
MODEL       61
REMARK 921   NORMALIZED FREE ENERGY PREDICTED BY IDOCK:   -5.72 KCAL/MOL
REMARK 922        TOTAL FREE ENERGY PREDICTED BY IDOCK:  -10.31 KCAL/MOL
REMARK 923 INTER-LIGAND FREE ENERGY PREDICTED BY IDOCK:  -10.55 KCAL/MOL
REMARK 924 INTRA-LIGAND FREE ENERGY PREDICTED BY IDOCK:    0.24 KCAL/MOL
REMARK 927      BINDING AFFINITY PREDICTED BY RF-SCORE:    0.00 PKD
ROOT
HETATM    1  C   UNL     1      -9.449   4.189  66.052  1.00  0.00    -0.180 C  
HETATM    2  O   UNL     1     -10.012   4.267  67.365  1.00  0.00    -0.164 OA 
ENDROOT
BRANCH   2   3
HETATM    3  C   UNL     1      -9.075   4.305  68.350  1.00  0.00    -0.128 C  
HETATM    4  O   UNL     1      -8.840   3.378  69.109  1.00  0.00    -0.083 OA 
BRANCH   3   5
HETATM    5  C   UNL     1      -8.382   5.622  68.371  1.00  0.00    -0.106 C  
HETATM    6  C   UNL     1      -7.051   5.718  68.129  1.00  0.00    -0.074 C  
HETATM    7  N   UNL     1      -6.452   6.964  68.091  1.00  0.00    -0.048 NA 
HETATM    8  C   UNL     1      -6.074   4.589  67.899  1.00  0.00    -0.031 C  
HETATM    9  C   UNL     1      -7.051   8.148  68.466  1.00  0.00    -0.076 C  
HETATM   10  C   UNL     1      -6.142   9.358  68.459  1.00  0.00    -0.044 C  
HETATM   11  C   UNL     1      -8.366   8.160  68.796  1.00  0.00    -0.126 C  
HETATM   12  C   UNL     1      -9.215   6.885  68.686  1.00  0.00    -0.130 C  
BRANCH  11  13
HETATM   13  C   UNL     1      -8.936   9.424  69.329  1.00  0.00    -0.154 C  
HETATM   14  O   UNL     1      -9.069   9.631  70.525  1.00  0.00    -0.242 OA 
BRANCH  13  15
HETATM   15  O   UNL     1      -9.191  10.322  68.348  1.00  0.00    -0.129 OA 
HETATM   16  C   UNL     1     -10.426  11.251  66.422  1.00  0.00    -0.257 C  
HETATM   17  C   UNL     1     -11.622  10.378  68.484  1.00  0.00    -0.152 C  
HETATM   18  C   UNL     1     -10.412  10.170  67.560  1.00  0.00    -0.253 C  
HETATM   19  C   UNL     1     -10.494   8.807  66.833  1.00  0.00    -0.319 C  
BRANCH  16  20
HETATM   20  N   UNL     1     -10.428  12.690  66.791  1.00  0.00    -0.239 NA 
HETATM   21  C   UNL     1     -11.763  13.270  66.612  1.00  0.00    -0.377 C  
BRANCH  20  22
HETATM   22  C   UNL     1     -10.072  12.866  68.216  1.00  0.00    -0.242 C  
BRANCH  22  23
HETATM   23  C   UNL     1     -11.090  13.612  69.080  1.00  0.00    -0.275 C  
HETATM   24  C   UNL     1     -10.593  14.875  69.832  1.00  0.00    -0.152 C  
HETATM   25  C   UNL     1     -11.672  15.239  70.865  1.00  0.00    -0.386 A  
HETATM   26  C   UNL     1     -10.150  15.981  68.871  1.00  0.00    -0.229 A  
HETATM   27  C   UNL     1     -11.353  15.289  72.230  1.00  0.00    -0.393 A  
HETATM   28  C   UNL     1     -11.016  16.954  68.348  1.00  0.00    -0.296 A  
HETATM   29  C   UNL     1     -12.363  15.393  73.193  1.00  0.00    -0.562 A  
HETATM   30  C   UNL     1     -10.584  17.863  67.378  1.00  0.00    -0.370 A  
HETATM   31  C   UNL     1      -9.277  17.823  66.910  1.00  0.00    -0.263 A  
HETATM   32  C   UNL     1     -13.701  15.467  72.807  1.00  0.00    -0.613 A  
HETATM   33  C   UNL     1     -14.031  15.467  71.458  1.00  0.00    -0.601 A  
HETATM   34  C   UNL     1      -8.390  16.885  67.427  1.00  0.00    -0.201 A  
HETATM   35  C   UNL     1      -8.822  15.980  68.403  1.00  0.00    -0.188 A  
HETATM   36  C   UNL     1     -13.027  15.354  70.498  1.00  0.00    -0.379 A  
ENDBRANCH  22  23
ENDBRANCH  20  22
ENDBRANCH  16  20
ENDBRANCH  13  15
ENDBRANCH  11  13
BRANCH  12  37
HETATM   37  C   UNL     1     -10.083   6.694  69.934  1.00  0.00    -0.198 A  
HETATM   38  O   UNL     1      -8.452   5.268  73.467  1.00  0.00    -0.113 OA 
HETATM   39  C   UNL     1      -9.493   6.279  71.144  1.00  0.00    -0.183 A  
HETATM   40  O   UNL     1     -10.408   5.272  74.461  1.00  0.00    -0.264 OA 
HETATM   41  C   UNL     1     -12.255   6.663  71.024  1.00  0.00    -0.344 A  
HETATM   42  C   UNL     1     -10.292   6.006  72.260  1.00  0.00    -0.192 A  
HETATM   43  N   UNL     1      -9.672   5.481  73.485  1.00  0.00    -0.146 N  
HETATM   44  C   UNL     1     -11.674   6.201  72.206  1.00  0.00    -0.352 A  
HETATM   45  C   UNL     1     -11.467   6.904  69.895  1.00  0.00    -0.294 A  
ENDBRANCH  12  37
ENDBRANCH   3   5
ENDBRANCH   2   3
TORSDOF 8
ENDMDL
MODEL       62
REMARK 921   NORMALIZED FREE ENERGY PREDICTED BY IDOCK:   -5.71 KCAL/MOL
REMARK 922        TOTAL FREE ENERGY PREDICTED BY IDOCK:  -10.30 KCAL/MOL
REMARK 923 INTER-LIGAND FREE ENERGY PREDICTED BY IDOCK:  -10.87 KCAL/MOL
REMARK 924 INTRA-LIGAND FREE ENERGY PREDICTED BY IDOCK:    0.57 KCAL/MOL
REMARK 927      BINDING AFFINITY PREDICTED BY RF-SCORE:    0.00 PKD
ROOT
HETATM    1  C   UNL     1     -11.833  16.157  72.742  1.00  0.00    -0.473 C  
HETATM    2  O   UNL     1     -11.611  15.854  71.361  1.00  0.00    -0.399 OA 
ENDROOT
BRANCH   2   3
HETATM    3  C   UNL     1     -12.710  15.350  70.738  1.00  0.00    -0.459 C  
HETATM    4  O   UNL     1     -13.755  15.963  70.587  1.00  0.00    -0.178 OA 
BRANCH   3   5
HETATM    5  C   UNL     1     -12.462  13.959  70.270  1.00  0.00    -0.380 C  
HETATM    6  C   UNL     1     -12.692  12.895  71.078  1.00  0.00    -0.251 C  
HETATM    7  N   UNL     1     -12.513  11.614  70.588  1.00  0.00    -0.322 NA 
HETATM    8  C   UNL     1     -13.125  12.915  72.525  1.00  0.00    -0.195 C  
HETATM    9  C   UNL     1     -11.930  11.297  69.379  1.00  0.00    -0.341 C  
HETATM   10  C   UNL     1     -11.730   9.818  69.131  1.00  0.00     0.261 C  
HETATM   11  C   UNL     1     -11.595  12.287  68.517  1.00  0.00    -0.359 C  
HETATM   12  C   UNL     1     -11.922  13.753  68.837  1.00  0.00    -0.394 C  
BRANCH  11  13
HETATM   13  C   UNL     1     -10.842  11.914  67.291  1.00  0.00    -0.247 C  
HETATM   14  O   UNL     1     -10.850  12.601  66.281  1.00  0.00    -0.265 OA 
BRANCH  13  15
HETATM   15  O   UNL     1     -10.097  10.798  67.470  1.00  0.00    -0.177 OA 
HETATM   16  C   UNL     1      -8.481   9.050  66.815  1.00  0.00    -0.119 C  
HETATM   17  C   UNL     1      -8.044  11.511  66.372  1.00  0.00    -0.069 C  
HETATM   18  C   UNL     1      -9.132  10.427  66.438  1.00  0.00    -0.157 C  
HETATM   19  C   UNL     1      -9.784  10.207  65.054  1.00  0.00    -0.384 C  
BRANCH  16  20
HETATM   20  N   UNL     1      -7.701   8.939  68.076  1.00  0.00    -0.100 NA 
HETATM   21  C   UNL     1      -8.495   9.400  69.219  1.00  0.00    -0.141 C  
BRANCH  20  22
HETATM   22  C   UNL     1      -7.339   7.530  68.345  1.00  0.00    -0.099 C  
BRANCH  22  23
HETATM   23  C   UNL     1      -8.153   6.818  69.426  1.00  0.00    -0.123 C  
HETATM   24  C   UNL     1      -9.550   6.277  69.023  1.00  0.00    -0.138 C  
HETATM   25  C   UNL     1     -10.288   5.917  70.323  1.00  0.00    -0.298 A  
HETATM   26  C   UNL     1      -9.458   5.186  67.952  1.00  0.00    -0.155 A  
HETATM   27  C   UNL     1     -11.509   6.532  70.635  1.00  0.00    -0.433 A  
HETATM   28  C   UNL     1      -9.303   3.822  68.238  1.00  0.00    -0.225 A  
HETATM   29  C   UNL     1     -12.074   6.389  71.907  1.00  0.00    -0.362 A  
HETATM   30  C   UNL     1      -9.099   2.886  67.221  1.00  0.00    -0.202 A  
HETATM   31  C   UNL     1      -9.050   3.291  65.893  1.00  0.00    -0.152 A  
HETATM   32  C   UNL     1     -11.438   5.616  72.877  1.00  0.00    -0.297 A  
HETATM   33  C   UNL     1     -10.252   4.961  72.571  1.00  0.00    -0.248 A  
HETATM   34  C   UNL     1      -9.224   4.634  65.577  1.00  0.00    -0.153 A  
HETATM   35  C   UNL     1      -9.435   5.568  66.597  1.00  0.00    -0.154 A  
HETATM   36  C   UNL     1      -9.683   5.111  71.308  1.00  0.00    -0.228 A  
ENDBRANCH  22  23
ENDBRANCH  20  22
ENDBRANCH  16  20
ENDBRANCH  13  15
ENDBRANCH  11  13
BRANCH  12  37
HETATM   37  C   UNL     1     -10.722  14.660  68.547  1.00  0.00    -0.248 A  
HETATM   38  O   UNL     1     -10.779  17.318  65.367  1.00  0.00    -0.583 OA 
HETATM   39  C   UNL     1     -10.792  15.607  67.507  1.00  0.00    -0.316 A  
HETATM   40  O   UNL     1      -8.719  17.957  65.766  1.00  0.00    -0.493 OA 
HETATM   41  C   UNL     1      -8.427  15.342  68.965  1.00  0.00    -0.229 A  
HETATM   42  C   UNL     1      -9.667  16.369  67.170  1.00  0.00    -0.239 A  
HETATM   43  N   UNL     1      -9.728  17.283  66.021  1.00  0.00    -0.215 N  
HETATM   44  C   UNL     1      -8.483  16.242  67.900  1.00  0.00    -0.166 A  
HETATM   45  C   UNL     1      -9.536  14.553  69.284  1.00  0.00     0.042 A  
ENDBRANCH  12  37
ENDBRANCH   3   5
ENDBRANCH   2   3
TORSDOF 8
ENDMDL
MODEL       63
REMARK 921   NORMALIZED FREE ENERGY PREDICTED BY IDOCK:   -5.71 KCAL/MOL
REMARK 922        TOTAL FREE ENERGY PREDICTED BY IDOCK:  -10.29 KCAL/MOL
REMARK 923 INTER-LIGAND FREE ENERGY PREDICTED BY IDOCK:   -9.89 KCAL/MOL
REMARK 924 INTRA-LIGAND FREE ENERGY PREDICTED BY IDOCK:   -0.40 KCAL/MOL
REMARK 927      BINDING AFFINITY PREDICTED BY RF-SCORE:    0.00 PKD
ROOT
HETATM    1  C   UNL     1     -11.779   6.380  68.831  1.00  0.00     0.423 C  
HETATM    2  O   UNL     1     -10.749   5.898  67.962  1.00  0.00    -0.250 OA 
ENDROOT
BRANCH   2   3
HETATM    3  C   UNL     1      -9.973   6.889  67.446  1.00  0.00    -0.166 C  
HETATM    4  O   UNL     1     -10.239   7.508  66.427  1.00  0.00    -0.140 OA 
BRANCH   3   5
HETATM    5  C   UNL     1      -8.768   7.112  68.290  1.00  0.00    -0.128 C  
HETATM    6  C   UNL     1      -7.901   6.104  68.555  1.00  0.00    -0.104 C  
HETATM    7  N   UNL     1      -6.757   6.362  69.289  1.00  0.00    -0.047 NA 
HETATM    8  C   UNL     1      -8.025   4.653  68.153  1.00  0.00    -0.084 C  
HETATM    9  C   UNL     1      -6.487   7.538  69.957  1.00  0.00    -0.034 C  
HETATM   10  C   UNL     1      -5.229   7.525  70.797  1.00  0.00    -0.023 C  
HETATM   11  C   UNL     1      -7.324   8.594  69.819  1.00  0.00    -0.052 C  
HETATM   12  C   UNL     1      -8.530   8.524  68.871  1.00  0.00    -0.123 C  
BRANCH  11  13
HETATM   13  C   UNL     1      -7.075   9.791  70.664  1.00  0.00    -0.087 C  
HETATM   14  O   UNL     1      -6.683   9.711  71.818  1.00  0.00    -0.300 OA 
BRANCH  13  15
HETATM   15  O   UNL     1      -7.244  10.945  69.976  1.00  0.00    -0.087 OA 
HETATM   16  C   UNL     1      -6.531  13.089  68.979  1.00  0.00    -0.103 C  
HETATM   17  C   UNL     1      -5.155  10.970  68.724  1.00  0.00    -0.041 C  
HETATM   18  C   UNL     1      -6.070  11.760  69.674  1.00  0.00    -0.119 C  
HETATM   19  C   UNL     1      -5.304  12.204  70.943  1.00  0.00    -0.144 C  
BRANCH  16  20
HETATM   20  N   UNL     1      -7.244  13.015  67.678  1.00  0.00    -0.138 NA 
HETATM   21  C   UNL     1      -7.959  11.742  67.550  1.00  0.00    -0.148 C  
BRANCH  20  22
HETATM   22  C   UNL     1      -8.256  14.088  67.574  1.00  0.00    -0.186 C  
BRANCH  22  23
HETATM   23  C   UNL     1      -9.443  13.993  68.534  1.00  0.00    -0.191 C  
HETATM   24  C   UNL     1     -10.584  15.029  68.358  1.00  0.00    -0.239 C  
HETATM   25  C   UNL     1     -11.468  14.945  69.613  1.00  0.00    -0.325 A  
HETATM   26  C   UNL     1     -11.284  14.892  67.004  1.00  0.00    -0.344 A  
HETATM   27  C   UNL     1     -11.659  16.077  70.420  1.00  0.00    -0.364 A  
HETATM   28  C   UNL     1     -12.376  14.041  66.773  1.00  0.00    -0.368 A  
HETATM   29  C   UNL     1     -12.267  15.962  71.675  1.00  0.00    -0.544 A  
HETATM   30  C   UNL     1     -12.897  13.862  65.488  1.00  0.00    -0.471 A  
HETATM   31  C   UNL     1     -12.340  14.529  64.405  1.00  0.00    -0.437 A  
HETATM   32  C   UNL     1     -12.709  14.721  72.133  1.00  0.00    -0.401 A  
HETATM   33  C   UNL     1     -12.572  13.598  71.327  1.00  0.00    -0.435 A  
HETATM   34  C   UNL     1     -11.271  15.396  64.607  1.00  0.00    -0.374 A  
HETATM   35  C   UNL     1     -10.757  15.580  65.895  1.00  0.00    -0.346 A  
HETATM   36  C   UNL     1     -11.958  13.709  70.081  1.00  0.00    -0.407 A  
ENDBRANCH  22  23
ENDBRANCH  20  22
ENDBRANCH  16  20
ENDBRANCH  13  15
ENDBRANCH  11  13
BRANCH  12  37
HETATM   37  C   UNL     1      -9.789   9.080  69.542  1.00  0.00    -0.181 A  
HETATM   38  O   UNL     1     -11.066   7.633  73.210  1.00  0.00    -0.382 OA 
HETATM   39  C   UNL     1     -10.163   8.626  70.822  1.00  0.00    -0.250 A  
HETATM   40  O   UNL     1     -12.846   8.915  73.183  1.00  0.00    -0.142 OA 
HETATM   41  C   UNL     1     -11.780  10.474  69.495  1.00  0.00    -0.313 A  
HETATM   42  C   UNL     1     -11.365   9.054  71.399  1.00  0.00    -0.323 A  
HETATM   43  N   UNL     1     -11.787   8.497  72.692  1.00  0.00    -0.329 N  
HETATM   44  C   UNL     1     -12.175   9.981  70.740  1.00  0.00    -0.408 A  
HETATM   45  C   UNL     1     -10.600  10.023  68.898  1.00  0.00    -0.239 A  
ENDBRANCH  12  37
ENDBRANCH   3   5
ENDBRANCH   2   3
TORSDOF 8
ENDMDL
MODEL       64
REMARK 921   NORMALIZED FREE ENERGY PREDICTED BY IDOCK:   -5.70 KCAL/MOL
REMARK 922        TOTAL FREE ENERGY PREDICTED BY IDOCK:  -10.29 KCAL/MOL
REMARK 923 INTER-LIGAND FREE ENERGY PREDICTED BY IDOCK:   -9.36 KCAL/MOL
REMARK 924 INTRA-LIGAND FREE ENERGY PREDICTED BY IDOCK:   -0.93 KCAL/MOL
REMARK 927      BINDING AFFINITY PREDICTED BY RF-SCORE:    0.00 PKD
ROOT
HETATM    1  C   UNL     1      -7.494   6.805  73.864  1.00  0.00    -0.085 C  
HETATM    2  O   UNL     1      -7.671   7.228  72.508  1.00  0.00    -0.086 OA 
ENDROOT
BRANCH   2   3
HETATM    3  C   UNL     1      -8.847   7.878  72.297  1.00  0.00    -0.148 C  
HETATM    4  O   UNL     1      -9.376   8.621  73.109  1.00  0.00    -0.187 OA 
BRANCH   3   5
HETATM    5  C   UNL     1      -9.392   7.561  70.949  1.00  0.00    -0.154 C  
HETATM    6  C   UNL     1      -9.914   6.341  70.673  1.00  0.00    -0.186 C  
HETATM    7  N   UNL     1     -10.471   6.102  69.429  1.00  0.00    -0.227 NA 
HETATM    8  C   UNL     1      -9.958   5.132  71.578  1.00  0.00    -0.248 C  
HETATM    9  C   UNL     1     -10.387   6.947  68.343  1.00  0.00    -0.190 C  
HETATM   10  C   UNL     1     -10.967   6.399  67.057  1.00  0.00    -0.463 C  
HETATM   11  C   UNL     1      -9.822   8.170  68.487  1.00  0.00    -0.190 C  
HETATM   12  C   UNL     1      -9.341   8.657  69.861  1.00  0.00    -0.160 C  
BRANCH  11  13
HETATM   13  C   UNL     1      -9.623   8.991  67.264  1.00  0.00    -0.159 C  
HETATM   14  O   UNL     1      -9.213   8.517  66.215  1.00  0.00    -0.179 OA 
BRANCH  13  15
HETATM   15  O   UNL     1     -10.034  10.269  67.435  1.00  0.00    -0.176 OA 
HETATM   16  C   UNL     1     -10.252  12.655  66.838  1.00  0.00    -0.234 C  
HETATM   17  C   UNL     1     -10.619  10.810  65.133  1.00  0.00    -0.239 C  
HETATM   18  C   UNL     1      -9.796  11.232  66.362  1.00  0.00    -0.211 C  
HETATM   19  C   UNL     1      -8.298  11.377  66.005  1.00  0.00    -0.019 C  
BRANCH  16  20
HETATM   20  N   UNL     1     -11.677  12.878  67.193  1.00  0.00    -0.365 NA 
HETATM   21  C   UNL     1     -11.942  12.449  68.570  1.00  0.00    -0.223 C  
BRANCH  20  22
HETATM   22  C   UNL     1     -12.018  14.315  67.117  1.00  0.00    -0.417 C  
BRANCH  22  23
HETATM   23  C   UNL     1     -10.922  15.292  67.549  1.00  0.00    -0.315 C  
HETATM   24  C   UNL     1     -11.330  16.434  68.516  1.00  0.00    -0.289 C  
HETATM   25  C   UNL     1     -10.173  17.448  68.531  1.00  0.00    -0.369 A  
HETATM   26  C   UNL     1     -11.803  15.900  69.871  1.00  0.00    -0.309 A  
HETATM   27  C   UNL     1     -10.398  18.780  68.154  1.00  0.00    -0.419 A  
HETATM   28  C   UNL     1     -10.945  15.644  70.952  1.00  0.00    -0.311 A  
HETATM   29  C   UNL     1      -9.324  19.651  67.944  1.00  0.00    -0.424 A  
HETATM   30  C   UNL     1     -11.413  15.040  72.122  1.00  0.00    -0.330 A  
HETATM   31  C   UNL     1     -12.749  14.679  72.240  1.00  0.00    -0.413 A  
HETATM   32  C   UNL     1      -8.013  19.210  68.125  1.00  0.00    -0.339 A  
HETATM   33  C   UNL     1      -7.774  17.908  68.544  1.00  0.00    -0.299 A  
HETATM   34  C   UNL     1     -13.627  14.941  71.194  1.00  0.00    -0.467 A  
HETATM   35  C   UNL     1     -13.158  15.554  70.027  1.00  0.00     0.214 A  
HETATM   36  C   UNL     1      -8.843  17.036  68.745  1.00  0.00    -0.244 A  
ENDBRANCH  22  23
ENDBRANCH  20  22
ENDBRANCH  16  20
ENDBRANCH  13  15
ENDBRANCH  11  13
BRANCH  12  37
HETATM   37  C   UNL     1      -7.952   9.295  69.763  1.00  0.00    -0.103 A  
HETATM   38  O   UNL     1      -7.516  13.386  69.264  1.00  0.00     0.071 OA 
HETATM   39  C   UNL     1      -7.826  10.695  69.668  1.00  0.00    -0.048 A  
HETATM   40  O   UNL     1      -5.332  13.215  69.138  1.00  0.00    -0.069 OA 
HETATM   41  C   UNL     1      -5.536   9.102  69.586  1.00  0.00    -0.034 A  
HETATM   42  C   UNL     1      -6.568  11.278  69.476  1.00  0.00    -0.129 A  
HETATM   43  N   UNL     1      -6.465  12.731  69.283  1.00  0.00    -0.106 N  
HETATM   44  C   UNL     1      -5.419  10.485  69.439  1.00  0.00    -0.037 A  
HETATM   45  C   UNL     1      -6.793   8.510  69.742  1.00  0.00    -0.043 A  
ENDBRANCH  12  37
ENDBRANCH   3   5
ENDBRANCH   2   3
TORSDOF 8
ENDMDL
MODEL       65
REMARK 921   NORMALIZED FREE ENERGY PREDICTED BY IDOCK:   -5.70 KCAL/MOL
REMARK 922        TOTAL FREE ENERGY PREDICTED BY IDOCK:  -10.27 KCAL/MOL
REMARK 923 INTER-LIGAND FREE ENERGY PREDICTED BY IDOCK:   -8.21 KCAL/MOL
REMARK 924 INTRA-LIGAND FREE ENERGY PREDICTED BY IDOCK:   -2.06 KCAL/MOL
REMARK 927      BINDING AFFINITY PREDICTED BY RF-SCORE:    0.00 PKD
ROOT
HETATM    1  C   UNL     1      -7.971   7.715  63.034  1.00  0.00    -0.112 C  
HETATM    2  O   UNL     1      -8.086   6.322  63.345  1.00  0.00    -0.111 OA 
ENDROOT
BRANCH   2   3
HETATM    3  C   UNL     1      -7.112   5.876  64.183  1.00  0.00    -0.053 C  
HETATM    4  O   UNL     1      -5.928   5.819  63.890  1.00  0.00    -0.023 OA 
BRANCH   3   5
HETATM    5  C   UNL     1      -7.686   5.474  65.496  1.00  0.00    -0.089 C  
HETATM    6  C   UNL     1      -8.670   4.544  65.576  1.00  0.00    -0.127 C  
HETATM    7  N   UNL     1      -9.135   4.147  66.817  1.00  0.00    -0.127 NA 
HETATM    8  C   UNL     1      -9.381   3.856  64.434  1.00  0.00    -0.153 C  
HETATM    9  C   UNL     1      -8.819   4.749  68.016  1.00  0.00    -0.105 C  
HETATM   10  C   UNL     1      -9.560   4.210  69.220  1.00  0.00    -0.256 C  
HETATM   11  C   UNL     1      -7.895   5.740  68.047  1.00  0.00    -0.100 C  
HETATM   12  C   UNL     1      -7.141   6.151  66.773  1.00  0.00    -0.073 C  
BRANCH  11  13
HETATM   13  C   UNL     1      -7.688   6.457  69.332  1.00  0.00    -0.101 C  
HETATM   14  O   UNL     1      -6.695   6.291  70.024  1.00  0.00    -0.049 OA 
BRANCH  13  15
HETATM   15  O   UNL     1      -8.669   7.357  69.577  1.00  0.00    -0.136 OA 
HETATM   16  C   UNL     1      -9.707   9.293  70.704  1.00  0.00    -0.272 C  
HETATM   17  C   UNL     1      -7.307   9.354  69.879  1.00  0.00    -0.088 C  
HETATM   18  C   UNL     1      -8.395   8.459  70.496  1.00  0.00    -0.126 C  
HETATM   19  C   UNL     1      -7.985   7.978  71.907  1.00  0.00    -0.140 C  
BRANCH  16  20
HETATM   20  N   UNL     1     -10.331   9.965  69.535  1.00  0.00    -0.213 NA 
HETATM   21  C   UNL     1     -11.480   9.195  69.046  1.00  0.00     0.517 C  
BRANCH  20  22
HETATM   22  C   UNL     1     -10.839  11.303  69.908  1.00  0.00     0.071 C  
BRANCH  22  23
HETATM   23  C   UNL     1     -10.642  12.413  68.874  1.00  0.00    -0.160 C  
HETATM   24  C   UNL     1     -11.814  13.407  68.668  1.00  0.00    -0.397 C  
HETATM   25  C   UNL     1     -11.518  14.194  67.381  1.00  0.00    -0.369 A  
HETATM   26  C   UNL     1     -12.108  14.223  69.930  1.00  0.00    -0.404 A  
HETATM   27  C   UNL     1     -12.422  14.160  66.308  1.00  0.00    -0.395 A  
HETATM   28  C   UNL     1     -11.478  15.438  70.237  1.00  0.00    -0.339 A  
HETATM   29  C   UNL     1     -12.063  14.679  65.059  1.00  0.00    -0.349 A  
HETATM   30  C   UNL     1     -11.692  16.077  71.461  1.00  0.00    -0.554 A  
HETATM   31  C   UNL     1     -12.544  15.518  72.406  1.00  0.00    -0.490 A  
HETATM   32  C   UNL     1     -10.808  15.254  64.869  1.00  0.00    -0.444 A  
HETATM   33  C   UNL     1      -9.918  15.339  65.932  1.00  0.00    -0.368 A  
HETATM   34  C   UNL     1     -13.200  14.326  72.120  1.00  0.00    -0.491 A  
HETATM   35  C   UNL     1     -12.989  13.692  70.890  1.00  0.00    -0.256 A  
HETATM   36  C   UNL     1     -10.270  14.815  67.174  1.00  0.00    -0.245 A  
ENDBRANCH  22  23
ENDBRANCH  20  22
ENDBRANCH  16  20
ENDBRANCH  13  15
ENDBRANCH  11  13
BRANCH  12  37
HETATM   37  C   UNL     1      -7.094   7.675  66.631  1.00  0.00    -0.079 A  
HETATM   38  O   UNL     1     -10.522   9.844  65.784  1.00  0.00    -0.156 OA 
HETATM   39  C   UNL     1      -8.283   8.398  66.417  1.00  0.00    -0.109 A  
HETATM   40  O   UNL     1      -9.401  11.727  65.691  1.00  0.00    -0.221 OA 
HETATM   41  C   UNL     1      -5.846   9.756  66.492  1.00  0.00    -0.054 A  
HETATM   42  C   UNL     1      -8.238   9.778  66.185  1.00  0.00    -0.120 A  
HETATM   43  N   UNL     1      -9.477  10.502  65.868  1.00  0.00    -0.180 N  
HETATM   44  C   UNL     1      -7.020  10.463  66.226  1.00  0.00    -0.118 A  
HETATM   45  C   UNL     1      -5.881   8.373  66.688  1.00  0.00    -0.048 A  
ENDBRANCH  12  37
ENDBRANCH   3   5
ENDBRANCH   2   3
TORSDOF 8
ENDMDL
MODEL       66
REMARK 921   NORMALIZED FREE ENERGY PREDICTED BY IDOCK:   -5.66 KCAL/MOL
REMARK 922        TOTAL FREE ENERGY PREDICTED BY IDOCK:  -10.23 KCAL/MOL
REMARK 923 INTER-LIGAND FREE ENERGY PREDICTED BY IDOCK:   -9.64 KCAL/MOL
REMARK 924 INTRA-LIGAND FREE ENERGY PREDICTED BY IDOCK:   -0.59 KCAL/MOL
REMARK 927      BINDING AFFINITY PREDICTED BY RF-SCORE:    0.00 PKD
ROOT
HETATM    1  C   UNL     1      -5.593   4.593  71.717  1.00  0.00    -0.008 C  
HETATM    2  O   UNL     1      -6.190   5.401  70.697  1.00  0.00    -0.024 OA 
ENDROOT
BRANCH   2   3
HETATM    3  C   UNL     1      -7.270   6.104  71.132  1.00  0.00    -0.079 C  
HETATM    4  O   UNL     1      -8.163   5.635  71.820  1.00  0.00    -0.116 OA 
BRANCH   3   5
HETATM    5  C   UNL     1      -7.210   7.514  70.658  1.00  0.00    -0.067 C  
HETATM    6  C   UNL     1      -6.997   8.536  71.523  1.00  0.00    -0.082 C  
HETATM    7  N   UNL     1      -6.881   9.827  71.039  1.00  0.00    -0.325 NA 
HETATM    8  C   UNL     1      -6.880   8.460  73.027  1.00  0.00    -0.105 C  
HETATM    9  C   UNL     1      -7.149  10.220  69.745  1.00  0.00    -0.140 C  
HETATM   10  C   UNL     1      -7.075  11.711  69.499  1.00  0.00     0.055 C  
HETATM   11  C   UNL     1      -7.440   9.287  68.807  1.00  0.00    -0.076 C  
HETATM   12  C   UNL     1      -7.405   7.790  69.150  1.00  0.00    -0.088 C  
BRANCH  11  13
HETATM   13  C   UNL     1      -7.860   9.761  67.463  1.00  0.00    -0.095 C  
HETATM   14  O   UNL     1      -7.405   9.294  66.430  1.00  0.00    -0.090 OA 
BRANCH  13  15
HETATM   15  O   UNL     1      -8.851  10.681  67.534  1.00  0.00    -0.131 OA 
HETATM   16  C   UNL     1     -10.791  11.959  66.696  1.00  0.00    -0.276 C  
HETATM   17  C   UNL     1     -10.625   9.440  66.418  1.00  0.00    -0.065 C  
HETATM   18  C   UNL     1      -9.822  10.751  66.444  1.00  0.00    -0.209 C  
HETATM   19  C   UNL     1      -9.167  11.029  65.071  1.00  0.00    -0.219 C  
BRANCH  16  20
HETATM   20  N   UNL     1     -11.639  11.963  67.917  1.00  0.00    -0.399 NA 
HETATM   21  C   UNL     1     -10.862  11.554  69.090  1.00  0.00    -0.195 C  
BRANCH  20  22
HETATM   22  C   UNL     1     -12.150  13.323  68.193  1.00  0.00    -0.211 C  
BRANCH  22  23
HETATM   23  C   UNL     1     -11.096  14.407  68.428  1.00  0.00    -0.272 C  
HETATM   24  C   UNL     1     -11.573  15.733  69.076  1.00  0.00    -0.406 C  
HETATM   25  C   UNL     1     -10.437  16.755  68.901  1.00  0.00    -0.332 A  
HETATM   26  C   UNL     1     -12.104  15.522  70.497  1.00  0.00    -0.423 A  
HETATM   27  C   UNL     1     -10.667  17.953  68.207  1.00  0.00    -0.233 A  
HETATM   28  C   UNL     1     -11.298  15.556  71.644  1.00  0.00    -0.462 A  
HETATM   29  C   UNL     1      -9.599  18.781  67.844  1.00  0.00    -0.345 A  
HETATM   30  C   UNL     1     -11.813  15.232  72.902  1.00  0.00    -0.510 A  
HETATM   31  C   UNL     1     -13.147  14.871  73.043  1.00  0.00    -0.605 A  
HETATM   32  C   UNL     1      -8.292  18.435  68.183  1.00  0.00    -0.301 A  
HETATM   33  C   UNL     1      -8.051  17.277  68.911  1.00  0.00    -0.189 A  
HETATM   34  C   UNL     1     -13.975  14.851  71.927  1.00  0.00    -0.585 A  
HETATM   35  C   UNL     1     -13.459  15.182  70.669  1.00  0.00    -0.243 A  
HETATM   36  C   UNL     1      -9.112  16.446  69.266  1.00  0.00    -0.144 A  
ENDBRANCH  22  23
ENDBRANCH  20  22
ENDBRANCH  16  20
ENDBRANCH  13  15
ENDBRANCH  11  13
BRANCH  12  37
HETATM   37  C   UNL     1      -8.639   7.071  68.598  1.00  0.00    -0.120 A  
HETATM   38  O   UNL     1      -8.412   4.806  65.134  1.00  0.00    -0.123 OA 
HETATM   39  C   UNL     1      -8.522   6.247  67.461  1.00  0.00    -0.108 A  
HETATM   40  O   UNL     1     -10.561   4.373  65.184  1.00  0.00    -0.246 OA 
HETATM   41  C   UNL     1     -11.027   6.620  68.633  1.00  0.00    -0.317 A  
HETATM   42  C   UNL     1      -9.661   5.667  66.890  1.00  0.00    -0.148 A  
HETATM   43  N   UNL     1      -9.534   4.890  65.649  1.00  0.00    -0.161 N  
HETATM   44  C   UNL     1     -10.916   5.848  67.476  1.00  0.00    -0.249 A  
HETATM   45  C   UNL     1      -9.899   7.231  69.187  1.00  0.00    -0.166 A  
ENDBRANCH  12  37
ENDBRANCH   3   5
ENDBRANCH   2   3
TORSDOF 8
ENDMDL
MODEL       67
REMARK 921   NORMALIZED FREE ENERGY PREDICTED BY IDOCK:   -5.66 KCAL/MOL
REMARK 922        TOTAL FREE ENERGY PREDICTED BY IDOCK:  -10.21 KCAL/MOL
REMARK 923 INTER-LIGAND FREE ENERGY PREDICTED BY IDOCK:   -8.72 KCAL/MOL
REMARK 924 INTRA-LIGAND FREE ENERGY PREDICTED BY IDOCK:   -1.50 KCAL/MOL
REMARK 927      BINDING AFFINITY PREDICTED BY RF-SCORE:    0.00 PKD
ROOT
HETATM    1  C   UNL     1     -10.036   4.628  68.664  1.00  0.00    -0.070 C  
HETATM    2  O   UNL     1      -9.893   4.748  67.245  1.00  0.00    -0.169 OA 
ENDROOT
BRANCH   2   3
HETATM    3  C   UNL     1      -8.599   4.867  66.843  1.00  0.00    -0.104 C  
HETATM    4  O   UNL     1      -7.720   4.062  67.110  1.00  0.00    -0.083 OA 
BRANCH   3   5
HETATM    5  C   UNL     1      -8.407   6.104  66.038  1.00  0.00    -0.136 C  
HETATM    6  C   UNL     1      -8.099   6.041  64.719  1.00  0.00    -0.132 C  
HETATM    7  N   UNL     1      -7.992   7.210  63.986  1.00  0.00    -0.112 NA 
HETATM    8  C   UNL     1      -7.824   4.805  63.895  1.00  0.00    -0.086 C  
HETATM    9  C   UNL     1      -7.987   8.484  64.514  1.00  0.00    -0.145 C  
HETATM   10  C   UNL     1      -7.725   9.591  63.517  1.00  0.00    -0.123 C  
HETATM   11  C   UNL     1      -8.217   8.662  65.838  1.00  0.00    -0.123 C  
HETATM   12  C   UNL     1      -8.556   7.470  66.744  1.00  0.00    -0.127 C  
BRANCH  11  13
HETATM   13  C   UNL     1      -8.062  10.033  66.390  1.00  0.00    -0.120 C  
HETATM   14  O   UNL     1      -7.065  10.387  67.001  1.00  0.00    -0.087 OA 
BRANCH  13  15
HETATM   15  O   UNL     1      -9.098  10.838  66.054  1.00  0.00    -0.172 OA 
HETATM   16  C   UNL     1     -11.253  11.990  66.413  1.00  0.00    -0.337 C  
HETATM   17  C   UNL     1      -9.440  11.956  68.191  1.00  0.00    -0.195 C  
HETATM   18  C   UNL     1     -10.105  11.143  67.068  1.00  0.00    -0.200 C  
HETATM   19  C   UNL     1     -10.797   9.879  67.630  1.00  0.00    -0.318 C  
BRANCH  16  20
HETATM   20  N   UNL     1     -10.930  13.320  65.834  1.00  0.00    -0.274 NA 
HETATM   21  C   UNL     1     -10.700  13.214  64.390  1.00  0.00    -0.407 C  
BRANCH  20  22
HETATM   22  C   UNL     1     -12.057  14.259  66.021  1.00  0.00    -0.408 C  
BRANCH  22  23
HETATM   23  C   UNL     1     -12.535  14.462  67.460  1.00  0.00     0.176 C  
HETATM   24  C   UNL     1     -11.453  14.500  68.570  1.00  0.00    -0.327 C  
HETATM   25  C   UNL     1     -12.183  14.376  69.918  1.00  0.00    -0.394 A  
HETATM   26  C   UNL     1     -10.497  15.684  68.404  1.00  0.00    -0.242 A  
HETATM   27  C   UNL     1     -11.885  13.315  70.787  1.00  0.00    -0.024 A  
HETATM   28  C   UNL     1     -10.727  16.955  68.951  1.00  0.00    -0.321 A  
HETATM   29  C   UNL     1     -12.692  13.061  71.901  1.00  0.00    -0.212 A  
HETATM   30  C   UNL     1      -9.885  18.033  68.663  1.00  0.00    -0.383 A  
HETATM   31  C   UNL     1      -8.791  17.864  67.824  1.00  0.00    -0.251 A  
HETATM   32  C   UNL     1     -13.794  13.870  72.173  1.00  0.00    -0.636 A  
HETATM   33  C   UNL     1     -14.076  14.953  71.350  1.00  0.00    -0.552 A  
HETATM   34  C   UNL     1      -8.524  16.610  67.286  1.00  0.00    -0.214 A  
HETATM   35  C   UNL     1      -9.365  15.531  67.582  1.00  0.00    -0.203 A  
HETATM   36  C   UNL     1     -13.278  15.202  70.234  1.00  0.00    -0.051 A  
ENDBRANCH  22  23
ENDBRANCH  20  22
ENDBRANCH  16  20
ENDBRANCH  13  15
ENDBRANCH  11  13
BRANCH  12  37
HETATM   37  C   UNL     1      -7.754   7.525  68.047  1.00  0.00    -0.116 A  
HETATM   38  O   UNL     1      -9.470   8.929  71.549  1.00  0.00    -0.251 OA 
HETATM   39  C   UNL     1      -8.379   7.936  69.241  1.00  0.00    -0.136 A  
HETATM   40  O   UNL     1      -7.587   8.706  72.652  1.00  0.00    -0.325 OA 
HETATM   41  C   UNL     1      -5.658   7.313  69.260  1.00  0.00    -0.015 A  
HETATM   42  C   UNL     1      -7.629   8.086  70.414  1.00  0.00    -0.081 A  
HETATM   43  N   UNL     1      -8.277   8.608  71.626  1.00  0.00    -0.154 N  
HETATM   44  C   UNL     1      -6.268   7.771  70.429  1.00  0.00    -0.037 A  
HETATM   45  C   UNL     1      -6.393   7.196  68.077  1.00  0.00    -0.044 A  
ENDBRANCH  12  37
ENDBRANCH   3   5
ENDBRANCH   2   3
TORSDOF 8
ENDMDL
MODEL       68
REMARK 921   NORMALIZED FREE ENERGY PREDICTED BY IDOCK:   -5.65 KCAL/MOL
REMARK 922        TOTAL FREE ENERGY PREDICTED BY IDOCK:  -10.20 KCAL/MOL
REMARK 923 INTER-LIGAND FREE ENERGY PREDICTED BY IDOCK:   -8.78 KCAL/MOL
REMARK 924 INTRA-LIGAND FREE ENERGY PREDICTED BY IDOCK:   -1.42 KCAL/MOL
REMARK 927      BINDING AFFINITY PREDICTED BY RF-SCORE:    0.00 PKD
ROOT
HETATM    1  C   UNL     1      -5.139   6.599  69.013  1.00  0.00    -0.012 C  
HETATM    2  O   UNL     1      -5.140   6.416  70.432  1.00  0.00    -0.013 OA 
ENDROOT
BRANCH   2   3
HETATM    3  C   UNL     1      -6.052   5.500  70.855  1.00  0.00    -0.029 C  
HETATM    4  O   UNL     1      -5.856   4.294  70.873  1.00  0.00    -0.012 OA 
BRANCH   3   5
HETATM    5  C   UNL     1      -7.309   6.166  71.291  1.00  0.00    -0.081 C  
HETATM    6  C   UNL     1      -7.552   6.416  72.602  1.00  0.00    -0.103 C  
HETATM    7  N   UNL     1      -8.701   7.096  72.966  1.00  0.00    -0.123 NA 
HETATM    8  C   UNL     1      -6.704   6.019  73.788  1.00  0.00    -0.079 C  
HETATM    9  C   UNL     1      -9.750   7.397  72.123  1.00  0.00    -0.150 C  
HETATM   10  C   UNL     1     -10.950   8.030  72.792  1.00  0.00    -0.449 C  
HETATM   11  C   UNL     1      -9.644   7.128  70.799  1.00  0.00    -0.168 C  
HETATM   12  C   UNL     1      -8.343   6.560  70.213  1.00  0.00    -0.127 C  
BRANCH  11  13
HETATM   13  C   UNL     1     -10.847   7.335  69.951  1.00  0.00    -0.247 C  
HETATM   14  O   UNL     1     -11.948   6.901  70.255  1.00  0.00    -0.305 OA 
BRANCH  13  15
HETATM   15  O   UNL     1     -10.587   8.124  68.882  1.00  0.00    -0.212 OA 
HETATM   16  C   UNL     1     -10.332  10.268  67.684  1.00  0.00    -0.220 C  
HETATM   17  C   UNL     1      -9.340   9.898  69.991  1.00  0.00    -0.232 C  
HETATM   18  C   UNL     1     -10.531   9.571  69.075  1.00  0.00    -0.213 C  
HETATM   19  C   UNL     1     -11.846  10.153  69.643  1.00  0.00    -0.114 C  
BRANCH  16  20
HETATM   20  N   UNL     1      -9.106   9.976  66.897  1.00  0.00    -0.138 NA 
HETATM   21  C   UNL     1      -9.420   9.128  65.743  1.00  0.00    -0.254 C  
BRANCH  20  22
HETATM   22  C   UNL     1      -8.516  11.224  66.365  1.00  0.00    -0.169 C  
BRANCH  22  23
HETATM   23  C   UNL     1      -9.021  12.528  66.986  1.00  0.00    -0.211 C  
HETATM   24  C   UNL     1      -9.494  13.640  66.015  1.00  0.00    -0.113 C  
HETATM   25  C   UNL     1      -9.629  14.932  66.838  1.00  0.00    -0.256 A  
HETATM   26  C   UNL     1     -10.714  13.210  65.195  1.00  0.00    -0.329 A  
HETATM   27  C   UNL     1      -8.883  16.070  66.493  1.00  0.00    -0.340 A  
HETATM   28  C   UNL     1     -12.040  13.380  65.620  1.00  0.00    -0.476 A  
HETATM   29  C   UNL     1      -8.821  17.168  67.358  1.00  0.00    -0.218 A  
HETATM   30  C   UNL     1     -13.109  12.856  64.889  1.00  0.00    -0.007 A  
HETATM   31  C   UNL     1     -12.878  12.151  63.714  1.00  0.00    -0.451 A  
HETATM   32  C   UNL     1      -9.515  17.154  68.567  1.00  0.00    -0.282 A  
HETATM   33  C   UNL     1     -10.296  16.056  68.902  1.00  0.00    -0.235 A  
HETATM   34  C   UNL     1     -11.576  11.986  63.256  1.00  0.00    -0.409 A  
HETATM   35  C   UNL     1     -10.507  12.519  63.986  1.00  0.00    -0.449 A  
HETATM   36  C   UNL     1     -10.352  14.957  68.047  1.00  0.00    -0.244 A  
ENDBRANCH  22  23
ENDBRANCH  20  22
ENDBRANCH  16  20
ENDBRANCH  13  15
ENDBRANCH  11  13
BRANCH  12  37
HETATM   37  C   UNL     1      -8.633   5.400  69.255  1.00  0.00    -0.102 A  
HETATM   38  O   UNL     1      -8.353   5.907  65.151  1.00  0.00    -0.141 OA 
HETATM   39  C   UNL     1      -8.459   5.575  67.868  1.00  0.00    -0.098 A  
HETATM   40  O   UNL     1      -9.026   3.854  64.774  1.00  0.00    -0.121 OA 
HETATM   41  C   UNL     1      -9.414   3.137  68.836  1.00  0.00    -0.183 A  
HETATM   42  C   UNL     1      -8.818   4.555  66.978  1.00  0.00    -0.112 A  
HETATM   43  N   UNL     1      -8.721   4.788  65.531  1.00  0.00    -0.130 N  
HETATM   44  C   UNL     1      -9.292   3.331  67.459  1.00  0.00    -0.250 A  
HETATM   45  C   UNL     1      -9.092   4.165  69.727  1.00  0.00    -0.176 A  
ENDBRANCH  12  37
ENDBRANCH   3   5
ENDBRANCH   2   3
TORSDOF 8
ENDMDL
MODEL       69
REMARK 921   NORMALIZED FREE ENERGY PREDICTED BY IDOCK:   -5.64 KCAL/MOL
REMARK 922        TOTAL FREE ENERGY PREDICTED BY IDOCK:  -10.19 KCAL/MOL
REMARK 923 INTER-LIGAND FREE ENERGY PREDICTED BY IDOCK:   -9.37 KCAL/MOL
REMARK 924 INTRA-LIGAND FREE ENERGY PREDICTED BY IDOCK:   -0.82 KCAL/MOL
REMARK 927      BINDING AFFINITY PREDICTED BY RF-SCORE:    0.00 PKD
ROOT
HETATM    1  C   UNL     1     -12.351  14.393  70.161  1.00  0.00    -0.348 C  
HETATM    2  O   UNL     1     -11.226  13.676  69.643  1.00  0.00    -0.193 OA 
ENDROOT
BRANCH   2   3
HETATM    3  C   UNL     1     -10.325  14.474  69.010  1.00  0.00    -0.223 C  
HETATM    4  O   UNL     1     -10.434  15.686  68.909  1.00  0.00    -0.206 OA 
BRANCH   3   5
HETATM    5  C   UNL     1      -9.196  13.671  68.465  1.00  0.00    -0.121 C  
HETATM    6  C   UNL     1      -7.911  13.957  68.791  1.00  0.00    -0.059 C  
HETATM    7  N   UNL     1      -6.892  13.150  68.320  1.00  0.00    -0.091 NA 
HETATM    8  C   UNL     1      -7.408  15.109  69.630  1.00  0.00    -0.191 C  
HETATM    9  C   UNL     1      -7.034  12.157  67.373  1.00  0.00    -0.146 C  
HETATM   10  C   UNL     1      -5.743  11.505  66.928  1.00  0.00    -0.131 C  
HETATM   11  C   UNL     1      -8.270  11.832  66.923  1.00  0.00    -0.166 C  
HETATM   12  C   UNL     1      -9.521  12.504  67.507  1.00  0.00    -0.185 C  
BRANCH  11  13
HETATM   13  C   UNL     1      -8.367  10.860  65.803  1.00  0.00    -0.133 C  
HETATM   14  O   UNL     1      -7.862  11.065  64.710  1.00  0.00     0.212 OA 
BRANCH  13  15
HETATM   15  O   UNL     1      -8.988   9.716  66.174  1.00  0.00    -0.144 OA 
HETATM   16  C   UNL     1      -9.221   7.271  66.429  1.00  0.00    -0.159 C  
HETATM   17  C   UNL     1      -7.067   8.478  67.017  1.00  0.00    -0.075 C  
HETATM   18  C   UNL     1      -8.262   8.453  66.051  1.00  0.00    -0.112 C  
HETATM   19  C   UNL     1      -7.802   8.162  64.603  1.00  0.00    -0.136 C  
BRANCH  16  20
HETATM   20  N   UNL     1      -9.790   7.211  67.800  1.00  0.00    -0.140 NA 
HETATM   21  C   UNL     1     -10.900   8.158  67.944  1.00  0.00     0.032 C  
BRANCH  20  22
HETATM   22  C   UNL     1     -10.335   5.865  68.083  1.00  0.00    -0.210 C  
BRANCH  22  23
HETATM   23  C   UNL     1     -10.460   5.482  69.559  1.00  0.00    -0.368 C  
HETATM   24  C   UNL     1      -9.384   4.528  70.139  1.00  0.00    -0.217 C  
HETATM   25  C   UNL     1      -9.901   4.039  71.502  1.00  0.00    -0.251 A  
HETATM   26  C   UNL     1      -7.985   5.151  70.110  1.00  0.00    -0.079 A  
HETATM   27  C   UNL     1     -10.084   2.667  71.736  1.00  0.00    -0.113 A  
HETATM   28  C   UNL     1      -7.462   5.944  71.142  1.00  0.00    -0.091 A  
HETATM   29  C   UNL     1     -10.762   2.225  72.877  1.00  0.00    -0.220 A  
HETATM   30  C   UNL     1      -6.230   6.589  71.008  1.00  0.00    -0.040 A  
HETATM   31  C   UNL     1      -5.490   6.454  69.840  1.00  0.00    -0.014 A  
HETATM   32  C   UNL     1     -11.251   3.142  73.806  1.00  0.00    -0.245 A  
HETATM   33  C   UNL     1     -11.038   4.501  73.614  1.00  0.00    -0.369 A  
HETATM   34  C   UNL     1      -5.972   5.656  68.809  1.00  0.00    -0.024 A  
HETATM   35  C   UNL     1      -7.203   5.005  68.949  1.00  0.00    -0.057 A  
HETATM   36  C   UNL     1     -10.370   4.944  72.474  1.00  0.00    -0.256 A  
ENDBRANCH  22  23
ENDBRANCH  20  22
ENDBRANCH  16  20
ENDBRANCH  13  15
ENDBRANCH  11  13
BRANCH  12  37
HETATM   37  C   UNL     1     -10.484  12.934  66.396  1.00  0.00    -0.278 A  
HETATM   38  O   UNL     1     -10.438  16.806  64.918  1.00  0.00    -0.652 OA 
HETATM   39  C   UNL     1     -10.400  14.233  65.858  1.00  0.00    -0.325 A  
HETATM   40  O   UNL     1     -12.130  16.398  63.583  1.00  0.00    -0.734 OA 
HETATM   41  C   UNL     1     -12.382  12.493  64.944  1.00  0.00    -0.539 A  
HETATM   42  C   UNL     1     -11.339  14.667  64.914  1.00  0.00    -0.403 A  
HETATM   43  N   UNL     1     -11.296  16.056  64.435  1.00  0.00    -0.383 N  
HETATM   44  C   UNL     1     -12.330  13.798  64.451  1.00  0.00    -0.389 A  
HETATM   45  C   UNL     1     -11.470  12.065  65.912  1.00  0.00    -0.392 A  
ENDBRANCH  12  37
ENDBRANCH   3   5
ENDBRANCH   2   3
TORSDOF 8
ENDMDL
MODEL       70
REMARK 921   NORMALIZED FREE ENERGY PREDICTED BY IDOCK:   -5.63 KCAL/MOL
REMARK 922        TOTAL FREE ENERGY PREDICTED BY IDOCK:  -10.18 KCAL/MOL
REMARK 923 INTER-LIGAND FREE ENERGY PREDICTED BY IDOCK:   -9.49 KCAL/MOL
REMARK 924 INTRA-LIGAND FREE ENERGY PREDICTED BY IDOCK:   -0.69 KCAL/MOL
REMARK 927      BINDING AFFINITY PREDICTED BY RF-SCORE:    0.00 PKD
ROOT
HETATM    1  C   UNL     1     -12.070  13.608  69.075  1.00  0.00    -0.309 C  
HETATM    2  O   UNL     1     -10.869  12.879  68.798  1.00  0.00    -0.249 OA 
ENDROOT
BRANCH   2   3
HETATM    3  C   UNL     1      -9.789  13.680  68.594  1.00  0.00    -0.138 C  
HETATM    4  O   UNL     1      -9.744  14.862  68.898  1.00  0.00    -0.214 OA 
BRANCH   3   5
HETATM    5  C   UNL     1      -8.680  12.921  67.957  1.00  0.00    -0.191 C  
HETATM    6  C   UNL     1      -7.385  13.185  68.259  1.00  0.00    -0.116 C  
HETATM    7  N   UNL     1      -6.381  12.416  67.698  1.00  0.00    -0.115 NA 
HETATM    8  C   UNL     1      -6.853  14.275  69.161  1.00  0.00    -0.120 C  
HETATM    9  C   UNL     1      -6.555  11.493  66.688  1.00  0.00    -0.081 C  
HETATM   10  C   UNL     1      -5.280  10.876  66.155  1.00  0.00    -0.114 C  
HETATM   11  C   UNL     1      -7.806  11.198  66.257  1.00  0.00    -0.109 C  
HETATM   12  C   UNL     1      -9.037  11.824  66.929  1.00  0.00    -0.192 C  
BRANCH  11  13
HETATM   13  C   UNL     1      -7.941  10.308  65.075  1.00  0.00    -0.144 C  
HETATM   14  O   UNL     1      -7.469  10.589  63.984  1.00  0.00    -0.047 OA 
BRANCH  13  15
HETATM   15  O   UNL     1      -8.552   9.140  65.383  1.00  0.00    -0.148 OA 
HETATM   16  C   UNL     1      -8.689   6.695  65.707  1.00  0.00    -0.116 C  
HETATM   17  C   UNL     1      -6.746   8.058  66.609  1.00  0.00    -0.063 C  
HETATM   18  C   UNL     1      -7.746   7.923  65.449  1.00  0.00    -0.097 C  
HETATM   19  C   UNL     1      -7.018   7.610  64.121  1.00  0.00    -0.061 C  
BRANCH  16  20
HETATM   20  N   UNL     1      -9.490   6.648  66.957  1.00  0.00    -0.138 NA 
HETATM   21  C   UNL     1     -10.793   6.023  66.715  1.00  0.00    -0.279 C  
BRANCH  20  22
HETATM   22  C   UNL     1      -8.807   5.834  67.986  1.00  0.00    -0.109 C  
BRANCH  22  23
HETATM   23  C   UNL     1      -7.935   6.598  68.984  1.00  0.00    -0.112 C  
HETATM   24  C   UNL     1      -8.589   7.787  69.734  1.00  0.00    -0.134 C  
HETATM   25  C   UNL     1      -7.453   8.579  70.403  1.00  0.00    -0.069 A  
HETATM   26  C   UNL     1      -9.744   7.337  70.632  1.00  0.00    -0.175 A  
HETATM   27  C   UNL     1      -7.258   9.933  70.090  1.00  0.00    -0.159 A  
HETATM   28  C   UNL     1      -9.583   6.926  71.964  1.00  0.00    -0.150 A  
HETATM   29  C   UNL     1      -6.102  10.601  70.511  1.00  0.00    -0.113 A  
HETATM   30  C   UNL     1     -10.653   6.407  72.698  1.00  0.00    -0.250 A  
HETATM   31  C   UNL     1     -11.910   6.289  72.118  1.00  0.00    -0.365 A  
HETATM   32  C   UNL     1      -5.137   9.933  71.263  1.00  0.00    -0.063 A  
HETATM   33  C   UNL     1      -5.336   8.606  71.621  1.00  0.00    -0.038 A  
HETATM   34  C   UNL     1     -12.105   6.709  70.808  1.00  0.00    -0.364 A  
HETATM   35  C   UNL     1     -11.034   7.236  70.077  1.00  0.00    -0.273 A  
HETATM   36  C   UNL     1      -6.482   7.937  71.196  1.00  0.00    -0.037 A  
ENDBRANCH  22  23
ENDBRANCH  20  22
ENDBRANCH  16  20
ENDBRANCH  13  15
ENDBRANCH  11  13
BRANCH  12  37
HETATM   37  C   UNL     1     -10.035  12.329  65.884  1.00  0.00    -0.272 A  
HETATM   38  O   UNL     1     -10.494  16.385  65.162  1.00  0.00    -0.622 OA 
HETATM   39  C   UNL     1     -10.121  13.707  65.603  1.00  0.00    -0.299 A  
HETATM   40  O   UNL     1     -12.101  16.024  63.714  1.00  0.00    -0.882 OA 
HETATM   41  C   UNL     1     -11.842  11.932  64.307  1.00  0.00    -0.367 A  
HETATM   42  C   UNL     1     -11.100  14.188  64.724  1.00  0.00    -0.387 A  
HETATM   43  N   UNL     1     -11.238  15.636  64.516  1.00  0.00    -0.387 N  
HETATM   44  C   UNL     1     -11.960  13.302  64.070  1.00  0.00    -0.525 A  
HETATM   45  C   UNL     1     -10.891  11.449  65.210  1.00  0.00    -0.297 A  
ENDBRANCH  12  37
ENDBRANCH   3   5
ENDBRANCH   2   3
TORSDOF 8
ENDMDL
MODEL       71
REMARK 921   NORMALIZED FREE ENERGY PREDICTED BY IDOCK:   -5.61 KCAL/MOL
REMARK 922        TOTAL FREE ENERGY PREDICTED BY IDOCK:  -10.14 KCAL/MOL
REMARK 923 INTER-LIGAND FREE ENERGY PREDICTED BY IDOCK:   -9.81 KCAL/MOL
REMARK 924 INTRA-LIGAND FREE ENERGY PREDICTED BY IDOCK:   -0.33 KCAL/MOL
REMARK 927      BINDING AFFINITY PREDICTED BY RF-SCORE:    0.00 PKD
ROOT
HETATM    1  C   UNL     1      -9.406   2.029  65.147  1.00  0.00    -0.035 C  
HETATM    2  O   UNL     1      -9.231   3.184  65.974  1.00  0.00    -0.153 OA 
ENDROOT
BRANCH   2   3
HETATM    3  C   UNL     1      -9.814   4.302  65.464  1.00  0.00    -0.215 C  
HETATM    4  O   UNL     1     -10.942   4.337  64.999  1.00  0.00    -0.245 OA 
BRANCH   3   5
HETATM    5  C   UNL     1      -8.892   5.468  65.555  1.00  0.00    -0.147 C  
HETATM    6  C   UNL     1      -7.885   5.636  64.663  1.00  0.00    -0.113 C  
HETATM    7  N   UNL     1      -7.088   6.765  64.738  1.00  0.00    -0.058 NA 
HETATM    8  C   UNL     1      -7.477   4.702  63.548  1.00  0.00    -0.055 C  
HETATM    9  C   UNL     1      -7.097   7.679  65.770  1.00  0.00    -0.061 C  
HETATM   10  C   UNL     1      -6.038   8.757  65.682  1.00  0.00    -0.052 C  
HETATM   11  C   UNL     1      -8.020   7.569  66.756  1.00  0.00    -0.115 C  
HETATM   12  C   UNL     1      -9.104   6.483  66.700  1.00  0.00    -0.159 C  
BRANCH  11  13
HETATM   13  C   UNL     1      -7.905   8.487  67.919  1.00  0.00    -0.103 C  
HETATM   14  O   UNL     1      -6.936   8.488  68.662  1.00  0.00    -0.062 OA 
BRANCH  13  15
HETATM   15  O   UNL     1      -8.941   9.357  67.986  1.00  0.00    -0.128 OA 
HETATM   16  C   UNL     1     -10.429  10.994  69.083  1.00  0.00    -0.210 C  
HETATM   17  C   UNL     1      -7.904  11.105  69.328  1.00  0.00    -0.007 C  
HETATM   18  C   UNL     1      -9.107  10.156  69.198  1.00  0.00    -0.183 C  
HETATM   19  C   UNL     1      -9.276   9.294  70.470  1.00  0.00    -0.311 C  
BRANCH  16  20
HETATM   20  N   UNL     1     -10.561  11.991  67.989  1.00  0.00    -0.201 NA 
HETATM   21  C   UNL     1     -11.719  12.860  68.217  1.00  0.00    -0.350 C  
BRANCH  20  22
HETATM   22  C   UNL     1      -9.371  12.866  67.932  1.00  0.00    -0.208 C  
BRANCH  22  23
HETATM   23  C   UNL     1      -9.641  14.364  67.770  1.00  0.00    -0.216 C  
HETATM   24  C   UNL     1      -9.406  14.980  66.367  1.00  0.00    -0.334 C  
HETATM   25  C   UNL     1      -9.417  16.508  66.537  1.00  0.00    -0.296 A  
HETATM   26  C   UNL     1     -10.349  14.392  65.313  1.00  0.00    -0.427 A  
HETATM   27  C   UNL     1      -8.296  17.267  66.169  1.00  0.00    -0.238 A  
HETATM   28  C   UNL     1     -11.626  14.904  65.036  1.00  0.00    -0.357 A  
HETATM   29  C   UNL     1      -8.202  18.617  66.525  1.00  0.00    -0.301 A  
HETATM   30  C   UNL     1     -12.493  14.252  64.155  1.00  0.00    -0.256 A  
HETATM   31  C   UNL     1     -12.103  13.076  63.527  1.00  0.00    -0.617 A  
HETATM   32  C   UNL     1      -9.231  19.231  67.237  1.00  0.00    -0.357 A  
HETATM   33  C   UNL     1     -10.370  18.507  67.568  1.00  0.00    -0.440 A  
HETATM   34  C   UNL     1     -10.835  12.558  63.765  1.00  0.00    -0.489 A  
HETATM   35  C   UNL     1      -9.966  13.216  64.642  1.00  0.00    -0.145 A  
HETATM   36  C   UNL     1     -10.461  17.161  67.222  1.00  0.00    -0.313 A  
ENDBRANCH  22  23
ENDBRANCH  20  22
ENDBRANCH  16  20
ENDBRANCH  13  15
ENDBRANCH  11  13
BRANCH  12  37
HETATM   37  C   UNL     1      -9.252   5.786  68.056  1.00  0.00    -0.109 A  
HETATM   38  O   UNL     1     -12.272   6.859  70.684  1.00  0.00    -0.365 OA 
HETATM   39  C   UNL     1     -10.330   6.115  68.901  1.00  0.00    -0.258 A  
HETATM   40  O   UNL     1     -11.552   5.453  72.206  1.00  0.00    -0.170 OA 
HETATM   41  C   UNL     1      -8.433   4.254  69.756  1.00  0.00    -0.085 A  
HETATM   42  C   UNL     1     -10.417   5.557  70.183  1.00  0.00    -0.300 A  
HETATM   43  N   UNL     1     -11.493   5.984  71.088  1.00  0.00    -0.243 N  
HETATM   44  C   UNL     1      -9.472   4.622  70.613  1.00  0.00    -0.242 A  
HETATM   45  C   UNL     1      -8.321   4.835  68.490  1.00  0.00    -0.083 A  
ENDBRANCH  12  37
ENDBRANCH   3   5
ENDBRANCH   2   3
TORSDOF 8
ENDMDL
MODEL       72
REMARK 921   NORMALIZED FREE ENERGY PREDICTED BY IDOCK:   -5.58 KCAL/MOL
REMARK 922        TOTAL FREE ENERGY PREDICTED BY IDOCK:  -10.11 KCAL/MOL
REMARK 923 INTER-LIGAND FREE ENERGY PREDICTED BY IDOCK:   -8.58 KCAL/MOL
REMARK 924 INTRA-LIGAND FREE ENERGY PREDICTED BY IDOCK:   -1.53 KCAL/MOL
REMARK 927      BINDING AFFINITY PREDICTED BY RF-SCORE:    0.00 PKD
ROOT
HETATM    1  C   UNL     1      -9.913   3.186  71.767  1.00  0.00    -0.122 C  
HETATM    2  O   UNL     1      -8.880   3.908  72.446  1.00  0.00    -0.102 OA 
ENDROOT
BRANCH   2   3
HETATM    3  C   UNL     1      -7.721   3.982  71.738  1.00  0.00    -0.070 C  
HETATM    4  O   UNL     1      -7.179   3.025  71.207  1.00  0.00    -0.032 OA 
BRANCH   3   5
HETATM    5  C   UNL     1      -7.214   5.380  71.698  1.00  0.00    -0.084 C  
HETATM    6  C   UNL     1      -6.771   5.998  72.821  1.00  0.00    -0.073 C  
HETATM    7  N   UNL     1      -6.245   7.275  72.736  1.00  0.00    -0.055 NA 
HETATM    8  C   UNL     1      -6.790   5.463  74.234  1.00  0.00    -0.077 C  
HETATM    9  C   UNL     1      -6.291   8.083  71.620  1.00  0.00    -0.041 C  
HETATM   10  C   UNL     1      -5.763   9.487  71.821  1.00  0.00    -0.035 C  
HETATM   11  C   UNL     1      -6.778   7.590  70.455  1.00  0.00    -0.047 C  
HETATM   12  C   UNL     1      -7.210   6.121  70.342  1.00  0.00    -0.086 C  
BRANCH  11  13
HETATM   13  C   UNL     1      -6.941   8.533  69.318  1.00  0.00    -0.054 C  
HETATM   14  O   UNL     1      -6.199   8.527  68.347  1.00  0.00    -0.051 OA 
BRANCH  13  15
HETATM   15  O   UNL     1      -8.043   9.309  69.453  1.00  0.00    -0.098 OA 
HETATM   16  C   UNL     1      -9.520  11.219  68.937  1.00  0.00    -0.089 C  
HETATM   17  C   UNL     1      -8.468   9.807  67.107  1.00  0.00    -0.125 C  
HETATM   18  C   UNL     1      -8.250  10.403  68.508  1.00  0.00    -0.119 C  
HETATM   19  C   UNL     1      -7.088  11.423  68.504  1.00  0.00    -0.085 C  
BRANCH  16  20
HETATM   20  N   UNL     1     -10.840  10.538  68.973  1.00  0.00    -0.216 NA 
HETATM   21  C   UNL     1     -11.215  10.205  70.350  1.00  0.00    -0.330 C  
BRANCH  20  22
HETATM   22  C   UNL     1     -11.899  11.422  68.440  1.00  0.00    -0.274 C  
BRANCH  22  23
HETATM   23  C   UNL     1     -11.568  12.914  68.380  1.00  0.00    -0.369 C  
HETATM   24  C   UNL     1     -10.552  13.372  67.302  1.00  0.00    -0.256 C  
HETATM   25  C   UNL     1     -10.139  14.812  67.652  1.00  0.00    -0.227 A  
HETATM   26  C   UNL     1     -11.066  13.124  65.881  1.00  0.00    -0.298 A  
HETATM   27  C   UNL     1      -8.793  15.121  67.896  1.00  0.00    -0.166 A  
HETATM   28  C   UNL     1     -11.845  14.042  65.161  1.00  0.00    -0.370 A  
HETATM   29  C   UNL     1      -8.433  16.362  68.434  1.00  0.00    -0.204 A  
HETATM   30  C   UNL     1     -12.392  13.712  63.919  1.00  0.00    -0.375 A  
HETATM   31  C   UNL     1     -12.171  12.457  63.365  1.00  0.00    -0.623 A  
HETATM   32  C   UNL     1      -9.410  17.315  68.719  1.00  0.00    -0.239 A  
HETATM   33  C   UNL     1     -10.743  17.044  68.439  1.00  0.00    -0.361 A  
HETATM   34  C   UNL     1     -11.384  11.535  64.044  1.00  0.00    -0.380 A  
HETATM   35  C   UNL     1     -10.831  11.870  65.285  1.00  0.00    -0.347 A  
HETATM   36  C   UNL     1     -11.103  15.806  67.912  1.00  0.00    -0.326 A  
ENDBRANCH  22  23
ENDBRANCH  20  22
ENDBRANCH  16  20
ENDBRANCH  13  15
ENDBRANCH  11  13
BRANCH  12  37
HETATM   37  C   UNL     1      -8.559   5.999  69.626  1.00  0.00    -0.126 A  
HETATM   38  O   UNL     1      -8.827   4.276  65.867  1.00  0.00    -0.116 OA 
HETATM   39  C   UNL     1      -8.637   5.344  68.382  1.00  0.00    -0.095 A  
HETATM   40  O   UNL     1     -10.978   4.687  65.747  1.00  0.00    -0.237 OA 
HETATM   41  C   UNL     1     -10.935   6.487  69.478  1.00  0.00    -0.398 A  
HETATM   42  C   UNL     1      -9.845   5.316  67.674  1.00  0.00    -0.155 A  
HETATM   43  N   UNL     1      -9.886   4.713  66.335  1.00  0.00    -0.202 N  
HETATM   44  C   UNL     1     -10.998   5.883  68.221  1.00  0.00    -0.262 A  
HETATM   45  C   UNL     1      -9.724   6.549  70.174  1.00  0.00    -0.180 A  
ENDBRANCH  12  37
ENDBRANCH   3   5
ENDBRANCH   2   3
TORSDOF 8
ENDMDL
MODEL       73
REMARK 921   NORMALIZED FREE ENERGY PREDICTED BY IDOCK:   -5.58 KCAL/MOL
REMARK 922        TOTAL FREE ENERGY PREDICTED BY IDOCK:  -10.10 KCAL/MOL
REMARK 923 INTER-LIGAND FREE ENERGY PREDICTED BY IDOCK:   -9.16 KCAL/MOL
REMARK 924 INTRA-LIGAND FREE ENERGY PREDICTED BY IDOCK:   -0.94 KCAL/MOL
REMARK 927      BINDING AFFINITY PREDICTED BY RF-SCORE:    0.00 PKD
ROOT
HETATM    1  C   UNL     1      -5.845   3.716  71.773  1.00  0.00    -0.013 C  
HETATM    2  O   UNL     1      -6.478   3.400  70.528  1.00  0.00    -0.030 OA 
ENDROOT
BRANCH   2   3
HETATM    3  C   UNL     1      -7.781   3.036  70.665  1.00  0.00    -0.043 C  
HETATM    4  O   UNL     1      -8.166   2.120  71.376  1.00  0.00    -0.049 OA 
BRANCH   3   5
HETATM    5  C   UNL     1      -8.663   3.902  69.836  1.00  0.00    -0.123 C  
HETATM    6  C   UNL     1      -8.566   3.911  68.484  1.00  0.00    -0.094 C  
HETATM    7  N   UNL     1      -9.445   4.679  67.741  1.00  0.00    -0.144 NA 
HETATM    8  C   UNL     1      -7.564   3.173  67.627  1.00  0.00    -0.061 C  
HETATM    9  C   UNL     1     -10.324   5.608  68.258  1.00  0.00    -0.194 C  
HETATM   10  C   UNL     1     -11.086   6.413  67.228  1.00  0.00    -0.416 C  
HETATM   11  C   UNL     1     -10.455   5.733  69.601  1.00  0.00    -0.363 C  
HETATM   12  C   UNL     1      -9.691   4.803  70.555  1.00  0.00    -0.281 C  
BRANCH  11  13
HETATM   13  C   UNL     1     -11.303   6.839  70.115  1.00  0.00    -0.350 C  
HETATM   14  O   UNL     1     -12.213   6.655  70.909  1.00  0.00    -0.368 OA 
BRANCH  13  15
HETATM   15  O   UNL     1     -10.885   8.049  69.674  1.00  0.00    -0.240 OA 
HETATM   16  C   UNL     1     -10.651  10.507  69.748  1.00  0.00    -0.227 C  
HETATM   17  C   UNL     1     -10.290   9.065  71.807  1.00  0.00    -0.407 C  
HETATM   18  C   UNL     1     -11.114   9.220  70.518  1.00  0.00    -0.265 C  
HETATM   19  C   UNL     1     -12.610   9.448  70.838  1.00  0.00    -0.203 C  
BRANCH  16  20
HETATM   20  N   UNL     1      -9.225  10.639  69.351  1.00  0.00    -0.114 NA 
HETATM   21  C   UNL     1      -8.865   9.618  68.364  1.00  0.00    -0.123 C  
BRANCH  20  22
HETATM   22  C   UNL     1      -8.977  11.953  68.721  1.00  0.00     0.053 C  
BRANCH  22  23
HETATM   23  C   UNL     1      -9.492  12.124  67.290  1.00  0.00    -0.184 C  
HETATM   24  C   UNL     1     -10.432  13.326  67.012  1.00  0.00    -0.249 C  
HETATM   25  C   UNL     1     -11.064  13.094  65.630  1.00  0.00    -0.296 A  
HETATM   26  C   UNL     1      -9.733  14.669  67.240  1.00  0.00    -0.231 A  
HETATM   27  C   UNL     1     -12.459  13.011  65.497  1.00  0.00    -0.496 A  
HETATM   28  C   UNL     1      -9.005  15.348  66.251  1.00  0.00    -0.341 A  
HETATM   29  C   UNL     1     -13.034  12.578  64.297  1.00  0.00    -0.253 A  
HETATM   30  C   UNL     1      -8.284  16.507  66.549  1.00  0.00    -0.335 A  
HETATM   31  C   UNL     1      -8.276  17.017  67.841  1.00  0.00    -0.200 A  
HETATM   32  C   UNL     1     -12.228  12.239  63.211  1.00  0.00    -0.528 A  
HETATM   33  C   UNL     1     -10.849  12.361  63.309  1.00  0.00    -0.300 A  
HETATM   34  C   UNL     1      -9.008  16.379  68.836  1.00  0.00    -0.256 A  
HETATM   35  C   UNL     1      -9.735  15.223  68.534  1.00  0.00    -0.211 A  
HETATM   36  C   UNL     1     -10.273  12.784  64.506  1.00  0.00    -0.333 A  
ENDBRANCH  22  23
ENDBRANCH  20  22
ENDBRANCH  16  20
ENDBRANCH  13  15
ENDBRANCH  11  13
BRANCH  12  37
HETATM   37  C   UNL     1      -9.049   5.595  71.698  1.00  0.00    -0.150 A  
HETATM   38  O   UNL     1      -6.015   8.321  70.959  1.00  0.00    -0.033 OA 
HETATM   39  C   UNL     1      -8.072   6.570  71.415  1.00  0.00    -0.112 A  
HETATM   40  O   UNL     1      -5.774   8.748  73.097  1.00  0.00    -0.089 OA 
HETATM   41  C   UNL     1      -8.757   6.042  74.069  1.00  0.00    -0.119 A  
HETATM   42  C   UNL     1      -7.408   7.226  72.458  1.00  0.00    -0.075 A  
HETATM   43  N   UNL     1      -6.324   8.169  72.148  1.00  0.00    -0.052 N  
HETATM   44  C   UNL     1      -7.751   6.969  73.788  1.00  0.00    -0.117 A  
HETATM   45  C   UNL     1      -9.398   5.357  73.033  1.00  0.00    -0.142 A  
ENDBRANCH  12  37
ENDBRANCH   3   5
ENDBRANCH   2   3
TORSDOF 8
ENDMDL
MODEL       74
REMARK 921   NORMALIZED FREE ENERGY PREDICTED BY IDOCK:   -5.57 KCAL/MOL
REMARK 922        TOTAL FREE ENERGY PREDICTED BY IDOCK:  -10.08 KCAL/MOL
REMARK 923 INTER-LIGAND FREE ENERGY PREDICTED BY IDOCK:   -8.70 KCAL/MOL
REMARK 924 INTRA-LIGAND FREE ENERGY PREDICTED BY IDOCK:   -1.39 KCAL/MOL
REMARK 927      BINDING AFFINITY PREDICTED BY RF-SCORE:    0.00 PKD
ROOT
HETATM    1  C   UNL     1     -10.588   2.433  73.710  1.00  0.00    -0.154 C  
HETATM    2  O   UNL     1      -9.656   3.265  74.409  1.00  0.00    -0.092 OA 
ENDROOT
BRANCH   2   3
HETATM    3  C   UNL     1      -9.531   4.506  73.867  1.00  0.00    -0.116 C  
HETATM    4  O   UNL     1      -9.993   5.521  74.363  1.00  0.00    -0.193 OA 
BRANCH   3   5
HETATM    5  C   UNL     1      -8.756   4.453  72.597  1.00  0.00    -0.113 C  
HETATM    6  C   UNL     1      -7.409   4.298  72.604  1.00  0.00    -0.073 C  
HETATM    7  N   UNL     1      -6.728   4.187  71.405  1.00  0.00    -0.029 NA 
HETATM    8  C   UNL     1      -6.494   4.245  73.805  1.00  0.00    -0.051 C  
HETATM    9  C   UNL     1      -7.272   4.406  70.157  1.00  0.00    -0.046 C  
HETATM   10  C   UNL     1      -6.287   4.350  69.008  1.00  0.00    -0.032 C  
HETATM   11  C   UNL     1      -8.601   4.637  70.036  1.00  0.00    -0.101 C  
HETATM   12  C   UNL     1      -9.523   4.587  71.263  1.00  0.00    -0.222 C  
BRANCH  11  13
HETATM   13  C   UNL     1      -9.122   5.008  68.694  1.00  0.00    -0.110 C  
HETATM   14  O   UNL     1      -9.967   4.346  68.111  1.00  0.00    -0.102 OA 
BRANCH  13  15
HETATM   15  O   UNL     1      -8.620   6.188  68.260  1.00  0.00    -0.116 OA 
HETATM   16  C   UNL     1      -8.418   8.113  66.727  1.00  0.00    -0.123 C  
HETATM   17  C   UNL     1     -10.677   7.229  67.475  1.00  0.00    -0.326 C  
HETATM   18  C   UNL     1      -9.240   6.830  67.103  1.00  0.00    -0.134 C  
HETATM   19  C   UNL     1      -9.217   5.942  65.838  1.00  0.00    -0.108 C  
BRANCH  16  20
HETATM   20  N   UNL     1      -8.304   9.216  67.716  1.00  0.00    -0.116 NA 
HETATM   21  C   UNL     1      -6.922   9.353  68.184  1.00  0.00    -0.075 C  
BRANCH  20  22
HETATM   22  C   UNL     1      -8.680  10.509  67.103  1.00  0.00    -0.130 C  
BRANCH  22  23
HETATM   23  C   UNL     1      -9.628  11.392  67.917  1.00  0.00    -0.180 C  
HETATM   24  C   UNL     1      -9.954  12.797  67.348  1.00  0.00    -0.212 C  
HETATM   25  C   UNL     1     -10.631  13.595  68.474  1.00  0.00    -0.259 A  
HETATM   26  C   UNL     1     -10.695  12.719  66.010  1.00  0.00    -0.295 A  
HETATM   27  C   UNL     1     -10.066  14.797  68.925  1.00  0.00    -0.237 A  
HETATM   28  C   UNL     1     -12.090  12.636  65.894  1.00  0.00    -0.459 A  
HETATM   29  C   UNL     1     -10.537  15.412  70.091  1.00  0.00    -0.314 A  
HETATM   30  C   UNL     1     -12.705  12.441  64.654  1.00  0.00    -0.372 A  
HETATM   31  C   UNL     1     -11.939  12.328  63.501  1.00  0.00    -0.625 A  
HETATM   32  C   UNL     1     -11.589  14.846  70.810  1.00  0.00    -0.345 A  
HETATM   33  C   UNL     1     -12.192  13.682  70.352  1.00  0.00    -0.434 A  
HETATM   34  C   UNL     1     -10.555  12.429  63.582  1.00  0.00    -0.481 A  
HETATM   35  C   UNL     1      -9.942  12.632  64.823  1.00  0.00    -0.164 A  
HETATM   36  C   UNL     1     -11.717  13.063  69.196  1.00  0.00    -0.378 A  
ENDBRANCH  22  23
ENDBRANCH  20  22
ENDBRANCH  16  20
ENDBRANCH  13  15
ENDBRANCH  11  13
BRANCH  12  37
HETATM   37  C   UNL     1     -10.482   5.782  71.279  1.00  0.00    -0.295 A  
HETATM   38  O   UNL     1      -9.059   9.661  70.953  1.00  0.00    -0.182 OA 
HETATM   39  C   UNL     1      -9.983   7.086  71.092  1.00  0.00    -0.191 A  
HETATM   40  O   UNL     1     -11.071  10.501  71.187  1.00  0.00     0.012 OA 
HETATM   41  C   UNL     1     -12.707   6.714  71.576  1.00  0.00    -0.248 A  
HETATM   42  C   UNL     1     -10.836   8.190  71.206  1.00  0.00    -0.237 A  
HETATM   43  N   UNL     1     -10.282   9.548  71.104  1.00  0.00    -0.283 N  
HETATM   44  C   UNL     1     -12.201   8.008  71.443  1.00  0.00    -0.335 A  
HETATM   45  C   UNL     1     -11.854   5.610  71.499  1.00  0.00     0.381 A  
ENDBRANCH  12  37
ENDBRANCH   3   5
ENDBRANCH   2   3
TORSDOF 8
ENDMDL
MODEL       75
REMARK 921   NORMALIZED FREE ENERGY PREDICTED BY IDOCK:   -5.55 KCAL/MOL
REMARK 922        TOTAL FREE ENERGY PREDICTED BY IDOCK:  -10.06 KCAL/MOL
REMARK 923 INTER-LIGAND FREE ENERGY PREDICTED BY IDOCK:  -10.14 KCAL/MOL
REMARK 924 INTRA-LIGAND FREE ENERGY PREDICTED BY IDOCK:    0.09 KCAL/MOL
REMARK 927      BINDING AFFINITY PREDICTED BY RF-SCORE:    0.00 PKD
ROOT
HETATM    1  C   UNL     1     -10.490  19.935  68.084  1.00  0.00    -0.332 C  
HETATM    2  O   UNL     1     -11.093  18.844  67.379  1.00  0.00    -0.359 OA 
ENDROOT
BRANCH   2   3
HETATM    3  C   UNL     1     -10.287  18.313  66.421  1.00  0.00    -0.400 C  
HETATM    4  O   UNL     1     -10.579  18.250  65.237  1.00  0.00    -0.562 OA 
BRANCH   3   5
HETATM    5  C   UNL     1      -9.011  17.826  67.012  1.00  0.00    -0.258 C  
HETATM    6  C   UNL     1      -7.833  18.439  66.739  1.00  0.00    -0.235 C  
HETATM    7  N   UNL     1      -6.675  18.001  67.357  1.00  0.00    -0.179 NA 
HETATM    8  C   UNL     1      -7.591  19.587  65.787  1.00  0.00    -0.245 C  
HETATM    9  C   UNL     1      -6.560  16.851  68.110  1.00  0.00    -0.145 C  
HETATM   10  C   UNL     1      -5.157  16.522  68.569  1.00  0.00    -0.105 C  
HETATM   11  C   UNL     1      -7.666  16.120  68.390  1.00  0.00    -0.154 C  
HETATM   12  C   UNL     1      -9.056  16.594  67.943  1.00  0.00    -0.218 C  
BRANCH  11  13
HETATM   13  C   UNL     1      -7.479  14.817  69.081  1.00  0.00    -0.153 C  
HETATM   14  O   UNL     1      -7.291  14.733  70.285  1.00  0.00     0.057 OA 
BRANCH  13  15
HETATM   15  O   UNL     1      -7.636  13.768  68.240  1.00  0.00    -0.108 OA 
HETATM   16  C   UNL     1      -6.941  11.709  67.067  1.00  0.00    -0.144 C  
HETATM   17  C   UNL     1      -6.523  12.041  69.549  1.00  0.00    -0.109 C  
HETATM   18  C   UNL     1      -6.589  12.750  68.186  1.00  0.00    -0.088 C  
HETATM   19  C   UNL     1      -5.209  13.327  67.792  1.00  0.00    -0.075 C  
BRANCH  16  20
HETATM   20  N   UNL     1      -8.190  10.914  67.185  1.00  0.00    -0.123 NA 
HETATM   21  C   UNL     1      -8.610  10.409  65.875  1.00  0.00    -0.158 C  
BRANCH  20  22
HETATM   22  C   UNL     1      -7.980   9.734  68.053  1.00  0.00    -0.097 C  
BRANCH  22  23
HETATM   23  C   UNL     1      -8.690   8.447  67.627  1.00  0.00    -0.137 C  
HETATM   24  C   UNL     1      -8.746   7.292  68.661  1.00  0.00    -0.127 C  
HETATM   25  C   UNL     1      -9.194   6.031  67.904  1.00  0.00    -0.111 A  
HETATM   26  C   UNL     1      -9.544   7.674  69.910  1.00  0.00    -0.160 A  
HETATM   27  C   UNL     1      -8.375   4.892  67.883  1.00  0.00    -0.103 A  
HETATM   28  C   UNL     1     -10.931   7.500  70.033  1.00  0.00    -0.252 A  
HETATM   29  C   UNL     1      -8.659   3.828  67.020  1.00  0.00    -0.110 A  
HETATM   30  C   UNL     1     -11.626   7.981  71.146  1.00  0.00    -0.307 A  
HETATM   31  C   UNL     1     -10.951   8.644  72.163  1.00  0.00    -0.434 A  
HETATM   32  C   UNL     1      -9.772   3.878  66.182  1.00  0.00    -0.173 A  
HETATM   33  C   UNL     1     -10.620   4.976  66.224  1.00  0.00    -0.332 A  
HETATM   34  C   UNL     1      -9.573   8.811  72.079  1.00  0.00    -0.356 A  
HETATM   35  C   UNL     1      -8.878   8.322  70.968  1.00  0.00    -0.176 A  
HETATM   36  C   UNL     1     -10.334   6.041  67.077  1.00  0.00    -0.296 A  
ENDBRANCH  22  23
ENDBRANCH  20  22
ENDBRANCH  16  20
ENDBRANCH  13  15
ENDBRANCH  11  13
BRANCH  12  37
HETATM   37  C   UNL     1      -9.855  15.444  67.321  1.00  0.00    -0.217 A  
HETATM   38  O   UNL     1     -11.713  12.608  69.705  1.00  0.00    -0.309 OA 
HETATM   39  C   UNL     1     -10.539  14.534  68.151  1.00  0.00    -0.238 A  
HETATM   40  O   UNL     1     -12.398  11.475  67.957  1.00  0.00    -0.445 OA 
HETATM   41  C   UNL     1     -10.582  14.167  65.385  1.00  0.00    -0.358 A  
HETATM   42  C   UNL     1     -11.187  13.424  67.597  1.00  0.00    -0.276 A  
HETATM   43  N   UNL     1     -11.814  12.434  68.484  1.00  0.00    -0.323 N  
HETATM   44  C   UNL     1     -11.214  13.239  66.213  1.00  0.00    -0.321 A  
HETATM   45  C   UNL     1      -9.903  15.259  65.934  1.00  0.00    -0.385 A  
ENDBRANCH  12  37
ENDBRANCH   3   5
ENDBRANCH   2   3
TORSDOF 8
ENDMDL
MODEL       76
REMARK 921   NORMALIZED FREE ENERGY PREDICTED BY IDOCK:   -5.55 KCAL/MOL
REMARK 922        TOTAL FREE ENERGY PREDICTED BY IDOCK:  -10.05 KCAL/MOL
REMARK 923 INTER-LIGAND FREE ENERGY PREDICTED BY IDOCK:   -8.47 KCAL/MOL
REMARK 924 INTRA-LIGAND FREE ENERGY PREDICTED BY IDOCK:   -1.58 KCAL/MOL
REMARK 927      BINDING AFFINITY PREDICTED BY RF-SCORE:    0.00 PKD
ROOT
HETATM    1  C   UNL     1      -8.714   2.157  65.285  1.00  0.00    -0.118 C  
HETATM    2  O   UNL     1      -8.445   3.418  65.907  1.00  0.00    -0.104 OA 
ENDROOT
BRANCH   2   3
HETATM    3  C   UNL     1      -9.294   4.404  65.512  1.00  0.00    -0.162 C  
HETATM    4  O   UNL     1     -10.482   4.236  65.284  1.00  0.00    -0.249 OA 
BRANCH   3   5
HETATM    5  C   UNL     1      -8.580   5.705  65.401  1.00  0.00    -0.150 C  
HETATM    6  C   UNL     1      -7.643   5.911  64.442  1.00  0.00    -0.087 C  
HETATM    7  N   UNL     1      -7.046   7.154  64.327  1.00  0.00    -0.059 NA 
HETATM    8  C   UNL     1      -7.119   4.912  63.437  1.00  0.00    -0.048 C  
HETATM    9  C   UNL     1      -7.176   8.187  65.230  1.00  0.00    -0.068 C  
HETATM   10  C   UNL     1      -6.316   9.400  64.946  1.00  0.00    -0.077 C  
HETATM   11  C   UNL     1      -8.036   8.065  66.270  1.00  0.00    -0.105 C  
HETATM   12  C   UNL     1      -8.923   6.820  66.414  1.00  0.00    -0.165 C  
BRANCH  11  13
HETATM   13  C   UNL     1      -8.041   9.140  67.296  1.00  0.00    -0.106 C  
HETATM   14  O   UNL     1      -7.391   9.066  68.328  1.00  0.00    -0.080 OA 
BRANCH  13  15
HETATM   15  O   UNL     1      -8.761  10.217  66.903  1.00  0.00    -0.129 OA 
HETATM   16  C   UNL     1     -10.677  11.774  66.952  1.00  0.00    -0.250 C  
HETATM   17  C   UNL     1      -9.531  10.994  69.080  1.00  0.00    -0.123 C  
HETATM   18  C   UNL     1      -9.957  10.574  67.663  1.00  0.00    -0.173 C  
HETATM   19  C   UNL     1     -11.003   9.437  67.710  1.00  0.00    -0.122 C  
BRANCH  16  20
HETATM   20  N   UNL     1      -9.958  13.067  66.808  1.00  0.00    -0.239 NA 
HETATM   21  C   UNL     1     -10.038  13.553  65.428  1.00  0.00    -0.262 C  
BRANCH  20  22
HETATM   22  C   UNL     1     -10.571  14.104  67.666  1.00  0.00    -0.253 C  
BRANCH  22  23
HETATM   23  C   UNL     1     -10.226  15.555  67.323  1.00  0.00    -0.260 C  
HETATM   24  C   UNL     1      -9.311  16.321  68.313  1.00  0.00    -0.204 C  
HETATM   25  C   UNL     1      -9.385  17.810  67.938  1.00  0.00    -0.266 A  
HETATM   26  C   UNL     1      -7.915  15.697  68.410  1.00  0.00    -0.136 A  
HETATM   27  C   UNL     1      -9.828  18.753  68.877  1.00  0.00    -0.415 A  
HETATM   28  C   UNL     1      -6.847  16.040  67.567  1.00  0.00    -0.205 A  
HETATM   29  C   UNL     1     -10.116  20.066  68.485  1.00  0.00    -0.487 A  
HETATM   30  C   UNL     1      -5.633  15.351  67.617  1.00  0.00    -0.080 A  
HETATM   31  C   UNL     1      -5.457  14.304  68.513  1.00  0.00    -0.098 A  
HETATM   32  C   UNL     1      -9.949  20.458  67.158  1.00  0.00    -0.568 A  
HETATM   33  C   UNL     1      -9.466  19.550  66.225  1.00  0.00    -0.451 A  
HETATM   34  C   UNL     1      -6.490  13.957  69.377  1.00  0.00    -0.119 A  
HETATM   35  C   UNL     1      -7.702  14.654  69.330  1.00  0.00    -0.091 A  
HETATM   36  C   UNL     1      -9.187  18.240  66.611  1.00  0.00    -0.299 A  
ENDBRANCH  22  23
ENDBRANCH  20  22
ENDBRANCH  16  20
ENDBRANCH  13  15
ENDBRANCH  11  13
BRANCH  12  37
HETATM   37  C   UNL     1      -8.909   6.300  67.855  1.00  0.00    -0.112 A  
HETATM   38  O   UNL     1     -12.241   6.682  70.290  1.00  0.00    -0.294 OA 
HETATM   39  C   UNL     1     -10.077   6.374  68.640  1.00  0.00    -0.179 A  
HETATM   40  O   UNL     1     -11.188   5.802  72.000  1.00  0.00    -0.265 OA 
HETATM   41  C   UNL     1      -7.731   5.358  69.761  1.00  0.00    -0.077 A  
HETATM   42  C   UNL     1     -10.046   5.995  69.988  1.00  0.00    -0.186 A  
HETATM   43  N   UNL     1     -11.246   6.169  70.817  1.00  0.00    -0.313 N  
HETATM   44  C   UNL     1      -8.875   5.482  70.551  1.00  0.00    -0.145 A  
HETATM   45  C   UNL     1      -7.746   5.768  68.425  1.00  0.00    -0.096 A  
ENDBRANCH  12  37
ENDBRANCH   3   5
ENDBRANCH   2   3
TORSDOF 8
ENDMDL
MODEL       77
REMARK 921   NORMALIZED FREE ENERGY PREDICTED BY IDOCK:   -5.53 KCAL/MOL
REMARK 922        TOTAL FREE ENERGY PREDICTED BY IDOCK:  -10.03 KCAL/MOL
REMARK 923 INTER-LIGAND FREE ENERGY PREDICTED BY IDOCK:  -11.16 KCAL/MOL
REMARK 924 INTRA-LIGAND FREE ENERGY PREDICTED BY IDOCK:    1.13 KCAL/MOL
REMARK 927      BINDING AFFINITY PREDICTED BY RF-SCORE:    0.00 PKD
ROOT
HETATM    1  C   UNL     1     -10.462  19.316  67.823  1.00  0.00    -0.435 C  
HETATM    2  O   UNL     1     -10.873  17.952  67.680  1.00  0.00    -0.375 OA 
ENDROOT
BRANCH   2   3
HETATM    3  C   UNL     1      -9.832  17.089  67.541  1.00  0.00    -0.258 C  
HETATM    4  O   UNL     1      -8.676  17.355  67.831  1.00  0.00    -0.228 OA 
BRANCH   3   5
HETATM    5  C   UNL     1     -10.295  15.785  66.992  1.00  0.00    -0.292 C  
HETATM    6  C   UNL     1     -10.761  15.685  65.722  1.00  0.00    -0.341 C  
HETATM    7  N   UNL     1     -11.122  14.446  65.223  1.00  0.00    -0.324 NA 
HETATM    8  C   UNL     1     -10.970  16.802  64.727  1.00  0.00    -0.038 C  
HETATM    9  C   UNL     1     -11.232  13.289  65.966  1.00  0.00    -0.297 C  
HETATM   10  C   UNL     1     -11.771  12.092  65.213  1.00  0.00    -0.364 C  
HETATM   11  C   UNL     1     -10.857  13.290  67.268  1.00  0.00    -0.275 C  
HETATM   12  C   UNL     1     -10.242  14.543  67.908  1.00  0.00    -0.231 C  
BRANCH  11  13
HETATM   13  C   UNL     1     -11.124  12.065  68.067  1.00  0.00    -0.241 C  
HETATM   14  O   UNL     1     -12.255  11.661  68.292  1.00  0.00    -0.525 OA 
BRANCH  13  15
HETATM   15  O   UNL     1      -9.983  11.428  68.419  1.00  0.00    -0.190 OA 
HETATM   16  C   UNL     1      -8.644   9.570  69.342  1.00  0.00    -0.159 C  
HETATM   17  C   UNL     1     -10.565   9.164  67.734  1.00  0.00    -0.289 C  
HETATM   18  C   UNL     1     -10.068  10.047  68.890  1.00  0.00    -0.190 C  
HETATM   19  C   UNL     1     -10.969   9.891  70.137  1.00  0.00    -0.356 C  
BRANCH  16  20
HETATM   20  N   UNL     1      -7.543   9.529  68.345  1.00  0.00    -0.081 NA 
HETATM   21  C   UNL     1      -6.488  10.483  68.696  1.00  0.00    -0.051 C  
BRANCH  20  22
HETATM   22  C   UNL     1      -6.917   8.189  68.311  1.00  0.00    -0.076 C  
BRANCH  22  23
HETATM   23  C   UNL     1      -7.589   7.152  67.409  1.00  0.00    -0.109 C  
HETATM   24  C   UNL     1      -7.956   5.787  68.047  1.00  0.00    -0.101 C  
HETATM   25  C   UNL     1      -8.296   4.826  66.895  1.00  0.00    -0.106 A  
HETATM   26  C   UNL     1      -8.997   5.932  69.160  1.00  0.00    -0.119 A  
HETATM   27  C   UNL     1      -7.568   3.639  66.728  1.00  0.00    -0.080 A  
HETATM   28  C   UNL     1     -10.383   5.905  68.941  1.00  0.00    -0.290 A  
HETATM   29  C   UNL     1      -7.710   2.874  65.565  1.00  0.00    -0.077 A  
HETATM   30  C   UNL     1     -11.286   6.168  69.975  1.00  0.00    -0.471 A  
HETATM   31  C   UNL     1     -10.825   6.460  71.252  1.00  0.00    -0.306 A  
HETATM   32  C   UNL     1      -8.592   3.274  64.562  1.00  0.00    -0.094 A  
HETATM   33  C   UNL     1      -9.356   4.422  64.732  1.00  0.00    -0.160 A  
HETATM   34  C   UNL     1      -9.458   6.471  71.504  1.00  0.00    -0.162 A  
HETATM   35  C   UNL     1      -8.556   6.200  70.469  1.00  0.00    -0.138 A  
HETATM   36  C   UNL     1      -9.209   5.189  65.885  1.00  0.00    -0.163 A  
ENDBRANCH  22  23
ENDBRANCH  20  22
ENDBRANCH  16  20
ENDBRANCH  13  15
ENDBRANCH  11  13
BRANCH  12  37
HETATM   37  C   UNL     1     -10.868  14.822  69.278  1.00  0.00    -0.275 A  
HETATM   38  O   UNL     1     -13.343  12.040  71.098  1.00  0.00    -0.009 OA 
HETATM   39  C   UNL     1     -11.646  13.832  69.911  1.00  0.00    -0.298 A  
HETATM   40  O   UNL     1     -13.736  13.381  72.789  1.00  0.00    -0.697 OA 
HETATM   41  C   UNL     1     -11.332  16.322  71.134  1.00  0.00    -0.297 A  
HETATM   42  C   UNL     1     -12.303  14.114  71.114  1.00  0.00    -0.372 A  
HETATM   43  N   UNL     1     -13.187  13.104  71.711  1.00  0.00    -0.421 N  
HETATM   44  C   UNL     1     -12.145  15.357  71.732  1.00  0.00    -0.461 A  
HETATM   45  C   UNL     1     -10.702  16.058  69.914  1.00  0.00    -0.334 A  
ENDBRANCH  12  37
ENDBRANCH   3   5
ENDBRANCH   2   3
TORSDOF 8
ENDMDL
MODEL       78
REMARK 921   NORMALIZED FREE ENERGY PREDICTED BY IDOCK:   -5.48 KCAL/MOL
REMARK 922        TOTAL FREE ENERGY PREDICTED BY IDOCK:   -9.96 KCAL/MOL
REMARK 923 INTER-LIGAND FREE ENERGY PREDICTED BY IDOCK:   -8.25 KCAL/MOL
REMARK 924 INTRA-LIGAND FREE ENERGY PREDICTED BY IDOCK:   -1.71 KCAL/MOL
REMARK 927      BINDING AFFINITY PREDICTED BY RF-SCORE:    0.00 PKD
ROOT
HETATM    1  C   UNL     1     -12.780  11.998  63.128  1.00  0.00    -0.148 C  
HETATM    2  O   UNL     1     -11.687  11.356  63.794  1.00  0.00    -0.275 OA 
ENDROOT
BRANCH   2   3
HETATM    3  C   UNL     1     -10.858  12.228  64.428  1.00  0.00    -0.329 C  
HETATM    4  O   UNL     1     -10.046  12.941  63.858  1.00  0.00    -0.361 OA 
BRANCH   3   5
HETATM    5  C   UNL     1     -11.078  12.195  65.899  1.00  0.00    -0.360 C  
HETATM    6  C   UNL     1     -11.840  13.132  66.516  1.00  0.00    -0.400 C  
HETATM    7  N   UNL     1     -12.078  13.032  67.875  1.00  0.00    -0.272 NA 
HETATM    8  C   UNL     1     -12.487  14.347  65.894  1.00  0.00    -0.319 C  
HETATM    9  C   UNL     1     -11.451  12.151  68.731  1.00  0.00    -0.307 C  
HETATM   10  C   UNL     1     -11.789  12.329  70.196  1.00  0.00    -0.352 C  
HETATM   11  C   UNL     1     -10.614  11.211  68.231  1.00  0.00    -0.221 C  
HETATM   12  C   UNL     1     -10.409  11.067  66.716  1.00  0.00    -0.284 C  
BRANCH  11  13
HETATM   13  C   UNL     1      -9.852  10.376  69.196  1.00  0.00    -0.223 C  
HETATM   14  O   UNL     1      -8.713  10.648  69.544  1.00  0.00    -0.096 OA 
BRANCH  13  15
HETATM   15  O   UNL     1     -10.599   9.363  69.693  1.00  0.00    -0.210 OA 
HETATM   16  C   UNL     1     -11.241   7.001  70.025  1.00  0.00    -0.269 C  
HETATM   17  C   UNL     1      -8.825   7.767  70.184  1.00  0.00    -0.145 C  
HETATM   18  C   UNL     1     -10.162   7.989  69.457  1.00  0.00    -0.209 C  
HETATM   19  C   UNL     1     -10.041   7.646  67.954  1.00  0.00    -0.231 C  
BRANCH  16  20
HETATM   20  N   UNL     1     -11.547   7.022  71.479  1.00  0.00    -0.272 NA 
HETATM   21  C   UNL     1     -12.987   7.182  71.704  1.00  0.00    -0.370 C  
BRANCH  20  22
HETATM   22  C   UNL     1     -11.151   5.747  72.115  1.00  0.00    -0.271 C  
BRANCH  22  23
HETATM   23  C   UNL     1     -10.652   4.648  71.175  1.00  0.00     0.050 C  
HETATM   24  C   UNL     1      -9.135   4.623  70.856  1.00  0.00    -0.181 C  
HETATM   25  C   UNL     1      -8.940   3.672  69.663  1.00  0.00    -0.175 A  
HETATM   26  C   UNL     1      -8.287   4.355  72.103  1.00  0.00    -0.108 A  
HETATM   27  C   UNL     1      -8.360   4.140  68.475  1.00  0.00    -0.092 A  
HETATM   28  C   UNL     1      -7.947   3.071  72.554  1.00  0.00    -0.059 A  
HETATM   29  C   UNL     1      -8.384   3.357  67.315  1.00  0.00    -0.094 A  
HETATM   30  C   UNL     1      -7.278   2.882  73.767  1.00  0.00    -0.045 A  
HETATM   31  C   UNL     1      -6.931   3.973  74.555  1.00  0.00    -0.064 A  
HETATM   32  C   UNL     1      -8.971   2.093  67.330  1.00  0.00    -0.170 A  
HETATM   33  C   UNL     1      -9.507   1.594  68.510  1.00  0.00    -0.234 A  
HETATM   34  C   UNL     1      -7.235   5.258  74.121  1.00  0.00    -0.083 A  
HETATM   35  C   UNL     1      -7.898   5.445  72.903  1.00  0.00    -0.098 A  
HETATM   36  C   UNL     1      -9.492   2.376  69.664  1.00  0.00    -0.115 A  
ENDBRANCH  22  23
ENDBRANCH  20  22
ENDBRANCH  16  20
ENDBRANCH  13  15
ENDBRANCH  11  13
BRANCH  12  37
HETATM   37  C   UNL     1      -8.923  10.925  66.374  1.00  0.00    -0.186 A  
HETATM   38  O   UNL     1      -7.521   7.626  64.293  1.00  0.00    -0.086 OA 
HETATM   39  C   UNL     1      -8.480   9.833  65.602  1.00  0.00    -0.147 A  
HETATM   40  O   UNL     1      -5.445   8.320  64.439  1.00  0.00    -0.043 OA 
HETATM   41  C   UNL     1      -6.618  11.675  66.568  1.00  0.00     0.035 A  
HETATM   42  C   UNL     1      -7.113   9.641  65.370  1.00  0.00    -0.100 A  
HETATM   43  N   UNL     1      -6.661   8.445  64.645  1.00  0.00    -0.068 N  
HETATM   44  C   UNL     1      -6.178  10.563  65.848  1.00  0.00    -0.128 A  
HETATM   45  C   UNL     1      -7.979  11.852  66.833  1.00  0.00    -0.132 A  
ENDBRANCH  12  37
ENDBRANCH   3   5
ENDBRANCH   2   3
TORSDOF 8
ENDMDL
MODEL       79
REMARK 921   NORMALIZED FREE ENERGY PREDICTED BY IDOCK:   -5.45 KCAL/MOL
REMARK 922        TOTAL FREE ENERGY PREDICTED BY IDOCK:   -9.92 KCAL/MOL
REMARK 923 INTER-LIGAND FREE ENERGY PREDICTED BY IDOCK:   -9.70 KCAL/MOL
REMARK 924 INTRA-LIGAND FREE ENERGY PREDICTED BY IDOCK:   -0.21 KCAL/MOL
REMARK 927      BINDING AFFINITY PREDICTED BY RF-SCORE:    0.00 PKD
ROOT
HETATM    1  C   UNL     1      -5.207   5.011  70.730  1.00  0.00    -0.004 C  
HETATM    2  O   UNL     1      -5.846   3.872  70.144  1.00  0.00    -0.016 OA 
ENDROOT
BRANCH   2   3
HETATM    3  C   UNL     1      -7.049   3.581  70.709  1.00  0.00    -0.033 C  
HETATM    4  O   UNL     1      -7.192   2.859  71.683  1.00  0.00    -0.037 OA 
BRANCH   3   5
HETATM    5  C   UNL     1      -8.154   4.262  69.982  1.00  0.00    -0.061 C  
HETATM    6  C   UNL     1      -8.145   4.363  68.629  1.00  0.00    -0.077 C  
HETATM    7  N   UNL     1      -9.221   4.945  67.981  1.00  0.00    -0.118 NA 
HETATM    8  C   UNL     1      -7.057   3.920  67.679  1.00  0.00    -0.056 C  
HETATM    9  C   UNL     1     -10.253   5.619  68.599  1.00  0.00    -0.200 C  
HETATM   10  C   UNL     1     -11.241   6.279  67.661  1.00  0.00    -0.225 C  
HETATM   11  C   UNL     1     -10.326   5.641  69.951  1.00  0.00    -0.347 C  
HETATM   12  C   UNL     1      -9.313   4.864  70.806  1.00  0.00    -0.211 C  
BRANCH  11  13
HETATM   13  C   UNL     1     -11.370   6.495  70.576  1.00  0.00    -0.367 C  
HETATM   14  O   UNL     1     -12.085   6.099  71.484  1.00  0.00    -0.203 OA 
BRANCH  13  15
HETATM   15  O   UNL     1     -11.356   7.757  70.087  1.00  0.00    -0.225 OA 
HETATM   16  C   UNL     1     -11.693  10.201  70.175  1.00  0.00    -0.256 C  
HETATM   17  C   UNL     1     -10.552   8.939  72.059  1.00  0.00    -0.388 C  
HETATM   18  C   UNL     1     -11.657   8.863  70.993  1.00  0.00    -0.293 C  
HETATM   19  C   UNL     1     -13.053   8.743  71.647  1.00  0.00    -0.394 C  
BRANCH  16  20
HETATM   20  N   UNL     1     -10.464  10.653  69.472  1.00  0.00    -0.223 NA 
HETATM   21  C   UNL     1     -10.117   9.729  68.389  1.00  0.00    -0.166 C  
BRANCH  20  22
HETATM   22  C   UNL     1     -10.673  11.981  68.855  1.00  0.00    -0.185 C  
BRANCH  22  23
HETATM   23  C   UNL     1     -11.551  12.960  69.637  1.00  0.00    -0.318 C  
HETATM   24  C   UNL     1     -10.868  14.233  70.200  1.00  0.00     0.185 C  
HETATM   25  C   UNL     1     -11.847  14.866  71.202  1.00  0.00    -0.387 A  
HETATM   26  C   UNL     1     -10.330  15.138  69.088  1.00  0.00    -0.249 A  
HETATM   27  C   UNL     1     -11.468  15.050  72.540  1.00  0.00    -0.259 A  
HETATM   28  C   UNL     1     -11.087  16.140  68.462  1.00  0.00    -0.357 A  
HETATM   29  C   UNL     1     -12.415  15.409  73.505  1.00  0.00    -0.666 A  
HETATM   30  C   UNL     1     -10.586  16.851  67.369  1.00  0.00    -0.294 A  
HETATM   31  C   UNL     1      -9.315  16.581  66.878  1.00  0.00    -0.248 A  
HETATM   32  C   UNL     1     -13.748  15.606  73.146  1.00  0.00    -0.467 A  
HETATM   33  C   UNL     1     -14.132  15.475  71.818  1.00  0.00    -0.570 A  
HETATM   34  C   UNL     1      -8.533  15.610  67.492  1.00  0.00    -0.182 A  
HETATM   35  C   UNL     1      -9.034  14.904  68.592  1.00  0.00    -0.184 A  
HETATM   36  C   UNL     1     -13.192  15.108  70.857  1.00  0.00    -0.488 A  
ENDBRANCH  22  23
ENDBRANCH  20  22
ENDBRANCH  16  20
ENDBRANCH  13  15
ENDBRANCH  11  13
BRANCH  12  37
HETATM   37  C   UNL     1      -8.799   5.723  71.965  1.00  0.00    -0.138 A  
HETATM   38  O   UNL     1      -6.150   8.840  71.293  1.00  0.00    -0.041 OA 
HETATM   39  C   UNL     1      -7.957   6.823  71.704  1.00  0.00    -0.102 A  
HETATM   40  O   UNL     1      -5.996   9.273  73.438  1.00  0.00    -0.300 OA 
HETATM   41  C   UNL     1      -8.599   6.180  74.344  1.00  0.00    -0.124 A  
HETATM   42  C   UNL     1      -7.402   7.552  72.763  1.00  0.00    -0.080 A  
HETATM   43  N   UNL     1      -6.451   8.635  72.477  1.00  0.00    -0.081 N  
HETATM   44  C   UNL     1      -7.724   7.236  74.085  1.00  0.00    -0.141 A  
HETATM   45  C   UNL     1      -9.129   5.426  73.292  1.00  0.00    -0.126 A  
ENDBRANCH  12  37
ENDBRANCH   3   5
ENDBRANCH   2   3
TORSDOF 8
ENDMDL
MODEL       80
REMARK 921   NORMALIZED FREE ENERGY PREDICTED BY IDOCK:   -5.40 KCAL/MOL
REMARK 922        TOTAL FREE ENERGY PREDICTED BY IDOCK:   -9.83 KCAL/MOL
REMARK 923 INTER-LIGAND FREE ENERGY PREDICTED BY IDOCK:   -9.58 KCAL/MOL
REMARK 924 INTRA-LIGAND FREE ENERGY PREDICTED BY IDOCK:   -0.25 KCAL/MOL
REMARK 927      BINDING AFFINITY PREDICTED BY RF-SCORE:    0.00 PKD
ROOT
HETATM    1  C   UNL     1     -10.653  17.802  68.444  1.00  0.00    -0.291 C  
HETATM    2  O   UNL     1     -11.311  16.533  68.364  1.00  0.00    -0.348 OA 
ENDROOT
BRANCH   2   3
HETATM    3  C   UNL     1     -11.131  15.764  69.471  1.00  0.00    -0.306 C  
HETATM    4  O   UNL     1     -10.959  16.209  70.596  1.00  0.00    -0.311 OA 
BRANCH   3   5
HETATM    5  C   UNL     1     -11.176  14.318  69.124  1.00  0.00    -0.302 C  
HETATM    6  C   UNL     1     -11.949  13.452  69.825  1.00  0.00    -0.330 C  
HETATM    7  N   UNL     1     -12.017  12.126  69.433  1.00  0.00    -0.295 NA 
HETATM    8  C   UNL     1     -12.779  13.744  71.052  1.00  0.00    -0.416 C  
HETATM    9  C   UNL     1     -11.213  11.534  68.482  1.00  0.00    -0.258 C  
HETATM   10  C   UNL     1     -11.394  10.040  68.328  1.00  0.00    -0.117 C  
HETATM   11  C   UNL     1     -10.351  12.295  67.765  1.00  0.00    -0.216 C  
HETATM   12  C   UNL     1     -10.309  13.819  67.946  1.00  0.00    -0.244 C  
BRANCH  11  13
HETATM   13  C   UNL     1      -9.404  11.599  66.854  1.00  0.00    -0.188 C  
HETATM   14  O   UNL     1      -8.763  12.189  65.998  1.00  0.00    -0.007 OA 
BRANCH  13  15
HETATM   15  O   UNL     1      -9.282  10.285  67.153  1.00  0.00    -0.144 OA 
HETATM   16  C   UNL     1      -8.057   8.214  67.710  1.00  0.00    -0.127 C  
HETATM   17  C   UNL     1      -7.538  10.423  68.847  1.00  0.00    -0.103 C  
HETATM   18  C   UNL     1      -7.966   9.769  67.524  1.00  0.00    -0.106 C  
HETATM   19  C   UNL     1      -6.902   9.990  66.423  1.00  0.00    -0.093 C  
BRANCH  16  20
HETATM   20  N   UNL     1      -8.953   7.662  68.758  1.00  0.00    -0.134 NA 
HETATM   21  C   UNL     1      -9.692   6.502  68.251  1.00  0.00    -0.131 C  
BRANCH  20  22
HETATM   22  C   UNL     1      -8.170   7.196  69.923  1.00  0.00    -0.133 C  
BRANCH  22  23
HETATM   23  C   UNL     1      -8.692   5.945  70.633  1.00  0.00    -0.137 C  
HETATM   24  C   UNL     1      -9.361   6.141  72.018  1.00  0.00    -0.154 C  
HETATM   25  C   UNL     1      -9.492   4.749  72.657  1.00  0.00    -0.159 A  
HETATM   26  C   UNL     1     -10.635   6.987  71.929  1.00  0.00    -0.239 A  
HETATM   27  C   UNL     1      -8.881   4.479  73.891  1.00  0.00    -0.104 A  
HETATM   28  C   UNL     1     -11.909   6.455  71.681  1.00  0.00    -0.361 A  
HETATM   29  C   UNL     1      -8.798   3.167  74.372  1.00  0.00    -0.086 A  
HETATM   30  C   UNL     1     -13.016   7.285  71.486  1.00  0.00    -0.434 A  
HETATM   31  C   UNL     1     -12.876   8.666  71.536  1.00  0.00    -0.351 A  
HETATM   32  C   UNL     1      -9.338   2.112  73.638  1.00  0.00    -0.091 A  
HETATM   33  C   UNL     1      -9.988   2.367  72.438  1.00  0.00    -0.221 A  
HETATM   34  C   UNL     1     -11.629   9.221  71.803  1.00  0.00    -0.458 A  
HETATM   35  C   UNL     1     -10.524   8.388  72.006  1.00  0.00    -0.384 A  
HETATM   36  C   UNL     1     -10.064   3.671  71.953  1.00  0.00    -0.182 A  
ENDBRANCH  22  23
ENDBRANCH  20  22
ENDBRANCH  16  20
ENDBRANCH  13  15
ENDBRANCH  11  13
BRANCH  12  37
HETATM   37  C   UNL     1      -8.866  14.321  68.052  1.00  0.00    -0.178 A  
HETATM   38  O   UNL     1      -7.476  17.349  65.587  1.00  0.00    -0.408 OA 
HETATM   39  C   UNL     1      -8.437  15.401  67.255  1.00  0.00    -0.214 A  
HETATM   40  O   UNL     1      -5.453  17.206  66.423  1.00  0.00    -0.258 OA 
HETATM   41  C   UNL     1      -6.616  14.138  68.952  1.00  0.00    -0.099 A  
HETATM   42  C   UNL     1      -7.095  15.800  67.272  1.00  0.00    -0.210 A  
HETATM   43  N   UNL     1      -6.644  16.864  66.365  1.00  0.00    -0.175 N  
HETATM   44  C   UNL     1      -6.181  15.173  68.123  1.00  0.00    -0.140 A  
HETATM   45  C   UNL     1      -7.946  13.711  68.914  1.00  0.00     0.061 A  
ENDBRANCH  12  37
ENDBRANCH   3   5
ENDBRANCH   2   3
TORSDOF 8
ENDMDL
MODEL       81
REMARK 921   NORMALIZED FREE ENERGY PREDICTED BY IDOCK:   -5.39 KCAL/MOL
REMARK 922        TOTAL FREE ENERGY PREDICTED BY IDOCK:   -9.82 KCAL/MOL
REMARK 923 INTER-LIGAND FREE ENERGY PREDICTED BY IDOCK:   -8.85 KCAL/MOL
REMARK 924 INTRA-LIGAND FREE ENERGY PREDICTED BY IDOCK:   -0.97 KCAL/MOL
REMARK 927      BINDING AFFINITY PREDICTED BY RF-SCORE:    0.00 PKD
ROOT
HETATM    1  C   UNL     1      -9.604   2.272  68.067  1.00  0.00    -0.027 C  
HETATM    2  O   UNL     1      -9.457   3.514  68.763  1.00  0.00    -0.164 OA 
ENDROOT
BRANCH   2   3
HETATM    3  C   UNL     1      -9.495   4.598  67.942  1.00  0.00    -0.152 C  
HETATM    4  O   UNL     1     -10.282   4.731  67.017  1.00  0.00    -0.203 OA 
BRANCH   3   5
HETATM    5  C   UNL     1      -8.456   5.591  68.326  1.00  0.00    -0.097 C  
HETATM    6  C   UNL     1      -7.136   5.295  68.238  1.00  0.00    -0.062 C  
HETATM    7  N   UNL     1      -6.196   6.264  68.541  1.00  0.00    -0.031 NA 
HETATM    8  C   UNL     1      -6.513   3.974  67.848  1.00  0.00    -0.038 C  
HETATM    9  C   UNL     1      -6.470   7.486  69.118  1.00  0.00    -0.040 C  
HETATM   10  C   UNL     1      -5.255   8.315  69.472  1.00  0.00    -0.030 C  
HETATM   11  C   UNL     1      -7.757   7.860  69.318  1.00  0.00    -0.099 C  
HETATM   12  C   UNL     1      -8.916   6.973  68.842  1.00  0.00    -0.129 C  
BRANCH  11  13
HETATM   13  C   UNL     1      -8.005   9.118  70.070  1.00  0.00    -0.113 C  
HETATM   14  O   UNL     1      -8.393   9.125  71.228  1.00  0.00    -0.288 OA 
BRANCH  13  15
HETATM   15  O   UNL     1      -7.663  10.215  69.354  1.00  0.00    -0.109 OA 
HETATM   16  C   UNL     1      -7.986  11.973  67.650  1.00  0.00    -0.150 C  
HETATM   17  C   UNL     1      -9.831  11.324  69.269  1.00  0.00     0.067 C  
HETATM   18  C   UNL     1      -8.649  10.792  68.442  1.00  0.00    -0.141 C  
HETATM   19  C   UNL     1      -9.129   9.792  67.364  1.00  0.00    -0.148 C  
BRANCH  16  20
HETATM   20  N   UNL     1      -7.476  13.151  68.399  1.00  0.00    -0.118 NA 
HETATM   21  C   UNL     1      -6.222  12.826  69.085  1.00  0.00    -0.098 C  
BRANCH  20  22
HETATM   22  C   UNL     1      -7.185  14.271  67.478  1.00  0.00    -0.176 C  
BRANCH  22  23
HETATM   23  C   UNL     1      -7.986  15.555  67.701  1.00  0.00    -0.168 C  
HETATM   24  C   UNL     1      -8.924  16.016  66.555  1.00  0.00    -0.327 C  
HETATM   25  C   UNL     1      -9.344  17.461  66.869  1.00  0.00    -0.271 A  
HETATM   26  C   UNL     1     -10.046  15.008  66.288  1.00  0.00    -0.298 A  
HETATM   27  C   UNL     1      -9.059  18.492  65.962  1.00  0.00     0.018 A  
HETATM   28  C   UNL     1     -11.281  15.022  66.952  1.00  0.00    -0.323 A  
HETATM   29  C   UNL     1      -9.229  19.831  66.330  1.00  0.00    -0.468 A  
HETATM   30  C   UNL     1     -12.220  14.005  66.759  1.00  0.00    -0.439 A  
HETATM   31  C   UNL     1     -11.946  12.952  65.896  1.00  0.00    -0.504 A  
HETATM   32  C   UNL     1      -9.701  20.159  67.600  1.00  0.00    -0.551 A  
HETATM   33  C   UNL     1     -10.033  19.150  68.495  1.00  0.00    -0.496 A  
HETATM   34  C   UNL     1     -10.739  12.923  65.207  1.00  0.00    -0.318 A  
HETATM   35  C   UNL     1      -9.804  13.947  65.396  1.00  0.00    -0.193 A  
HETATM   36  C   UNL     1      -9.856  17.816  68.133  1.00  0.00    -0.326 A  
ENDBRANCH  22  23
ENDBRANCH  20  22
ENDBRANCH  16  20
ENDBRANCH  13  15
ENDBRANCH  11  13
BRANCH  12  37
HETATM   37  C   UNL     1      -9.990   6.844  69.927  1.00  0.00    -0.185 A  
HETATM   38  O   UNL     1      -9.460   4.305  73.159  1.00  0.00    -0.112 OA 
HETATM   39  C   UNL     1      -9.757   6.032  71.053  1.00  0.00    -0.208 A  
HETATM   40  O   UNL     1     -11.455   4.764  73.946  1.00  0.00    -0.187 OA 
HETATM   41  C   UNL     1     -12.215   7.325  70.779  1.00  0.00    -0.256 A  
HETATM   42  C   UNL     1     -10.770   5.828  71.998  1.00  0.00    -0.233 A  
HETATM   43  N   UNL     1     -10.543   4.902  73.116  1.00  0.00    -0.199 N  
HETATM   44  C   UNL     1     -12.000   6.477  71.867  1.00  0.00    -0.389 A  
HETATM   45  C   UNL     1     -11.220   7.504  69.813  1.00  0.00    -0.072 A  
ENDBRANCH  12  37
ENDBRANCH   3   5
ENDBRANCH   2   3
TORSDOF 8
ENDMDL
MODEL       82
REMARK 921   NORMALIZED FREE ENERGY PREDICTED BY IDOCK:   -5.38 KCAL/MOL
REMARK 922        TOTAL FREE ENERGY PREDICTED BY IDOCK:   -9.81 KCAL/MOL
REMARK 923 INTER-LIGAND FREE ENERGY PREDICTED BY IDOCK:   -8.45 KCAL/MOL
REMARK 924 INTRA-LIGAND FREE ENERGY PREDICTED BY IDOCK:   -1.36 KCAL/MOL
REMARK 927      BINDING AFFINITY PREDICTED BY RF-SCORE:    0.00 PKD
ROOT
HETATM    1  C   UNL     1      -8.984   2.282  67.681  1.00  0.00    -0.157 C  
HETATM    2  O   UNL     1      -8.344   3.416  67.086  1.00  0.00    -0.089 OA 
ENDROOT
BRANCH   2   3
HETATM    3  C   UNL     1      -9.196   4.200  66.371  1.00  0.00    -0.157 C  
HETATM    4  O   UNL     1     -10.293   3.838  65.977  1.00  0.00     0.107 OA 
BRANCH   3   5
HETATM    5  C   UNL     1      -8.608   5.548  66.142  1.00  0.00    -0.129 C  
HETATM    6  C   UNL     1      -7.655   5.746  65.198  1.00  0.00    -0.086 C  
HETATM    7  N   UNL     1      -7.178   7.023  64.966  1.00  0.00    -0.074 NA 
HETATM    8  C   UNL     1      -6.991   4.705  64.327  1.00  0.00    -0.049 C  
HETATM    9  C   UNL     1      -7.448   8.128  65.746  1.00  0.00    -0.080 C  
HETATM   10  C   UNL     1      -6.700   9.386  65.359  1.00  0.00    -0.078 C  
HETATM   11  C   UNL     1      -8.337   8.030  66.763  1.00  0.00    -0.116 C  
HETATM   12  C   UNL     1      -9.103   6.722  67.014  1.00  0.00    -0.139 C  
BRANCH  11  13
HETATM   13  C   UNL     1      -8.493   9.201  67.665  1.00  0.00    -0.116 C  
HETATM   14  O   UNL     1      -7.702   9.449  68.563  1.00  0.00    -0.084 OA 
BRANCH  13  15
HETATM   15  O   UNL     1      -9.539   9.983  67.309  1.00  0.00    -0.151 OA 
HETATM   16  C   UNL     1     -11.651  11.209  67.675  1.00  0.00    -0.183 C  
HETATM   17  C   UNL     1      -9.723  11.340  69.323  1.00  0.00     0.110 C  
HETATM   18  C   UNL     1     -10.472  10.420  68.345  1.00  0.00    -0.189 C  
HETATM   19  C   UNL     1     -11.139   9.240  69.091  1.00  0.00    -0.002 C  
BRANCH  16  20
HETATM   20  N   UNL     1     -11.353  12.459  66.928  1.00  0.00    -0.312 NA 
HETATM   21  C   UNL     1     -11.947  12.417  65.589  1.00  0.00    -0.386 C  
BRANCH  20  22
HETATM   22  C   UNL     1     -11.930  13.632  67.619  1.00  0.00    -0.351 C  
BRANCH  22  23
HETATM   23  C   UNL     1     -10.984  14.810  67.857  1.00  0.00    -0.282 C  
HETATM   24  C   UNL     1     -11.554  16.037  68.615  1.00  0.00    -0.343 C  
HETATM   25  C   UNL     1     -10.547  17.186  68.437  1.00  0.00    -0.371 A  
HETATM   26  C   UNL     1     -11.964  15.690  70.049  1.00  0.00    -0.384 A  
HETATM   27  C   UNL     1     -10.948  18.388  67.835  1.00  0.00    -0.083 A  
HETATM   28  C   UNL     1     -11.091  15.748  71.146  1.00  0.00    -0.300 A  
HETATM   29  C   UNL     1     -10.000  19.347  67.461  1.00  0.00    -0.473 A  
HETATM   30  C   UNL     1     -11.485  15.300  72.410  1.00  0.00    -0.460 A  
HETATM   31  C   UNL     1     -12.760  14.787  72.608  1.00  0.00    -0.473 A  
HETATM   32  C   UNL     1      -8.644  19.128  67.699  1.00  0.00    -0.327 A  
HETATM   33  C   UNL     1      -8.234  17.964  68.336  1.00  0.00    -0.303 A  
HETATM   34  C   UNL     1     -13.654  14.739  71.544  1.00  0.00    -0.495 A  
HETATM   35  C   UNL     1     -13.261  15.195  70.281  1.00  0.00    -0.051 A  
HETATM   36  C   UNL     1      -9.175  17.004  68.701  1.00  0.00    -0.266 A  
ENDBRANCH  22  23
ENDBRANCH  20  22
ENDBRANCH  16  20
ENDBRANCH  13  15
ENDBRANCH  11  13
BRANCH  12  37
HETATM   37  C   UNL     1      -9.102   6.362  68.503  1.00  0.00    -0.126 A  
HETATM   38  O   UNL     1      -5.569   5.474  70.478  1.00  0.00    -0.008 OA 
HETATM   39  C   UNL     1      -7.883   6.137  69.171  1.00  0.00    -0.104 A  
HETATM   40  O   UNL     1      -6.633   5.031  72.344  1.00  0.00    -0.044 OA 
HETATM   41  C   UNL     1     -10.285   5.836  70.560  1.00  0.00    -0.284 A  
HETATM   42  C   UNL     1      -7.877   5.709  70.504  1.00  0.00    -0.099 A  
HETATM   43  N   UNL     1      -6.601   5.385  71.156  1.00  0.00    -0.042 N  
HETATM   44  C   UNL     1      -9.077   5.561  71.204  1.00  0.00    -0.159 A  
HETATM   45  C   UNL     1     -10.298   6.229  69.219  1.00  0.00    -0.266 A  
ENDBRANCH  12  37
ENDBRANCH   3   5
ENDBRANCH   2   3
TORSDOF 8
ENDMDL
MODEL       83
REMARK 921   NORMALIZED FREE ENERGY PREDICTED BY IDOCK:   -5.35 KCAL/MOL
REMARK 922        TOTAL FREE ENERGY PREDICTED BY IDOCK:   -9.77 KCAL/MOL
REMARK 923 INTER-LIGAND FREE ENERGY PREDICTED BY IDOCK:   -8.60 KCAL/MOL
REMARK 924 INTRA-LIGAND FREE ENERGY PREDICTED BY IDOCK:   -1.16 KCAL/MOL
REMARK 927      BINDING AFFINITY PREDICTED BY RF-SCORE:    0.00 PKD
ROOT
HETATM    1  C   UNL     1      -8.986   3.224  70.410  1.00  0.00    -0.101 C  
HETATM    2  O   UNL     1      -9.813   4.248  70.972  1.00  0.00    -0.178 OA 
ENDROOT
BRANCH   2   3
HETATM    3  C   UNL     1      -9.111   5.336  71.389  1.00  0.00    -0.145 C  
HETATM    4  O   UNL     1      -8.150   5.286  72.141  1.00  0.00    -0.110 OA 
BRANCH   3   5
HETATM    5  C   UNL     1      -9.672   6.584  70.804  1.00  0.00    -0.194 C  
HETATM    6  C   UNL     1     -10.885   7.054  71.186  1.00  0.00    -0.237 C  
HETATM    7  N   UNL     1     -11.347   8.252  70.671  1.00  0.00    -0.262 NA 
HETATM    8  C   UNL     1     -11.866   6.407  72.137  1.00  0.00    -0.361 C  
HETATM    9  C   UNL     1     -10.764   8.952  69.636  1.00  0.00    -0.217 C  
HETATM   10  C   UNL     1     -11.535  10.167  69.167  1.00  0.00    -0.155 C  
HETATM   11  C   UNL     1      -9.579   8.534  69.128  1.00  0.00    -0.167 C  
HETATM   12  C   UNL     1      -8.842   7.333  69.738  1.00  0.00    -0.142 C  
BRANCH  11  13
HETATM   13  C   UNL     1      -9.057   9.230  67.923  1.00  0.00    -0.127 C  
HETATM   14  O   UNL     1      -9.305   8.855  66.788  1.00  0.00    -0.155 OA 
BRANCH  13  15
HETATM   15  O   UNL     1      -8.371  10.353  68.242  1.00  0.00    -0.113 OA 
HETATM   16  C   UNL     1      -6.670  12.113  67.914  1.00  0.00    -0.085 C  
HETATM   17  C   UNL     1      -8.182  11.345  66.025  1.00  0.00     0.017 C  
HETATM   18  C   UNL     1      -7.414  10.888  67.276  1.00  0.00    -0.104 C  
HETATM   19  C   UNL     1      -6.302   9.878  66.908  1.00  0.00    -0.065 C  
BRANCH  16  20
HETATM   20  N   UNL     1      -7.456  13.307  68.319  1.00  0.00    -0.115 NA 
HETATM   21  C   UNL     1      -6.931  13.877  69.563  1.00  0.00     0.021 C  
BRANCH  20  22
HETATM   22  C   UNL     1      -7.368  14.366  67.290  1.00  0.00    -0.040 C  
BRANCH  22  23
HETATM   23  C   UNL     1      -8.162  15.644  67.566  1.00  0.00    -0.185 C  
HETATM   24  C   UNL     1      -9.086  16.164  66.434  1.00  0.00    -0.339 C  
HETATM   25  C   UNL     1      -9.500  17.596  66.811  1.00  0.00    -0.285 A  
HETATM   26  C   UNL     1     -10.211  15.178  66.108  1.00  0.00    -0.310 A  
HETATM   27  C   UNL     1      -9.200  18.666  65.955  1.00  0.00     0.002 A  
HETATM   28  C   UNL     1     -11.453  15.169  66.760  1.00  0.00    -0.195 A  
HETATM   29  C   UNL     1      -9.364  19.988  66.384  1.00  0.00    -0.481 A  
HETATM   30  C   UNL     1     -12.396  14.168  66.510  1.00  0.00    -0.405 A  
HETATM   31  C   UNL     1     -12.120  13.154  65.602  1.00  0.00    -0.501 A  
HETATM   32  C   UNL     1      -9.847  20.258  67.664  1.00  0.00    -0.563 A  
HETATM   33  C   UNL     1     -10.195  19.211  68.507  1.00  0.00    -0.448 A  
HETATM   34  C   UNL     1     -10.907  13.150  64.924  1.00  0.00    -0.348 A  
HETATM   35  C   UNL     1      -9.967  14.158  65.170  1.00  0.00    -0.263 A  
HETATM   36  C   UNL     1     -10.023  17.894  68.085  1.00  0.00    -0.350 A  
ENDBRANCH  22  23
ENDBRANCH  20  22
ENDBRANCH  16  20
ENDBRANCH  13  15
ENDBRANCH  11  13
BRANCH  12  37
HETATM   37  C   UNL     1      -8.337   6.386  68.645  1.00  0.00    -0.121 A  
HETATM   38  O   UNL     1     -10.979   4.518  66.055  1.00  0.00    -0.017 OA 
HETATM   39  C   UNL     1      -9.246   5.820  67.730  1.00  0.00    -0.105 A  
HETATM   40  O   UNL     1      -9.358   3.411  65.077  1.00  0.00    -0.145 OA 
HETATM   41  C   UNL     1      -6.545   5.130  67.586  1.00  0.00    -0.053 A  
HETATM   42  C   UNL     1      -8.808   4.876  66.793  1.00  0.00    -0.110 A  
HETATM   43  N   UNL     1      -9.785   4.225  65.909  1.00  0.00    -0.191 N  
HETATM   44  C   UNL     1      -7.457   4.532  66.714  1.00  0.00    -0.082 A  
HETATM   45  C   UNL     1      -6.982   6.046  68.547  1.00  0.00    -0.076 A  
ENDBRANCH  12  37
ENDBRANCH   3   5
ENDBRANCH   2   3
TORSDOF 8
ENDMDL
MODEL       84
REMARK 921   NORMALIZED FREE ENERGY PREDICTED BY IDOCK:   -5.35 KCAL/MOL
REMARK 922        TOTAL FREE ENERGY PREDICTED BY IDOCK:   -9.76 KCAL/MOL
REMARK 923 INTER-LIGAND FREE ENERGY PREDICTED BY IDOCK:   -8.57 KCAL/MOL
REMARK 924 INTRA-LIGAND FREE ENERGY PREDICTED BY IDOCK:   -1.19 KCAL/MOL
REMARK 927      BINDING AFFINITY PREDICTED BY RF-SCORE:    0.00 PKD
ROOT
HETATM    1  C   UNL     1     -12.176  15.265  70.172  1.00  0.00    -0.364 C  
HETATM    2  O   UNL     1     -10.755  15.193  70.331  1.00  0.00    -0.256 OA 
ENDROOT
BRANCH   2   3
HETATM    3  C   UNL     1     -10.069  15.741  69.292  1.00  0.00    -0.255 C  
HETATM    4  O   UNL     1     -10.325  16.828  68.798  1.00  0.00    -0.276 OA 
BRANCH   3   5
HETATM    5  C   UNL     1      -8.972  14.839  68.848  1.00  0.00    -0.167 C  
HETATM    6  C   UNL     1      -7.674  15.224  68.923  1.00  0.00    -0.167 C  
HETATM    7  N   UNL     1      -6.676  14.336  68.563  1.00  0.00    -0.091 NA 
HETATM    8  C   UNL     1      -7.136  16.569  69.353  1.00  0.00    -0.176 C  
HETATM    9  C   UNL     1      -6.876  13.121  67.943  1.00  0.00    -0.135 C  
HETATM   10  C   UNL     1      -5.614  12.393  67.533  1.00  0.00    -0.130 C  
HETATM   11  C   UNL     1      -8.138  12.665  67.753  1.00  0.00    -0.166 C  
HETATM   12  C   UNL     1      -9.346  13.449  68.286  1.00  0.00    -0.205 C  
BRANCH  11  13
HETATM   13  C   UNL     1      -8.314  11.423  66.957  1.00  0.00    -0.161 C  
HETATM   14  O   UNL     1      -8.733  11.432  65.809  1.00  0.00    -0.162 OA 
BRANCH  13  15
HETATM   15  O   UNL     1      -7.874  10.326  67.617  1.00  0.00    -0.098 OA 
HETATM   16  C   UNL     1      -8.101   8.321  69.041  1.00  0.00    -0.117 C  
HETATM   17  C   UNL     1      -9.722   8.811  67.149  1.00  0.00    -0.248 C  
HETATM   18  C   UNL     1      -8.855   9.446  68.248  1.00  0.00    -0.128 C  
HETATM   19  C   UNL     1      -9.729  10.173  69.296  1.00  0.00    -0.238 C  
BRANCH  16  20
HETATM   20  N   UNL     1      -7.218   7.383  68.302  1.00  0.00    -0.088 NA 
HETATM   21  C   UNL     1      -5.812   7.771  68.446  1.00  0.00    -0.032 C  
BRANCH  20  22
HETATM   22  C   UNL     1      -7.343   6.012  68.843  1.00  0.00    -0.085 C  
BRANCH  22  23
HETATM   23  C   UNL     1      -8.452   5.789  69.873  1.00  0.00    -0.123 C  
HETATM   24  C   UNL     1      -8.018   5.526  71.338  1.00  0.00    -0.112 C  
HETATM   25  C   UNL     1      -9.257   5.013  72.091  1.00  0.00    -0.156 A  
HETATM   26  C   UNL     1      -7.283   6.724  71.946  1.00  0.00    -0.080 A  
HETATM   27  C   UNL     1      -9.236   3.754  72.709  1.00  0.00    -0.135 A  
HETATM   28  C   UNL     1      -7.927   7.783  72.603  1.00  0.00    -0.145 A  
HETATM   29  C   UNL     1     -10.416   3.181  73.197  1.00  0.00    -0.255 A  
HETATM   30  C   UNL     1      -7.218   8.911  73.028  1.00  0.00     0.279 A  
HETATM   31  C   UNL     1      -5.850   9.004  72.808  1.00  0.00    -0.034 A  
HETATM   32  C   UNL     1     -11.627   3.863  73.090  1.00  0.00     0.003 A  
HETATM   33  C   UNL     1     -11.659   5.130  72.523  1.00  0.00    -0.097 A  
HETATM   34  C   UNL     1      -5.182   7.960  72.180  1.00  0.00    -0.035 A  
HETATM   35  C   UNL     1      -5.891   6.828  71.763  1.00  0.00    -0.037 A  
HETATM   36  C   UNL     1     -10.487   5.699  72.029  1.00  0.00    -0.270 A  
ENDBRANCH  22  23
ENDBRANCH  20  22
ENDBRANCH  16  20
ENDBRANCH  13  15
ENDBRANCH  11  13
BRANCH  12  37
HETATM   37  C   UNL     1     -10.449  13.544  67.228  1.00  0.00    -0.248 A  
HETATM   38  O   UNL     1     -10.676  16.798  64.671  1.00  0.00    -0.778 OA 
HETATM   39  C   UNL     1     -10.463  14.622  66.322  1.00  0.00    -0.302 A  
HETATM   40  O   UNL     1     -12.513  16.038  63.744  1.00  0.00    -0.784 OA 
HETATM   41  C   UNL     1     -12.505  12.721  66.225  1.00  0.00     0.095 A  
HETATM   42  C   UNL     1     -11.523  14.770  65.419  1.00  0.00    -0.341 A  
HETATM   43  N   UNL     1     -11.571  15.952  64.546  1.00  0.00    -0.324 N  
HETATM   44  C   UNL     1     -12.544  13.819  65.364  1.00  0.00    -0.534 A  
HETATM   45  C   UNL     1     -11.469  12.587  67.154  1.00  0.00    -0.414 A  
ENDBRANCH  12  37
ENDBRANCH   3   5
ENDBRANCH   2   3
TORSDOF 8
ENDMDL
MODEL       85
REMARK 921   NORMALIZED FREE ENERGY PREDICTED BY IDOCK:   -5.28 KCAL/MOL
REMARK 922        TOTAL FREE ENERGY PREDICTED BY IDOCK:   -9.67 KCAL/MOL
REMARK 923 INTER-LIGAND FREE ENERGY PREDICTED BY IDOCK:   -9.20 KCAL/MOL
REMARK 924 INTRA-LIGAND FREE ENERGY PREDICTED BY IDOCK:   -0.46 KCAL/MOL
REMARK 927      BINDING AFFINITY PREDICTED BY RF-SCORE:    0.00 PKD
ROOT
HETATM    1  C   UNL     1      -6.653   3.716  67.214  1.00  0.00    -0.042 C  
HETATM    2  O   UNL     1      -7.609   3.515  68.260  1.00  0.00    -0.057 OA 
ENDROOT
BRANCH   2   3
HETATM    3  C   UNL     1      -7.071   3.616  69.506  1.00  0.00    -0.042 C  
HETATM    4  O   UNL     1      -5.901   3.385  69.769  1.00  0.00    -0.017 OA 
BRANCH   3   5
HETATM    5  C   UNL     1      -8.099   4.046  70.492  1.00  0.00    -0.057 C  
HETATM    6  C   UNL     1      -9.068   3.196  70.912  1.00  0.00    -0.113 C  
HETATM    7  N   UNL     1      -9.967   3.609  71.879  1.00  0.00    -0.171 NA 
HETATM    8  C   UNL     1      -9.329   1.788  70.430  1.00  0.00    -0.173 C  
HETATM    9  C   UNL     1     -10.098   4.899  72.347  1.00  0.00    -0.187 C  
HETATM   10  C   UNL     1     -11.244   5.120  73.309  1.00  0.00    -0.389 C  
HETATM   11  C   UNL     1      -9.222   5.851  71.941  1.00  0.00    -0.155 C  
HETATM   12  C   UNL     1      -8.042   5.495  71.025  1.00  0.00    -0.118 C  
BRANCH  11  13
HETATM   13  C   UNL     1      -9.483   7.254  72.356  1.00  0.00    -0.149 C  
HETATM   14  O   UNL     1      -9.278   7.653  73.492  1.00  0.00    -0.225 OA 
BRANCH  13  15
HETATM   15  O   UNL     1      -9.874   8.029  71.316  1.00  0.00    -0.160 OA 
HETATM   16  C   UNL     1     -11.495   8.998  69.726  1.00  0.00     0.159 C  
HETATM   17  C   UNL     1     -11.977   8.866  72.215  1.00  0.00    -0.380 C  
HETATM   18  C   UNL     1     -11.302   8.152  71.033  1.00  0.00    -0.269 C  
HETATM   19  C   UNL     1     -11.978   6.791  70.745  1.00  0.00    -0.433 C  
BRANCH  16  20
HETATM   20  N   UNL     1     -11.013  10.404  69.696  1.00  0.00    -0.258 NA 
HETATM   21  C   UNL     1      -9.550  10.449  69.622  1.00  0.00    -0.109 C  
BRANCH  20  22
HETATM   22  C   UNL     1     -11.525  11.107  68.500  1.00  0.00    -0.302 C  
BRANCH  22  23
HETATM   23  C   UNL     1     -11.333  12.625  68.475  1.00  0.00    -0.333 C  
HETATM   24  C   UNL     1     -10.308  13.194  67.460  1.00  0.00    -0.225 C  
HETATM   25  C   UNL     1     -10.052  14.660  67.849  1.00  0.00    -0.225 A  
HETATM   26  C   UNL     1     -10.718  12.921  66.010  1.00  0.00    -0.296 A  
HETATM   27  C   UNL     1      -8.756  15.089  68.171  1.00  0.00    -0.165 A  
HETATM   28  C   UNL     1     -11.540  13.775  65.259  1.00  0.00    -0.330 A  
HETATM   29  C   UNL     1      -8.546  16.349  68.742  1.00  0.00    -0.250 A  
HETATM   30  C   UNL     1     -11.985  13.415  63.984  1.00  0.00    -0.520 A  
HETATM   31  C   UNL     1     -11.616  12.196  63.429  1.00  0.00    -0.508 A  
HETATM   32  C   UNL     1      -9.621  17.203  68.983  1.00  0.00    -0.189 A  
HETATM   33  C   UNL     1     -10.906  16.813  68.627  1.00  0.00    -0.336 A  
HETATM   34  C   UNL     1     -10.784  11.340  64.141  1.00  0.00    -0.436 A  
HETATM   35  C   UNL     1     -10.333  11.706  65.415  1.00  0.00    -0.313 A  
HETATM   36  C   UNL     1     -11.119  15.555  68.066  1.00  0.00    -0.322 A  
ENDBRANCH  22  23
ENDBRANCH  20  22
ENDBRANCH  16  20
ENDBRANCH  13  15
ENDBRANCH  11  13
BRANCH  12  37
HETATM   37  C   UNL     1      -7.904   6.512  69.889  1.00  0.00    -0.115 A  
HETATM   38  O   UNL     1     -10.575   6.542  66.719  1.00  0.00    -0.260 OA 
HETATM   39  C   UNL     1      -8.866   6.552  68.860  1.00  0.00    -0.126 A  
HETATM   40  O   UNL     1      -9.483   8.157  65.714  1.00  0.00    -0.077 OA 
HETATM   41  C   UNL     1      -6.673   8.277  68.756  1.00  0.00    -0.058 A  
HETATM   42  C   UNL     1      -8.693   7.409  67.766  1.00  0.00    -0.126 A  
HETATM   43  N   UNL     1      -9.655   7.369  66.655  1.00  0.00    -0.192 N  
HETATM   44  C   UNL     1      -7.600   8.276  67.712  1.00  0.00    -0.102 A  
HETATM   45  C   UNL     1      -6.821   7.398  69.834  1.00  0.00    -0.055 A  
ENDBRANCH  12  37
ENDBRANCH   3   5
ENDBRANCH   2   3
TORSDOF 8
ENDMDL
MODEL       86
REMARK 921   NORMALIZED FREE ENERGY PREDICTED BY IDOCK:   -5.28 KCAL/MOL
REMARK 922        TOTAL FREE ENERGY PREDICTED BY IDOCK:   -9.66 KCAL/MOL
REMARK 923 INTER-LIGAND FREE ENERGY PREDICTED BY IDOCK:   -9.22 KCAL/MOL
REMARK 924 INTRA-LIGAND FREE ENERGY PREDICTED BY IDOCK:   -0.44 KCAL/MOL
REMARK 927      BINDING AFFINITY PREDICTED BY RF-SCORE:    0.00 PKD
ROOT
HETATM    1  C   UNL     1     -10.221  20.022  66.520  1.00  0.00    -0.474 C  
HETATM    2  O   UNL     1     -10.351  18.698  67.047  1.00  0.00    -0.364 OA 
ENDROOT
BRANCH   2   3
HETATM    3  C   UNL     1     -10.051  17.727  66.143  1.00  0.00    -0.304 C  
HETATM    4  O   UNL     1     -10.623  17.586  65.073  1.00  0.00    -0.558 OA 
BRANCH   3   5
HETATM    5  C   UNL     1      -8.937  16.872  66.635  1.00  0.00    -0.279 C  
HETATM    6  C   UNL     1      -7.645  17.180  66.363  1.00  0.00    -0.312 C  
HETATM    7  N   UNL     1      -6.631  16.399  66.891  1.00  0.00    -0.236 NA 
HETATM    8  C   UNL     1      -7.128  18.309  65.502  1.00  0.00    -0.082 C  
HETATM    9  C   UNL     1      -6.808  15.194  67.537  1.00  0.00    -0.174 C  
HETATM   10  C   UNL     1      -5.532  14.470  67.906  1.00  0.00    -0.093 C  
HETATM   11  C   UNL     1      -8.062  14.753  67.802  1.00  0.00    -0.161 C  
HETATM   12  C   UNL     1      -9.287  15.612  67.458  1.00  0.00    -0.206 C  
BRANCH  11  13
HETATM   13  C   UNL     1      -8.211  13.388  68.371  1.00  0.00    -0.139 C  
HETATM   14  O   UNL     1      -7.866  13.109  69.509  1.00  0.00     0.552 OA 
BRANCH  13  15
HETATM   15  O   UNL     1      -8.847  12.548  67.520  1.00  0.00    -0.166 OA 
HETATM   16  C   UNL     1      -9.055  10.569  66.057  1.00  0.00    -0.168 C  
HETATM   17  C   UNL     1      -8.022  10.421  68.372  1.00  0.00    -0.110 C  
HETATM   18  C   UNL     1      -8.178  11.310  67.127  1.00  0.00    -0.149 C  
HETATM   19  C   UNL     1      -6.813  11.554  66.443  1.00  0.00     0.061 C  
BRANCH  16  20
HETATM   20  N   UNL     1     -10.423  10.122  66.427  1.00  0.00    -0.179 NA 
HETATM   21  C   UNL     1     -10.428   8.698  66.772  1.00  0.00    -0.228 C  
BRANCH  20  22
HETATM   22  C   UNL     1     -10.910  10.855  67.616  1.00  0.00    -0.266 C  
BRANCH  22  23
HETATM   23  C   UNL     1     -11.379   9.997  68.792  1.00  0.00    -0.117 C  
HETATM   24  C   UNL     1     -11.046  10.506  70.219  1.00  0.00    -0.359 C  
HETATM   25  C   UNL     1     -11.314   9.341  71.187  1.00  0.00    -0.412 A  
HETATM   26  C   UNL     1     -11.731  11.839  70.531  1.00  0.00    -0.146 A  
HETATM   27  C   UNL     1     -10.281   8.846  71.997  1.00  0.00    -0.363 A  
HETATM   28  C   UNL     1     -13.019  11.947  71.077  1.00  0.00    -0.180 A  
HETATM   29  C   UNL     1     -10.446   7.652  72.709  1.00  0.00    -0.368 A  
HETATM   30  C   UNL     1     -13.643  13.188  71.224  1.00  0.00     0.156 A  
HETATM   31  C   UNL     1     -12.994  14.352  70.831  1.00  0.00    -0.413 A  
HETATM   32  C   UNL     1     -11.647   6.948  72.636  1.00  0.00    -0.181 A  
HETATM   33  C   UNL     1     -12.696   7.449  71.877  1.00  0.00    -0.310 A  
HETATM   34  C   UNL     1     -11.708  14.278  70.308  1.00  0.00    -0.343 A  
HETATM   35  C   UNL     1     -11.082  13.035  70.169  1.00  0.00     0.557 A  
HETATM   36  C   UNL     1     -12.531   8.633  71.160  1.00  0.00    -0.210 A  
ENDBRANCH  22  23
ENDBRANCH  20  22
ENDBRANCH  16  20
ENDBRANCH  13  15
ENDBRANCH  11  13
BRANCH  12  37
HETATM   37  C   UNL     1     -10.372  14.773  66.776  1.00  0.00    -0.268 A  
HETATM   38  O   UNL     1      -9.580  12.705  63.273  1.00  0.00     0.032 OA 
HETATM   39  C   UNL     1     -10.060  14.020  65.628  1.00  0.00    -0.342 A  
HETATM   40  O   UNL     1     -11.655  12.012  63.122  1.00  0.00    -0.329 OA 
HETATM   41  C   UNL     1     -12.681  14.036  66.589  1.00  0.00     0.056 A  
HETATM   42  C   UNL     1     -11.067  13.331  64.941  1.00  0.00    -0.328 A  
HETATM   43  N   UNL     1     -10.743  12.629  63.691  1.00  0.00    -0.417 N  
HETATM   44  C   UNL     1     -12.379  13.333  65.421  1.00  0.00    -0.528 A  
HETATM   45  C   UNL     1     -11.686  14.755  67.259  1.00  0.00    -0.366 A  
ENDBRANCH  12  37
ENDBRANCH   3   5
ENDBRANCH   2   3
TORSDOF 8
ENDMDL
MODEL       87
REMARK 921   NORMALIZED FREE ENERGY PREDICTED BY IDOCK:   -5.25 KCAL/MOL
REMARK 922        TOTAL FREE ENERGY PREDICTED BY IDOCK:   -9.62 KCAL/MOL
REMARK 923 INTER-LIGAND FREE ENERGY PREDICTED BY IDOCK:   -8.66 KCAL/MOL
REMARK 924 INTRA-LIGAND FREE ENERGY PREDICTED BY IDOCK:   -0.96 KCAL/MOL
REMARK 927      BINDING AFFINITY PREDICTED BY RF-SCORE:    0.00 PKD
ROOT
HETATM    1  C   UNL     1     -12.330   6.379  69.767  1.00  0.00     1.234 C  
HETATM    2  O   UNL     1     -11.250   5.644  69.182  1.00  0.00    -0.174 OA 
ENDROOT
BRANCH   2   3
HETATM    3  C   UNL     1     -10.567   6.349  68.241  1.00  0.00    -0.256 C  
HETATM    4  O   UNL     1     -11.027   6.669  67.156  1.00  0.00    -0.363 OA 
BRANCH   3   5
HETATM    5  C   UNL     1      -9.195   6.676  68.716  1.00  0.00    -0.129 C  
HETATM    6  C   UNL     1      -8.196   5.762  68.653  1.00  0.00    -0.105 C  
HETATM    7  N   UNL     1      -6.917   6.120  69.042  1.00  0.00    -0.066 NA 
HETATM    8  C   UNL     1      -8.292   4.321  68.209  1.00  0.00    -0.098 C  
HETATM    9  C   UNL     1      -6.578   7.295  69.680  1.00  0.00    -0.040 C  
HETATM   10  C   UNL     1      -5.134   7.393  70.120  1.00  0.00    -0.023 C  
HETATM   11  C   UNL     1      -7.517   8.256  69.858  1.00  0.00    -0.065 C  
HETATM   12  C   UNL     1      -8.935   8.084  69.295  1.00  0.00    -0.148 C  
BRANCH  11  13
HETATM   13  C   UNL     1      -7.148   9.443  70.673  1.00  0.00    -0.124 C  
HETATM   14  O   UNL     1      -6.549   9.351  71.734  1.00  0.00    -0.291 OA 
BRANCH  13  15
HETATM   15  O   UNL     1      -7.469  10.604  70.056  1.00  0.00    -0.106 OA 
HETATM   16  C   UNL     1      -7.005  12.787  68.999  1.00  0.00    -0.059 C  
HETATM   17  C   UNL     1      -5.645  10.716  68.445  1.00  0.00    -0.040 C  
HETATM   18  C   UNL     1      -6.391  11.459  69.566  1.00  0.00    -0.113 C  
HETATM   19  C   UNL     1      -5.417  11.901  70.684  1.00  0.00    -0.156 C  
BRANCH  16  20
HETATM   20  N   UNL     1      -7.942  12.718  67.848  1.00  0.00    -0.144 NA 
HETATM   21  C   UNL     1      -9.333  12.739  68.309  1.00  0.00    -0.194 C  
BRANCH  20  22
HETATM   22  C   UNL     1      -7.766  13.886  66.959  1.00  0.00     0.189 C  
BRANCH  22  23
HETATM   23  C   UNL     1      -8.567  15.138  67.322  1.00  0.00    -0.218 C  
HETATM   24  C   UNL     1      -9.403  15.798  66.194  1.00  0.00    -0.381 C  
HETATM   25  C   UNL     1      -9.831  17.185  66.702  1.00  0.00    -0.295 A  
HETATM   26  C   UNL     1     -10.510  14.874  65.680  1.00  0.00    -0.366 A  
HETATM   27  C   UNL     1      -9.460  18.340  65.997  1.00  0.00    -0.038 A  
HETATM   28  C   UNL     1     -11.796  14.813  66.237  1.00  0.00    -0.215 A  
HETATM   29  C   UNL     1      -9.644  19.607  66.561  1.00  0.00    -0.483 A  
HETATM   30  C   UNL     1     -12.727  13.862  65.809  1.00  0.00    -0.503 A  
HETATM   31  C   UNL     1     -12.396  12.953  64.813  1.00  0.00    -0.516 A  
HETATM   32  C   UNL     1     -10.215  19.740  67.826  1.00  0.00    -0.571 A  
HETATM   33  C   UNL     1     -10.631  18.610  68.518  1.00  0.00    -0.042 A  
HETATM   34  C   UNL     1     -11.136  13.006  64.226  1.00  0.00    -0.418 A  
HETATM   35  C   UNL     1     -10.208  13.963  64.651  1.00  0.00    -0.278 A  
HETATM   36  C   UNL     1     -10.441  17.346  67.961  1.00  0.00    -0.383 A  
ENDBRANCH  22  23
ENDBRANCH  20  22
ENDBRANCH  16  20
ENDBRANCH  13  15
ENDBRANCH  11  13
BRANCH  12  37
HETATM   37  C   UNL     1      -9.990   8.473  70.335  1.00  0.00    -0.203 A  
HETATM   38  O   UNL     1     -12.328  11.859  69.835  1.00  0.00    -0.201 OA 
HETATM   39  C   UNL     1     -10.823   9.586  70.108  1.00  0.00    -0.300 A  
HETATM   40  O   UNL     1     -13.313  11.559  71.772  1.00  0.00    -0.403 OA 
HETATM   41  C   UNL     1     -11.055   8.162  72.498  1.00  0.00    -0.446 A  
HETATM   42  C   UNL     1     -11.720  10.009  71.097  1.00  0.00    -0.387 A  
HETATM   43  N   UNL     1     -12.513  11.227  70.884  1.00  0.00    -0.391 N  
HETATM   44  C   UNL     1     -11.842   9.296  72.292  1.00  0.00    -0.136 A  
HETATM   45  C   UNL     1     -10.133   7.756  71.529  1.00  0.00    -0.212 A  
ENDBRANCH  12  37
ENDBRANCH   3   5
ENDBRANCH   2   3
TORSDOF 8
ENDMDL
MODEL       88
REMARK 921   NORMALIZED FREE ENERGY PREDICTED BY IDOCK:   -5.23 KCAL/MOL
REMARK 922        TOTAL FREE ENERGY PREDICTED BY IDOCK:   -9.59 KCAL/MOL
REMARK 923 INTER-LIGAND FREE ENERGY PREDICTED BY IDOCK:   -8.13 KCAL/MOL
REMARK 924 INTRA-LIGAND FREE ENERGY PREDICTED BY IDOCK:   -1.47 KCAL/MOL
REMARK 927      BINDING AFFINITY PREDICTED BY RF-SCORE:    0.00 PKD
ROOT
HETATM    1  C   UNL     1      -9.596   3.496  69.223  1.00  0.00    -0.091 C  
HETATM    2  O   UNL     1      -8.715   4.221  68.358  1.00  0.00    -0.093 OA 
ENDROOT
BRANCH   2   3
HETATM    3  C   UNL     1      -9.310   5.287  67.757  1.00  0.00    -0.119 C  
HETATM    4  O   UNL     1     -10.491   5.330  67.449  1.00  0.00    -0.199 OA 
BRANCH   3   5
HETATM    5  C   UNL     1      -8.329   6.383  67.532  1.00  0.00    -0.117 C  
HETATM    6  C   UNL     1      -7.396   6.299  66.551  1.00  0.00    -0.081 C  
HETATM    7  N   UNL     1      -6.542   7.364  66.328  1.00  0.00    -0.048 NA 
HETATM    8  C   UNL     1      -7.132   5.132  65.629  1.00  0.00    -0.067 C  
HETATM    9  C   UNL     1      -6.416   8.469  67.143  1.00  0.00    -0.058 C  
HETATM   10  C   UNL     1      -5.318   9.434  66.752  1.00  0.00    -0.042 C  
HETATM   11  C   UNL     1      -7.254   8.624  68.197  1.00  0.00    -0.087 C  
HETATM   12  C   UNL     1      -8.390   7.623  68.452  1.00  0.00    -0.125 C  
BRANCH  11  13
HETATM   13  C   UNL     1      -6.994   9.751  69.130  1.00  0.00    -0.055 C  
HETATM   14  O   UNL     1      -5.898   9.949  69.632  1.00  0.00    -0.039 OA 
BRANCH  13  15
HETATM   15  O   UNL     1      -8.074  10.556  69.271  1.00  0.00    -0.146 OA 
HETATM   16  C   UNL     1      -9.372  12.638  68.993  1.00  0.00     0.463 C  
HETATM   17  C   UNL     1      -8.080  11.599  67.070  1.00  0.00    -0.164 C  
HETATM   18  C   UNL     1      -8.079  11.847  68.587  1.00  0.00    -0.086 C  
HETATM   19  C   UNL     1      -6.896  12.753  69.003  1.00  0.00    -0.081 C  
BRANCH  16  20
HETATM   20  N   UNL     1     -10.703  12.066  68.663  1.00  0.00    -0.230 NA 
HETATM   21  C   UNL     1     -11.210  11.256  69.774  1.00  0.00    -0.220 C  
BRANCH  20  22
HETATM   22  C   UNL     1     -11.691  13.142  68.430  1.00  0.00    -0.351 C  
BRANCH  22  23
HETATM   23  C   UNL     1     -11.151  14.435  67.817  1.00  0.00    -0.299 C  
HETATM   24  C   UNL     1     -10.184  14.300  66.612  1.00  0.00    -0.272 C  
HETATM   25  C   UNL     1      -9.533  15.677  66.398  1.00  0.00    -0.321 A  
HETATM   26  C   UNL     1     -10.860  13.655  65.399  1.00  0.00    -0.302 A  
HETATM   27  C   UNL     1      -8.139  15.817  66.466  1.00  0.00    -0.231 A  
HETATM   28  C   UNL     1     -11.559  14.377  64.420  1.00  0.00    -0.346 A  
HETATM   29  C   UNL     1      -7.553  17.087  66.501  1.00  0.00    -0.326 A  
HETATM   30  C   UNL     1     -12.262  13.725  63.403  1.00  0.00    -0.123 A  
HETATM   31  C   UNL     1     -12.280  12.338  63.339  1.00  0.00    -0.630 A  
HETATM   32  C   UNL     1      -8.347  18.232  66.450  1.00  0.00    -0.267 A  
HETATM   33  C   UNL     1      -9.726  18.111  66.335  1.00  0.00    -0.329 A  
HETATM   34  C   UNL     1     -11.577  11.597  64.282  1.00  0.00    -0.306 A  
HETATM   35  C   UNL     1     -10.868  12.251  65.295  1.00  0.00    -0.332 A  
HETATM   36  C   UNL     1     -10.312  16.847  66.309  1.00  0.00    -0.312 A  
ENDBRANCH  22  23
ENDBRANCH  20  22
ENDBRANCH  16  20
ENDBRANCH  13  15
ENDBRANCH  11  13
BRANCH  12  37
HETATM   37  C   UNL     1      -8.454   7.229  69.930  1.00  0.00    -0.140 A  
HETATM   38  O   UNL     1     -11.695   8.296  72.283  1.00  0.00    -0.338 OA 
HETATM   39  C   UNL     1      -9.598   7.538  70.692  1.00  0.00    -0.171 A  
HETATM   40  O   UNL     1     -10.783   7.416  74.074  1.00  0.00    -0.254 OA 
HETATM   41  C   UNL     1      -7.427   6.287  71.922  1.00  0.00    -0.094 A  
HETATM   42  C   UNL     1      -9.623   7.272  72.066  1.00  0.00    -0.150 A  
HETATM   43  N   UNL     1     -10.785   7.688  72.864  1.00  0.00    -0.339 N  
HETATM   44  C   UNL     1      -8.540   6.642  72.685  1.00  0.00    -0.126 A  
HETATM   45  C   UNL     1      -7.381   6.582  70.557  1.00  0.00    -0.082 A  
ENDBRANCH  12  37
ENDBRANCH   3   5
ENDBRANCH   2   3
TORSDOF 8
ENDMDL
MODEL       89
REMARK 921   NORMALIZED FREE ENERGY PREDICTED BY IDOCK:   -5.22 KCAL/MOL
REMARK 922        TOTAL FREE ENERGY PREDICTED BY IDOCK:   -9.57 KCAL/MOL
REMARK 923 INTER-LIGAND FREE ENERGY PREDICTED BY IDOCK:   -9.14 KCAL/MOL
REMARK 924 INTRA-LIGAND FREE ENERGY PREDICTED BY IDOCK:   -0.44 KCAL/MOL
REMARK 927      BINDING AFFINITY PREDICTED BY RF-SCORE:    0.00 PKD
ROOT
HETATM    1  C   UNL     1      -9.302   8.267  72.560  1.00  0.00    -0.280 C  
HETATM    2  O   UNL     1      -8.833   8.853  71.341  1.00  0.00    -0.210 OA 
ENDROOT
BRANCH   2   3
HETATM    3  C   UNL     1      -9.824   9.415  70.599  1.00  0.00    -0.276 C  
HETATM    4  O   UNL     1     -10.745  10.067  71.065  1.00  0.00    -0.268 OA 
BRANCH   3   5
HETATM    5  C   UNL     1      -9.628   9.129  69.151  1.00  0.00    -0.161 C  
HETATM    6  C   UNL     1      -9.921   7.911  68.632  1.00  0.00    -0.191 C  
HETATM    7  N   UNL     1      -9.790   7.699  67.271  1.00  0.00    -0.169 NA 
HETATM    8  C   UNL     1     -10.380   6.678  69.376  1.00  0.00    -0.228 C  
HETATM    9  C   UNL     1      -9.199   8.573  66.382  1.00  0.00    -0.199 C  
HETATM   10  C   UNL     1      -9.060   8.053  64.968  1.00  0.00     0.400 C  
HETATM   11  C   UNL     1      -8.804   9.797  66.808  1.00  0.00    -0.151 C  
HETATM   12  C   UNL     1      -9.072  10.253  68.249  1.00  0.00    -0.139 C  
BRANCH  11  13
HETATM   13  C   UNL     1      -8.046  10.651  65.856  1.00  0.00    -0.159 C  
HETATM   14  O   UNL     1      -7.006  10.286  65.331  1.00  0.00    -0.133 OA 
BRANCH  13  15
HETATM   15  O   UNL     1      -8.692  11.810  65.586  1.00  0.00     0.012 OA 
HETATM   16  C   UNL     1     -10.231  13.283  64.337  1.00  0.00    -0.277 C  
HETATM   17  C   UNL     1     -10.878  10.917  64.990  1.00  0.00    -0.142 C  
HETATM   18  C   UNL     1      -9.714  11.816  64.542  1.00  0.00    -0.142 C  
HETATM   19  C   UNL     1      -9.169  11.375  63.164  1.00  0.00    -0.242 C  
BRANCH  16  20
HETATM   20  N   UNL     1     -10.888  13.984  65.470  1.00  0.00    -0.299 NA 
HETATM   21  C   UNL     1     -12.071  13.245  65.921  1.00  0.00    -0.441 C  
BRANCH  20  22
HETATM   22  C   UNL     1      -9.974  14.079  66.629  1.00  0.00    -0.278 C  
BRANCH  22  23
HETATM   23  C   UNL     1      -9.577  15.491  67.063  1.00  0.00    -0.233 C  
HETATM   24  C   UNL     1     -10.686  16.383  67.679  1.00  0.00    -0.312 C  
HETATM   25  C   UNL     1     -10.140  17.820  67.718  1.00  0.00    -0.345 A  
HETATM   26  C   UNL     1     -11.225  15.808  68.992  1.00  0.00    -0.319 A  
HETATM   27  C   UNL     1     -10.813  18.849  67.043  1.00  0.00    -0.392 A  
HETATM   28  C   UNL     1     -10.669  16.084  70.250  1.00  0.00    -0.278 A  
HETATM   29  C   UNL     1     -10.214  20.103  66.879  1.00  0.00    -0.566 A  
HETATM   30  C   UNL     1     -11.123  15.434  71.401  1.00  0.00    -0.319 A  
HETATM   31  C   UNL     1     -12.145  14.496  71.322  1.00  0.00    -0.419 A  
HETATM   32  C   UNL     1      -8.946  20.352  67.403  1.00  0.00    -0.449 A  
HETATM   33  C   UNL     1      -8.286  19.360  68.116  1.00  0.00    -0.359 A  
HETATM   34  C   UNL     1     -12.730  14.219  70.091  1.00  0.00    -0.246 A  
HETATM   35  C   UNL     1     -12.279  14.877  68.941  1.00  0.00    -0.143 A  
HETATM   36  C   UNL     1      -8.877  18.108  68.271  1.00  0.00    -0.293 A  
ENDBRANCH  22  23
ENDBRANCH  20  22
ENDBRANCH  16  20
ENDBRANCH  13  15
ENDBRANCH  11  13
BRANCH  12  37
HETATM   37  C   UNL     1      -7.828  10.905  68.859  1.00  0.00    -0.142 A  
HETATM   38  O   UNL     1      -7.618  15.011  69.388  1.00  0.00    -0.181 OA 
HETATM   39  C   UNL     1      -7.808  12.294  69.098  1.00  0.00     0.318 A  
HETATM   40  O   UNL     1      -5.563  14.885  70.145  1.00  0.00    -0.112 OA 
HETATM   41  C   UNL     1      -5.538  10.770  69.663  1.00  0.00    -0.041 A  
HETATM   42  C   UNL     1      -6.640  12.913  69.560  1.00  0.00    -0.029 A  
HETATM   43  N   UNL     1      -6.606  14.374  69.712  1.00  0.00    -0.146 N  
HETATM   44  C   UNL     1      -5.504  12.154  69.848  1.00  0.00    -0.100 A  
HETATM   45  C   UNL     1      -6.689  10.151  69.168  1.00  0.00    -0.056 A  
ENDBRANCH  12  37
ENDBRANCH   3   5
ENDBRANCH   2   3
TORSDOF 8
ENDMDL
MODEL       90
REMARK 921   NORMALIZED FREE ENERGY PREDICTED BY IDOCK:   -5.20 KCAL/MOL
REMARK 922        TOTAL FREE ENERGY PREDICTED BY IDOCK:   -9.55 KCAL/MOL
REMARK 923 INTER-LIGAND FREE ENERGY PREDICTED BY IDOCK:   -8.99 KCAL/MOL
REMARK 924 INTRA-LIGAND FREE ENERGY PREDICTED BY IDOCK:   -0.55 KCAL/MOL
REMARK 927      BINDING AFFINITY PREDICTED BY RF-SCORE:    0.00 PKD
ROOT
HETATM    1  C   UNL     1     -11.876  11.857  63.943  1.00  0.00    -0.411 C  
HETATM    2  O   UNL     1     -10.870  10.843  64.031  1.00  0.00    -0.297 OA 
ENDROOT
BRANCH   2   3
HETATM    3  C   UNL     1      -9.669  11.231  63.524  1.00  0.00    -0.336 C  
HETATM    4  O   UNL     1      -9.538  12.003  62.586  1.00  0.00    -0.112 OA 
BRANCH   3   5
HETATM    5  C   UNL     1      -8.549  10.592  64.266  1.00  0.00    -0.156 C  
HETATM    6  C   UNL     1      -7.909   9.505  63.769  1.00  0.00    -0.133 C  
HETATM    7  N   UNL     1      -6.830   8.976  64.454  1.00  0.00    -0.085 NA 
HETATM    8  C   UNL     1      -8.240   8.737  62.511  1.00  0.00    -0.192 C  
HETATM    9  C   UNL     1      -6.435   9.340  65.724  1.00  0.00    -0.068 C  
HETATM   10  C   UNL     1      -5.304   8.520  66.305  1.00  0.00    -0.031 C  
HETATM   11  C   UNL     1      -7.052  10.373  66.347  1.00  0.00    -0.118 C  
HETATM   12  C   UNL     1      -8.135  11.191  65.628  1.00  0.00     0.085 C  
BRANCH  11  13
HETATM   13  C   UNL     1      -6.695  10.641  67.765  1.00  0.00    -0.068 C  
HETATM   14  O   UNL     1      -6.599  11.773  68.215  1.00  0.00    -0.053 OA 
BRANCH  13  15
HETATM   15  O   UNL     1      -6.588   9.502  68.488  1.00  0.00    -0.052 OA 
HETATM   16  C   UNL     1      -6.598   8.143  70.549  1.00  0.00    -0.036 C  
HETATM   17  C   UNL     1      -8.400   9.867  70.074  1.00  0.00    -0.191 C  
HETATM   18  C   UNL     1      -6.906   9.544  69.913  1.00  0.00    -0.067 C  
HETATM   19  C   UNL     1      -6.031  10.551  70.695  1.00  0.00    -0.104 C  
BRANCH  16  20
HETATM   20  N   UNL     1      -7.339   6.949  70.065  1.00  0.00    -0.080 NA 
HETATM   21  C   UNL     1      -6.416   5.956  69.507  1.00  0.00    -0.042 C  
BRANCH  20  22
HETATM   22  C   UNL     1      -8.057   6.291  71.178  1.00  0.00    -0.118 C  
BRANCH  22  23
HETATM   23  C   UNL     1      -9.554   6.587  71.285  1.00  0.00    -0.175 C  
HETATM   24  C   UNL     1     -10.170   7.528  70.217  1.00  0.00    -0.204 C  
HETATM   25  C   UNL     1     -11.566   7.930  70.721  1.00  0.00    -0.258 A  
HETATM   26  C   UNL     1     -10.085   6.935  68.808  1.00  0.00    -0.168 A  
HETATM   27  C   UNL     1     -11.881   9.282  70.925  1.00  0.00    -0.346 A  
HETATM   28  C   UNL     1     -11.063   6.095  68.254  1.00  0.00    -0.336 A  
HETATM   29  C   UNL     1     -13.055   9.646  71.592  1.00  0.00    -0.503 A  
HETATM   30  C   UNL     1     -10.873   5.482  67.012  1.00  0.00    -0.194 A  
HETATM   31  C   UNL     1      -9.703   5.696  66.294  1.00  0.00    -0.162 A  
HETATM   32  C   UNL     1     -13.939   8.669  72.049  1.00  0.00    -0.506 A  
HETATM   33  C   UNL     1     -13.667   7.328  71.814  1.00  0.00    -0.399 A  
HETATM   34  C   UNL     1      -8.727   6.542  66.808  1.00  0.00    -0.123 A  
HETATM   35  C   UNL     1      -8.922   7.161  68.048  1.00  0.00    -0.127 A  
HETATM   36  C   UNL     1     -12.493   6.963  71.157  1.00  0.00    -0.398 A  
ENDBRANCH  22  23
ENDBRANCH  20  22
ENDBRANCH  16  20
ENDBRANCH  13  15
ENDBRANCH  11  13
BRANCH  12  37
HETATM   37  C   UNL     1      -9.345  11.420  66.539  1.00  0.00    -0.204 A  
HETATM   38  O   UNL     1     -10.230  15.197  67.998  1.00  0.00    -0.228 OA 
HETATM   39  C   UNL     1      -9.669  12.724  66.963  1.00  0.00    -0.224 A  
HETATM   40  O   UNL     1     -11.919  14.433  69.170  1.00  0.00    -0.316 OA 
HETATM   41  C   UNL     1     -11.195  10.567  67.866  1.00  0.00    -0.358 A  
HETATM   42  C   UNL     1     -10.711  12.930  67.875  1.00  0.00    -0.220 A  
HETATM   43  N   UNL     1     -10.974  14.284  68.381  1.00  0.00    -0.245 N  
HETATM   44  C   UNL     1     -11.480  11.854  68.326  1.00  0.00    -0.372 A  
HETATM   45  C   UNL     1     -10.132  10.351  66.983  1.00  0.00    -0.264 A  
ENDBRANCH  12  37
ENDBRANCH   3   5
ENDBRANCH   2   3
TORSDOF 8
ENDMDL
MODEL       91
REMARK 921   NORMALIZED FREE ENERGY PREDICTED BY IDOCK:   -5.20 KCAL/MOL
REMARK 922        TOTAL FREE ENERGY PREDICTED BY IDOCK:   -9.54 KCAL/MOL
REMARK 923 INTER-LIGAND FREE ENERGY PREDICTED BY IDOCK:   -8.48 KCAL/MOL
REMARK 924 INTRA-LIGAND FREE ENERGY PREDICTED BY IDOCK:   -1.06 KCAL/MOL
REMARK 927      BINDING AFFINITY PREDICTED BY RF-SCORE:    0.00 PKD
ROOT
HETATM    1  C   UNL     1     -14.178   8.622  72.158  1.00  0.00    -0.439 C  
HETATM    2  O   UNL     1     -12.821   8.947  71.838  1.00  0.00    -0.332 OA 
ENDROOT
BRANCH   2   3
HETATM    3  C   UNL     1     -12.144   7.918  71.260  1.00  0.00    -0.296 C  
HETATM    4  O   UNL     1     -12.678   6.937  70.765  1.00  0.00    -0.286 OA 
BRANCH   3   5
HETATM    5  C   UNL     1     -10.676   8.155  71.311  1.00  0.00    -0.270 C  
HETATM    6  C   UNL     1      -9.947   7.807  72.400  1.00  0.00    -0.214 C  
HETATM    7  N   UNL     1      -8.575   7.981  72.387  1.00  0.00    -0.147 NA 
HETATM    8  C   UNL     1     -10.455   7.239  73.705  1.00  0.00    -0.391 C  
HETATM    9  C   UNL     1      -7.867   8.664  71.421  1.00  0.00    -0.129 C  
HETATM   10  C   UNL     1      -6.389   8.828  71.703  1.00  0.00    -0.073 C  
HETATM   11  C   UNL     1      -8.507   9.118  70.317  1.00  0.00    -0.208 C  
HETATM   12  C   UNL     1      -9.997   8.820  70.093  1.00  0.00    -0.201 C  
BRANCH  11  13
HETATM   13  C   UNL     1      -7.739   9.969  69.370  1.00  0.00    -0.129 C  
HETATM   14  O   UNL     1      -7.134  10.968  69.728  1.00  0.00    -0.129 OA 
BRANCH  13  15
HETATM   15  O   UNL     1      -7.724   9.453  68.119  1.00  0.00    -0.083 OA 
HETATM   16  C   UNL     1      -6.672   8.510  66.094  1.00  0.00    -0.068 C  
HETATM   17  C   UNL     1      -6.032   7.727  68.423  1.00  0.00    -0.032 C  
HETATM   18  C   UNL     1      -6.462   8.944  67.587  1.00  0.00    -0.061 C  
HETATM   19  C   UNL     1      -5.348  10.016  67.550  1.00  0.00    -0.038 C  
BRANCH  16  20
HETATM   20  N   UNL     1      -7.640   7.426  65.785  1.00  0.00    -0.086 NA 
HETATM   21  C   UNL     1      -8.149   7.560  64.416  1.00  0.00    -0.074 C  
BRANCH  20  22
HETATM   22  C   UNL     1      -6.989   6.101  65.873  1.00  0.00    -0.061 C  
BRANCH  22  23
HETATM   23  C   UNL     1      -7.359   5.247  67.088  1.00  0.00    -0.083 C  
HETATM   24  C   UNL     1      -8.829   4.767  67.198  1.00  0.00    -0.107 C  
HETATM   25  C   UNL     1      -9.024   4.232  68.626  1.00  0.00    -0.156 A  
HETATM   26  C   UNL     1      -9.219   3.834  66.048  1.00  0.00    -0.161 A  
HETATM   27  C   UNL     1      -9.995   4.799  69.466  1.00  0.00    -0.287 A  
HETATM   28  C   UNL     1      -9.038   2.443  66.075  1.00  0.00    -0.079 A  
HETATM   29  C   UNL     1     -10.030   4.482  70.828  1.00  0.00    -0.269 A  
HETATM   30  C   UNL     1      -9.296   1.656  64.950  1.00  0.00    -0.077 A  
HETATM   31  C   UNL     1      -9.743   2.240  63.771  1.00  0.00    -0.131 A  
HETATM   32  C   UNL     1      -9.110   3.583  71.367  1.00  0.00    -0.179 A  
HETATM   33  C   UNL     1      -8.173   2.976  70.541  1.00  0.00    -0.067 A  
HETATM   34  C   UNL     1      -9.953   3.613  63.721  1.00  0.00    -0.182 A  
HETATM   35  C   UNL     1      -9.702   4.398  64.852  1.00  0.00    -0.154 A  
HETATM   36  C   UNL     1      -8.130   3.297  69.185  1.00  0.00    -0.072 A  
ENDBRANCH  22  23
ENDBRANCH  20  22
ENDBRANCH  16  20
ENDBRANCH  13  15
ENDBRANCH  11  13
BRANCH  12  37
HETATM   37  C   UNL     1     -10.747  10.077  69.642  1.00  0.00    -0.282 A  
HETATM   38  O   UNL     1     -10.894  11.152  65.642  1.00  0.00    -0.229 OA 
HETATM   39  C   UNL     1     -10.846  10.383  68.270  1.00  0.00    -0.299 A  
HETATM   40  O   UNL     1     -12.006  12.986  66.096  1.00  0.00    -0.395 OA 
HETATM   41  C   UNL     1     -11.948  12.129  70.149  1.00  0.00    -0.394 A  
HETATM   42  C   UNL     1     -11.442  11.580  67.856  1.00  0.00    -0.301 A  
HETATM   43  N   UNL     1     -11.451  11.929  66.428  1.00  0.00    -0.343 N  
HETATM   44  C   UNL     1     -11.998  12.455  68.792  1.00  0.00    -0.276 A  
HETATM   45  C   UNL     1     -11.323  10.952  70.571  1.00  0.00    -0.212 A  
ENDBRANCH  12  37
ENDBRANCH   3   5
ENDBRANCH   2   3
TORSDOF 8
ENDMDL
MODEL       92
REMARK 921   NORMALIZED FREE ENERGY PREDICTED BY IDOCK:   -5.18 KCAL/MOL
REMARK 922        TOTAL FREE ENERGY PREDICTED BY IDOCK:   -9.52 KCAL/MOL
REMARK 923 INTER-LIGAND FREE ENERGY PREDICTED BY IDOCK:   -7.80 KCAL/MOL
REMARK 924 INTRA-LIGAND FREE ENERGY PREDICTED BY IDOCK:   -1.72 KCAL/MOL
REMARK 927      BINDING AFFINITY PREDICTED BY RF-SCORE:    0.00 PKD
ROOT
HETATM    1  C   UNL     1      -6.944  10.040  64.077  1.00  0.00    -0.124 C  
HETATM    2  O   UNL     1      -7.469  10.080  65.408  1.00  0.00    -0.126 OA 
ENDROOT
BRANCH   2   3
HETATM    3  C   UNL     1      -8.709   9.530  65.513  1.00  0.00    -0.154 C  
HETATM    4  O   UNL     1      -8.954   8.349  65.324  1.00  0.00    -0.126 OA 
BRANCH   3   5
HETATM    5  C   UNL     1      -9.715  10.560  65.891  1.00  0.00    -0.270 C  
HETATM    6  C   UNL     1     -10.422  11.229  64.946  1.00  0.00    -0.314 C  
HETATM    7  N   UNL     1     -11.395  12.132  65.335  1.00  0.00    -0.335 NA 
HETATM    8  C   UNL     1     -10.275  11.132  63.446  1.00  0.00    -0.435 C  
HETATM    9  C   UNL     1     -11.604  12.573  66.624  1.00  0.00    -0.380 C  
HETATM   10  C   UNL     1     -12.644  13.663  66.770  1.00  0.00    -0.082 C  
HETATM   11  C   UNL     1     -10.902  12.022  67.644  1.00  0.00    -0.273 C  
HETATM   12  C   UNL     1      -9.930  10.860  67.391  1.00  0.00    -0.215 C  
BRANCH  11  13
HETATM   13  C   UNL     1     -11.054  12.622  68.995  1.00  0.00    -0.238 C  
HETATM   14  O   UNL     1     -11.291  13.808  69.164  1.00  0.00    -0.255 OA 
BRANCH  13  15
HETATM   15  O   UNL     1     -10.991  11.691  69.976  1.00  0.00     0.018 OA 
HETATM   16  C   UNL     1     -11.880  10.313  71.822  1.00  0.00     0.133 C  
HETATM   17  C   UNL     1     -13.156  10.623  69.649  1.00  0.00     0.696 C  
HETATM   18  C   UNL     1     -12.224  11.310  70.661  1.00  0.00    -0.393 C  
HETATM   19  C   UNL     1     -12.928  12.507  71.343  1.00  0.00    -0.347 C  
BRANCH  16  20
HETATM   20  N   UNL     1     -11.250   9.008  71.492  1.00  0.00    -0.320 NA 
HETATM   21  C   UNL     1      -9.867   8.961  71.977  1.00  0.00    -0.255 C  
BRANCH  20  22
HETATM   22  C   UNL     1     -11.973   7.897  72.148  1.00  0.00    -0.332 C  
BRANCH  22  23
HETATM   23  C   UNL     1     -11.115   6.732  72.646  1.00  0.00    -0.301 C  
HETATM   24  C   UNL     1     -11.116   5.436  71.795  1.00  0.00    -0.152 C  
HETATM   25  C   UNL     1     -10.471   4.333  72.651  1.00  0.00    -0.241 A  
HETATM   26  C   UNL     1     -10.531   5.661  70.398  1.00  0.00    -0.355 A  
HETATM   27  C   UNL     1     -11.190   3.169  72.961  1.00  0.00    -0.012 A  
HETATM   28  C   UNL     1      -9.166   5.546  70.096  1.00  0.00    -0.173 A  
HETATM   29  C   UNL     1     -10.708   2.268  73.917  1.00  0.00    -0.249 A  
HETATM   30  C   UNL     1      -8.671   5.886  68.834  1.00  0.00    -0.116 A  
HETATM   31  C   UNL     1      -9.530   6.345  67.843  1.00  0.00    -0.115 A  
HETATM   32  C   UNL     1      -9.496   2.508  74.564  1.00  0.00    -0.113 A  
HETATM   33  C   UNL     1      -8.748   3.631  74.235  1.00  0.00    -0.088 A  
HETATM   34  C   UNL     1     -10.891   6.448  68.107  1.00  0.00    -0.386 A  
HETATM   35  C   UNL     1     -11.385   6.100  69.369  1.00  0.00    -0.401 A  
HETATM   36  C   UNL     1      -9.231   4.534  73.289  1.00  0.00    -0.122 A  
ENDBRANCH  22  23
ENDBRANCH  20  22
ENDBRANCH  16  20
ENDBRANCH  13  15
ENDBRANCH  11  13
BRANCH  12  37
HETATM   37  C   UNL     1      -8.602  11.087  68.120  1.00  0.00    -0.140 A  
HETATM   38  O   UNL     1      -7.037   8.196  70.643  1.00  0.00    -0.043 OA 
HETATM   39  C   UNL     1      -8.053  10.062  68.914  1.00  0.00    -0.111 A  
HETATM   40  O   UNL     1      -5.346   9.481  71.192  1.00  0.00    -0.043 OA 
HETATM   41  C   UNL     1      -6.748  12.524  68.756  1.00  0.00    -0.093 A  
HETATM   42  C   UNL     1      -6.893  10.295  69.664  1.00  0.00    -0.094 A  
HETATM   43  N   UNL     1      -6.387   9.247  70.561  1.00  0.00    -0.054 N  
HETATM   44  C   UNL     1      -6.235  11.525  69.584  1.00  0.00    -0.124 A  
HETATM   45  C   UNL     1      -7.925  12.310  68.033  1.00  0.00    -0.150 A  
ENDBRANCH  12  37
ENDBRANCH   3   5
ENDBRANCH   2   3
TORSDOF 8
ENDMDL
MODEL       93
REMARK 921   NORMALIZED FREE ENERGY PREDICTED BY IDOCK:   -5.18 KCAL/MOL
REMARK 922        TOTAL FREE ENERGY PREDICTED BY IDOCK:   -9.52 KCAL/MOL
REMARK 923 INTER-LIGAND FREE ENERGY PREDICTED BY IDOCK:   -9.32 KCAL/MOL
REMARK 924 INTRA-LIGAND FREE ENERGY PREDICTED BY IDOCK:   -0.20 KCAL/MOL
REMARK 927      BINDING AFFINITY PREDICTED BY RF-SCORE:    0.00 PKD
ROOT
HETATM    1  C   UNL     1      -8.427   4.874  74.565  1.00  0.00    -0.109 C  
HETATM    2  O   UNL     1      -7.396   5.642  73.936  1.00  0.00    -0.085 OA 
ENDROOT
BRANCH   2   3
HETATM    3  C   UNL     1      -7.744   6.940  73.726  1.00  0.00    -0.093 C  
HETATM    4  O   UNL     1      -8.449   7.592  74.482  1.00  0.00    -0.203 OA 
BRANCH   3   5
HETATM    5  C   UNL     1      -7.150   7.451  72.461  1.00  0.00    -0.068 C  
HETATM    6  C   UNL     1      -6.220   8.438  72.471  1.00  0.00    -0.074 C  
HETATM    7  N   UNL     1      -5.641   8.842  71.281  1.00  0.00    -0.038 NA 
HETATM    8  C   UNL     1      -5.713   9.212  73.664  1.00  0.00    -0.039 C  
HETATM    9  C   UNL     1      -6.055   8.460  70.023  1.00  0.00    -0.031 C  
HETATM   10  C   UNL     1      -5.342   9.144  68.877  1.00  0.00    -0.037 C  
HETATM   11  C   UNL     1      -7.029   7.526  69.892  1.00  0.00    -0.059 C  
HETATM   12  C   UNL     1      -7.626   6.835  71.126  1.00  0.00    -0.088 C  
BRANCH  11  13
HETATM   13  C   UNL     1      -7.543   7.248  68.526  1.00  0.00    -0.118 C  
HETATM   14  O   UNL     1      -7.612   6.117  68.068  1.00  0.00    -0.097 OA 
BRANCH  13  15
HETATM   15  O   UNL     1      -7.998   8.367  67.915  1.00  0.00    -0.112 OA 
HETATM   16  C   UNL     1      -9.339   9.644  66.280  1.00  0.00    -0.185 C  
HETATM   17  C   UNL     1     -10.336   7.743  67.635  1.00  0.00    -0.305 C  
HETATM   18  C   UNL     1      -9.066   8.240  66.926  1.00  0.00    -0.150 C  
HETATM   19  C   UNL     1      -8.688   7.312  65.747  1.00  0.00    -0.129 C  
BRANCH  16  20
HETATM   20  N   UNL     1      -9.798  10.761  67.146  1.00  0.00    -0.181 NA 
HETATM   21  C   UNL     1      -9.932  10.319  68.537  1.00  0.00    -0.164 C  
BRANCH  20  22
HETATM   22  C   UNL     1      -8.816  11.867  67.139  1.00  0.00    -0.180 C  
BRANCH  22  23
HETATM   23  C   UNL     1      -9.381  13.273  67.349  1.00  0.00    -0.217 C  
HETATM   24  C   UNL     1      -9.652  14.126  66.083  1.00  0.00    -0.278 C  
HETATM   25  C   UNL     1      -9.886  15.572  66.554  1.00  0.00    -0.281 A  
HETATM   26  C   UNL     1     -10.728  13.505  65.188  1.00  0.00    -0.349 A  
HETATM   27  C   UNL     1      -9.062  16.607  66.089  1.00  0.00    -0.318 A  
HETATM   28  C   UNL     1     -12.102  13.754  65.331  1.00  0.00    -0.427 A  
HETATM   29  C   UNL     1      -9.114  17.876  66.677  1.00  0.00    -0.279 A  
HETATM   30  C   UNL     1     -13.047  13.063  64.569  1.00  0.00     0.064 A  
HETATM   31  C   UNL     1     -12.642  12.109  63.644  1.00  0.00    -0.616 A  
HETATM   32  C   UNL     1     -10.002  18.133  67.721  1.00  0.00    -0.334 A  
HETATM   33  C   UNL     1     -10.859  17.133  68.161  1.00  0.00    -0.316 A  
HETATM   34  C   UNL     1     -11.287  11.857  63.464  1.00  0.00    -0.516 A  
HETATM   35  C   UNL     1     -10.341  12.556  64.224  1.00  0.00    -0.396 A  
HETATM   36  C   UNL     1     -10.801  15.866  67.584  1.00  0.00    -0.312 A  
ENDBRANCH  22  23
ENDBRANCH  20  22
ENDBRANCH  16  20
ENDBRANCH  13  15
ENDBRANCH  11  13
BRANCH  12  37
HETATM   37  C   UNL     1      -9.154   6.780  71.040  1.00  0.00    -0.156 A  
HETATM   38  O   UNL     1     -11.441  10.195  71.573  1.00  0.00    -0.283 OA 
HETATM   39  C   UNL     1      -9.907   7.966  71.151  1.00  0.00    -0.190 A  
HETATM   40  O   UNL     1     -13.311   9.065  71.379  1.00  0.00    -0.332 OA 
HETATM   41  C   UNL     1     -11.227   5.523  70.862  1.00  0.00     0.010 A  
HETATM   42  C   UNL     1     -11.306   7.913  71.174  1.00  0.00    -0.266 A  
HETATM   43  N   UNL     1     -12.074   9.147  71.387  1.00  0.00    -0.318 N  
HETATM   44  C   UNL     1     -11.970   6.693  71.025  1.00  0.00    -0.415 A  
HETATM   45  C   UNL     1      -9.829   5.565  70.874  1.00  0.00    -0.241 A  
ENDBRANCH  12  37
ENDBRANCH   3   5
ENDBRANCH   2   3
TORSDOF 8
ENDMDL
MODEL       94
REMARK 921   NORMALIZED FREE ENERGY PREDICTED BY IDOCK:   -5.16 KCAL/MOL
REMARK 922        TOTAL FREE ENERGY PREDICTED BY IDOCK:   -9.49 KCAL/MOL
REMARK 923 INTER-LIGAND FREE ENERGY PREDICTED BY IDOCK:   -8.69 KCAL/MOL
REMARK 924 INTRA-LIGAND FREE ENERGY PREDICTED BY IDOCK:   -0.80 KCAL/MOL
REMARK 927      BINDING AFFINITY PREDICTED BY RF-SCORE:    0.00 PKD
ROOT
HETATM    1  C   UNL     1     -12.152   9.987  71.647  1.00  0.00    -0.334 C  
HETATM    2  O   UNL     1     -12.267   9.127  72.786  1.00  0.00    -0.070 OA 
ENDROOT
BRANCH   2   3
HETATM    3  C   UNL     1     -11.379   8.097  72.774  1.00  0.00    -0.336 C  
HETATM    4  O   UNL     1     -10.813   7.668  73.767  1.00  0.00    -0.268 OA 
BRANCH   3   5
HETATM    5  C   UNL     1     -11.198   7.571  71.394  1.00  0.00    -0.267 C  
HETATM    6  C   UNL     1     -12.185   6.882  70.771  1.00  0.00    -0.312 C  
HETATM    7  N   UNL     1     -12.007   6.464  69.464  1.00  0.00     0.120 NA 
HETATM    8  C   UNL     1     -13.521   6.468  71.343  1.00  0.00     0.258 C  
HETATM    9  C   UNL     1     -10.820   6.518  68.765  1.00  0.00    -0.299 C  
HETATM   10  C   UNL     1     -10.851   5.877  67.395  1.00  0.00    -0.341 C  
HETATM   11  C   UNL     1      -9.743   7.126  69.319  1.00  0.00    -0.159 C  
HETATM   12  C   UNL     1      -9.847   7.820  70.685  1.00  0.00    -0.182 C  
BRANCH  11  13
HETATM   13  C   UNL     1      -8.448   7.039  68.595  1.00  0.00    -0.121 C  
HETATM   14  O   UNL     1      -7.991   5.980  68.191  1.00  0.00    -0.107 OA 
BRANCH  13  15
HETATM   15  O   UNL     1      -7.908   8.259  68.366  1.00  0.00    -0.113 OA 
HETATM   16  C   UNL     1      -6.962  10.071  66.981  1.00  0.00    -0.088 C  
HETATM   17  C   UNL     1      -9.066   8.824  66.300  1.00  0.00    -0.240 C  
HETATM   18  C   UNL     1      -7.697   8.684  66.985  1.00  0.00    -0.095 C  
HETATM   19  C   UNL     1      -6.775   7.727  66.194  1.00  0.00    -0.053 C  
BRANCH  16  20
HETATM   20  N   UNL     1      -7.625  11.244  67.607  1.00  0.00    -0.102 NA 
HETATM   21  C   UNL     1      -6.689  11.970  68.469  1.00  0.00    -0.066 C  
BRANCH  20  22
HETATM   22  C   UNL     1      -8.087  12.197  66.574  1.00  0.00     0.107 C  
BRANCH  22  23
HETATM   23  C   UNL     1      -8.914  13.384  67.072  1.00  0.00    -0.228 C  
HETATM   24  C   UNL     1      -9.573  14.289  65.999  1.00  0.00    -0.271 C  
HETATM   25  C   UNL     1     -10.050  15.564  66.715  1.00  0.00    -0.268 A  
HETATM   26  C   UNL     1     -10.610  13.533  65.163  1.00  0.00    -0.364 A  
HETATM   27  C   UNL     1      -9.569  16.819  66.316  1.00  0.00    -0.313 A  
HETATM   28  C   UNL     1     -11.962  13.415  65.517  1.00  0.00    -0.433 A  
HETATM   29  C   UNL     1      -9.813  17.956  67.095  1.00  0.00    -0.308 A  
HETATM   30  C   UNL     1     -12.836  12.608  64.784  1.00  0.00    -0.349 A  
HETATM   31  C   UNL     1     -12.380  11.903  63.677  1.00  0.00    -0.591 A  
HETATM   32  C   UNL     1     -10.555  17.857  68.272  1.00  0.00    -0.314 A  
HETATM   33  C   UNL     1     -11.080  16.630  68.657  1.00  0.00    -0.294 A  
HETATM   34  C   UNL     1     -11.050  12.018  63.289  1.00  0.00    -0.400 A  
HETATM   35  C   UNL     1     -10.178  12.833  64.021  1.00  0.00    -0.323 A  
HETATM   36  C   UNL     1     -10.830  15.496  67.887  1.00  0.00    -0.307 A  
ENDBRANCH  22  23
ENDBRANCH  20  22
ENDBRANCH  16  20
ENDBRANCH  13  15
ENDBRANCH  11  13
BRANCH  12  37
HETATM   37  C   UNL     1      -8.661   7.451  71.581  1.00  0.00    -0.122 A  
HETATM   38  O   UNL     1      -8.202   3.594  73.029  1.00  0.00    -0.080 OA 
HETATM   39  C   UNL     1      -8.485   6.118  72.001  1.00  0.00    -0.121 A  
HETATM   40  O   UNL     1      -6.421   4.156  74.180  1.00  0.00    -0.043 OA 
HETATM   41  C   UNL     1      -6.709   8.081  72.885  1.00  0.00    -0.092 A  
HETATM   42  C   UNL     1      -7.462   5.790  72.900  1.00  0.00    -0.092 A  
HETATM   43  N   UNL     1      -7.352   4.414  73.402  1.00  0.00    -0.075 N  
HETATM   44  C   UNL     1      -6.569   6.769  73.341  1.00  0.00    -0.067 A  
HETATM   45  C   UNL     1      -7.750   8.421  72.016  1.00  0.00    -0.163 A  
ENDBRANCH  12  37
ENDBRANCH   3   5
ENDBRANCH   2   3
TORSDOF 8
ENDMDL
MODEL       95
REMARK 921   NORMALIZED FREE ENERGY PREDICTED BY IDOCK:   -5.12 KCAL/MOL
REMARK 922        TOTAL FREE ENERGY PREDICTED BY IDOCK:   -9.43 KCAL/MOL
REMARK 923 INTER-LIGAND FREE ENERGY PREDICTED BY IDOCK:   -8.77 KCAL/MOL
REMARK 924 INTRA-LIGAND FREE ENERGY PREDICTED BY IDOCK:   -0.66 KCAL/MOL
REMARK 927      BINDING AFFINITY PREDICTED BY RF-SCORE:    0.00 PKD
ROOT
HETATM    1  C   UNL     1      -6.223   3.573  67.376  1.00  0.00    -0.036 C  
HETATM    2  O   UNL     1      -7.289   3.953  68.252  1.00  0.00    -0.058 OA 
ENDROOT
BRANCH   2   3
HETATM    3  C   UNL     1      -6.920   4.001  69.560  1.00  0.00    -0.045 C  
HETATM    4  O   UNL     1      -5.828   3.646  69.978  1.00  0.00    -0.017 OA 
BRANCH   3   5
HETATM    5  C   UNL     1      -8.020   4.543  70.402  1.00  0.00    -0.059 C  
HETATM    6  C   UNL     1      -9.078   3.771  70.755  1.00  0.00    -0.109 C  
HETATM    7  N   UNL     1     -10.051   4.288  71.593  1.00  0.00    -0.175 NA 
HETATM    8  C   UNL     1      -9.368   2.353  70.323  1.00  0.00    -0.188 C  
HETATM    9  C   UNL     1     -10.154   5.609  71.974  1.00  0.00    -0.185 C  
HETATM   10  C   UNL     1     -11.383   5.947  72.789  1.00  0.00    -0.305 C  
HETATM   11  C   UNL     1      -9.186   6.487  71.619  1.00  0.00    -0.143 C  
HETATM   12  C   UNL     1      -7.937   6.016  70.860  1.00  0.00    -0.115 C  
BRANCH  11  13
HETATM   13  C   UNL     1      -9.406   7.925  71.926  1.00  0.00    -0.154 C  
HETATM   14  O   UNL     1      -9.334   8.372  73.060  1.00  0.00    -0.253 OA 
BRANCH  13  15
HETATM   15  O   UNL     1      -9.596   8.662  70.807  1.00  0.00    -0.167 OA 
HETATM   16  C   UNL     1     -10.931   9.772  69.051  1.00  0.00    -0.163 C  
HETATM   17  C   UNL     1     -11.536   9.956  71.510  1.00  0.00    -0.375 C  
HETATM   18  C   UNL     1     -10.961   9.025  70.430  1.00  0.00    -0.247 C  
HETATM   19  C   UNL     1     -11.872   7.795  70.213  1.00  0.00     0.115 C  
BRANCH  16  20
HETATM   20  N   UNL     1     -10.188  11.053  68.937  1.00  0.00    -0.201 NA 
HETATM   21  C   UNL     1      -9.611  11.202  67.598  1.00  0.00    -0.170 C  
BRANCH  20  22
HETATM   22  C   UNL     1     -11.094  12.204  69.145  1.00  0.00    -0.205 C  
BRANCH  22  23
HETATM   23  C   UNL     1     -10.462  13.592  69.026  1.00  0.00    -0.099 C  
HETATM   24  C   UNL     1     -11.379  14.815  69.289  1.00  0.00    -0.317 C  
HETATM   25  C   UNL     1     -10.625  16.060  68.792  1.00  0.00    -0.262 A  
HETATM   26  C   UNL     1     -11.900  14.846  70.729  1.00  0.00    -0.368 A  
HETATM   27  C   UNL     1     -11.186  16.874  67.797  1.00  0.00     0.005 A  
HETATM   28  C   UNL     1     -11.219  15.460  71.791  1.00  0.00    -0.380 A  
HETATM   29  C   UNL     1     -10.422  17.869  67.177  1.00  0.00    -0.359 A  
HETATM   30  C   UNL     1     -11.679  15.350  73.106  1.00  0.00    -0.443 A  
HETATM   31  C   UNL     1     -12.831  14.627  73.390  1.00  0.00    -0.526 A  
HETATM   32  C   UNL     1      -9.096  18.077  67.555  1.00  0.00    -0.253 A  
HETATM   33  C   UNL     1      -8.539  17.312  68.572  1.00  0.00    -0.270 A  
HETATM   34  C   UNL     1     -13.539  14.028  72.354  1.00  0.00    -0.658 A  
HETATM   35  C   UNL     1     -13.081  14.146  71.037  1.00  0.00    -0.370 A  
HETATM   36  C   UNL     1      -9.296  16.314  69.184  1.00  0.00    -0.236 A  
ENDBRANCH  22  23
ENDBRANCH  20  22
ENDBRANCH  16  20
ENDBRANCH  13  15
ENDBRANCH  11  13
BRANCH  12  37
HETATM   37  C   UNL     1      -7.616   6.955  69.693  1.00  0.00    -0.101 A  
HETATM   38  O   UNL     1     -10.063   7.114  66.352  1.00  0.00    -0.122 OA 
HETATM   39  C   UNL     1      -8.501   7.047  68.601  1.00  0.00    -0.121 A  
HETATM   40  O   UNL     1      -8.739   8.551  65.355  1.00  0.00    -0.175 OA 
HETATM   41  C   UNL     1      -6.130   8.519  68.573  1.00  0.00    -0.046 A  
HETATM   42  C   UNL     1      -8.167   7.825  67.486  1.00  0.00    -0.124 A  
HETATM   43  N   UNL     1      -9.056   7.833  66.316  1.00  0.00    -0.180 N  
HETATM   44  C   UNL     1      -6.983   8.566  67.470  1.00  0.00    -0.079 A  
HETATM   45  C   UNL     1      -6.441   7.716  69.674  1.00  0.00    -0.031 A  
ENDBRANCH  12  37
ENDBRANCH   3   5
ENDBRANCH   2   3
TORSDOF 8
ENDMDL
MODEL       96
REMARK 921   NORMALIZED FREE ENERGY PREDICTED BY IDOCK:   -5.12 KCAL/MOL
REMARK 922        TOTAL FREE ENERGY PREDICTED BY IDOCK:   -9.42 KCAL/MOL
REMARK 923 INTER-LIGAND FREE ENERGY PREDICTED BY IDOCK:   -8.12 KCAL/MOL
REMARK 924 INTRA-LIGAND FREE ENERGY PREDICTED BY IDOCK:   -1.31 KCAL/MOL
REMARK 927      BINDING AFFINITY PREDICTED BY RF-SCORE:    0.00 PKD
ROOT
HETATM    1  C   UNL     1      -8.480   3.442  69.720  1.00  0.00    -0.053 C  
HETATM    2  O   UNL     1      -7.912   3.860  68.474  1.00  0.00    -0.067 OA 
ENDROOT
BRANCH   2   3
HETATM    3  C   UNL     1      -8.700   4.734  67.791  1.00  0.00    -0.103 C  
HETATM    4  O   UNL     1      -9.796   4.455  67.331  1.00  0.00    -0.185 OA 
BRANCH   3   5
HETATM    5  C   UNL     1      -8.045   6.067  67.688  1.00  0.00    -0.106 C  
HETATM    6  C   UNL     1      -6.768   6.188  67.248  1.00  0.00    -0.061 C  
HETATM    7  N   UNL     1      -6.212   7.447  67.102  1.00  0.00    -0.049 NA 
HETATM    8  C   UNL     1      -5.807   5.078  66.893  1.00  0.00    -0.022 C  
HETATM    9  C   UNL     1      -6.779   8.624  67.544  1.00  0.00    -0.066 C  
HETATM   10  C   UNL     1      -5.913   9.854  67.382  1.00  0.00    -0.054 C  
HETATM   11  C   UNL     1      -8.030   8.612  68.065  1.00  0.00    -0.107 C  
HETATM   12  C   UNL     1      -8.853   7.316  68.103  1.00  0.00    -0.126 C  
BRANCH  11  13
HETATM   13  C   UNL     1      -8.547   9.873  68.657  1.00  0.00    -0.119 C  
HETATM   14  O   UNL     1      -8.410  10.148  69.840  1.00  0.00    -0.172 OA 
BRANCH  13  15
HETATM   15  O   UNL     1      -9.087  10.691  67.723  1.00  0.00    -0.141 OA 
HETATM   16  C   UNL     1     -10.922  11.862  66.558  1.00  0.00    -0.292 C  
HETATM   17  C   UNL     1     -10.772  11.796  69.092  1.00  0.00    -0.169 C  
HETATM   18  C   UNL     1     -10.514  10.999  67.803  1.00  0.00    -0.199 C  
HETATM   19  C   UNL     1     -11.406   9.738  67.740  1.00  0.00     0.195 C  
BRANCH  16  20
HETATM   20  N   UNL     1     -10.291  13.193  66.361  1.00  0.00    -0.281 NA 
HETATM   21  C   UNL     1     -10.353  13.593  64.952  1.00  0.00    -0.388 C  
BRANCH  20  22
HETATM   22  C   UNL     1     -11.006  14.231  67.134  1.00  0.00    -0.302 C  
BRANCH  22  23
HETATM   23  C   UNL     1     -10.531  15.671  66.932  1.00  0.00    -0.307 C  
HETATM   24  C   UNL     1      -9.625  16.282  68.031  1.00  0.00    -0.224 C  
HETATM   25  C   UNL     1      -9.562  17.797  67.776  1.00  0.00    -0.272 A  
HETATM   26  C   UNL     1      -8.289  15.543  68.154  1.00  0.00    -0.145 A  
HETATM   27  C   UNL     1      -9.990  18.697  68.764  1.00  0.00    -0.427 A  
HETATM   28  C   UNL     1      -7.148  15.863  67.404  1.00  0.00    -0.230 A  
HETATM   29  C   UNL     1     -10.153  20.055  68.466  1.00  0.00    -0.487 A  
HETATM   30  C   UNL     1      -5.995  15.076  67.465  1.00  0.00     0.008 A  
HETATM   31  C   UNL     1      -5.954  13.952  68.280  1.00  0.00    -0.117 A  
HETATM   32  C   UNL     1      -9.875  20.534  67.187  1.00  0.00    -0.567 A  
HETATM   33  C   UNL     1      -9.405  19.666  66.210  1.00  0.00    -0.453 A  
HETATM   34  C   UNL     1      -7.062  13.623  69.053  1.00  0.00    -0.077 A  
HETATM   35  C   UNL     1      -8.213  14.417  68.996  1.00  0.00    -0.031 A  
HETATM   36  C   UNL     1      -9.251  18.312  66.502  1.00  0.00    -0.298 A  
ENDBRANCH  22  23
ENDBRANCH  20  22
ENDBRANCH  16  20
ENDBRANCH  13  15
ENDBRANCH  11  13
BRANCH  12  37
HETATM   37  C   UNL     1      -9.521   7.130  69.469  1.00  0.00    -0.151 A  
HETATM   38  O   UNL     1      -7.270   6.288  72.845  1.00  0.00    -0.079 OA 
HETATM   39  C   UNL     1      -8.730   6.918  70.615  1.00  0.00    -0.149 A  
HETATM   40  O   UNL     1      -9.065   6.120  74.095  1.00  0.00    -0.126 OA 
HETATM   41  C   UNL     1     -11.512   6.908  70.846  1.00  0.00    -0.368 A  
HETATM   42  C   UNL     1      -9.335   6.647  71.849  1.00  0.00    -0.147 A  
HETATM   43  N   UNL     1      -8.495   6.333  73.014  1.00  0.00    -0.118 N  
HETATM   44  C   UNL     1     -10.726   6.645  71.969  1.00  0.00    -0.247 A  
HETATM   45  C   UNL     1     -10.915   7.144  69.604  1.00  0.00    -0.236 A  
ENDBRANCH  12  37
ENDBRANCH   3   5
ENDBRANCH   2   3
TORSDOF 8
ENDMDL
MODEL       97
REMARK 921   NORMALIZED FREE ENERGY PREDICTED BY IDOCK:   -5.11 KCAL/MOL
REMARK 922        TOTAL FREE ENERGY PREDICTED BY IDOCK:   -9.41 KCAL/MOL
REMARK 923 INTER-LIGAND FREE ENERGY PREDICTED BY IDOCK:   -9.29 KCAL/MOL
REMARK 924 INTRA-LIGAND FREE ENERGY PREDICTED BY IDOCK:   -0.12 KCAL/MOL
REMARK 927      BINDING AFFINITY PREDICTED BY RF-SCORE:    0.00 PKD
ROOT
HETATM    1  C   UNL     1      -6.657   5.049  65.973  1.00  0.00    -0.045 C  
HETATM    2  O   UNL     1      -7.308   4.319  67.018  1.00  0.00    -0.071 OA 
ENDROOT
BRANCH   2   3
HETATM    3  C   UNL     1      -6.992   4.765  68.263  1.00  0.00    -0.057 C  
HETATM    4  O   UNL     1      -5.878   4.685  68.759  1.00  0.00    -0.019 OA 
BRANCH   3   5
HETATM    5  C   UNL     1      -8.180   5.362  68.930  1.00  0.00    -0.100 C  
HETATM    6  C   UNL     1      -9.399   4.773  68.850  1.00  0.00    -0.135 C  
HETATM    7  N   UNL     1     -10.469   5.319  69.536  1.00  0.00    -0.270 NA 
HETATM    8  C   UNL     1      -9.777   3.543  68.058  1.00  0.00    -0.083 C  
HETATM    9  C   UNL     1     -10.467   6.545  70.169  1.00  0.00    -0.214 C  
HETATM   10  C   UNL     1     -11.802   6.976  70.736  1.00  0.00    -0.401 C  
HETATM   11  C   UNL     1      -9.317   7.256  70.250  1.00  0.00    -0.158 C  
HETATM   12  C   UNL     1      -7.998   6.682  69.712  1.00  0.00    -0.120 C  
BRANCH  11  13
HETATM   13  C   UNL     1      -9.389   8.630  70.812  1.00  0.00    -0.191 C  
HETATM   14  O   UNL     1      -9.578   8.845  72.000  1.00  0.00    -0.305 OA 
BRANCH  13  15
HETATM   15  O   UNL     1      -9.130   9.576  69.879  1.00  0.00    -0.182 OA 
HETATM   16  C   UNL     1      -9.662  11.053  67.973  1.00  0.00    -0.172 C  
HETATM   17  C   UNL     1     -11.247  10.780  69.937  1.00  0.00    -0.371 C  
HETATM   18  C   UNL     1     -10.228  10.054  69.043  1.00  0.00    -0.203 C  
HETATM   19  C   UNL     1     -10.904   8.924  68.233  1.00  0.00    -0.048 C  
BRANCH  16  20
HETATM   20  N   UNL     1      -9.002  12.304  68.428  1.00  0.00    -0.174 NA 
HETATM   21  C   UNL     1      -7.643  12.400  67.889  1.00  0.00    -0.130 C  
BRANCH  20  22
HETATM   22  C   UNL     1      -9.741  13.491  67.944  1.00  0.00    -0.225 C  
BRANCH  22  23
HETATM   23  C   UNL     1     -10.802  14.059  68.889  1.00  0.00    -0.278 C  
HETATM   24  C   UNL     1     -10.372  15.221  69.821  1.00  0.00    -0.266 C  
HETATM   25  C   UNL     1     -11.477  15.385  70.879  1.00  0.00    -0.396 A  
HETATM   26  C   UNL     1      -9.972  16.473  69.036  1.00  0.00    -0.275 A  
HETATM   27  C   UNL     1     -11.174  15.252  72.242  1.00  0.00    -0.242 A  
HETATM   28  C   UNL     1     -10.877  17.470  68.643  1.00  0.00    -0.075 A  
HETATM   29  C   UNL     1     -12.197  15.172  73.193  1.00  0.00    -0.521 A  
HETATM   30  C   UNL     1     -10.480  18.528  67.820  1.00  0.00    -0.443 A  
HETATM   31  C   UNL     1      -9.168  18.615  67.373  1.00  0.00    -0.292 A  
HETATM   32  C   UNL     1     -13.533  15.240  72.799  1.00  0.00    -0.619 A  
HETATM   33  C   UNL     1     -13.850  15.418  71.459  1.00  0.00    -0.599 A  
HETATM   34  C   UNL     1      -8.243  17.653  67.764  1.00  0.00    -0.225 A  
HETATM   35  C   UNL     1      -8.641  16.599  68.595  1.00  0.00    -0.253 A  
HETATM   36  C   UNL     1     -12.832  15.490  70.509  1.00  0.00    -0.402 A  
ENDBRANCH  22  23
ENDBRANCH  20  22
ENDBRANCH  16  20
ENDBRANCH  13  15
ENDBRANCH  11  13
BRANCH  12  37
HETATM   37  C   UNL     1      -7.239   7.728  68.890  1.00  0.00    -0.081 A  
HETATM   38  O   UNL     1      -8.308   8.541  64.969  1.00  0.00    -0.153 OA 
HETATM   39  C   UNL     1      -7.666   8.041  67.584  1.00  0.00    -0.110 A  
HETATM   40  O   UNL     1      -6.654   9.962  64.732  1.00  0.00    -0.107 OA 
HETATM   41  C   UNL     1      -5.385   9.275  68.615  1.00  0.00    -0.034 A  
HETATM   42  C   UNL     1      -6.920   8.920  66.790  1.00  0.00    -0.077 A  
HETATM   43  N   UNL     1      -7.326   9.161  65.398  1.00  0.00    -0.088 N  
HETATM   44  C   UNL     1      -5.780   9.543  67.304  1.00  0.00    -0.040 A  
HETATM   45  C   UNL     1      -6.105   8.371  69.401  1.00  0.00    -0.037 A  
ENDBRANCH  12  37
ENDBRANCH   3   5
ENDBRANCH   2   3
TORSDOF 8
ENDMDL
MODEL       98
REMARK 921   NORMALIZED FREE ENERGY PREDICTED BY IDOCK:   -5.07 KCAL/MOL
REMARK 922        TOTAL FREE ENERGY PREDICTED BY IDOCK:   -9.36 KCAL/MOL
REMARK 923 INTER-LIGAND FREE ENERGY PREDICTED BY IDOCK:   -8.33 KCAL/MOL
REMARK 924 INTRA-LIGAND FREE ENERGY PREDICTED BY IDOCK:   -1.03 KCAL/MOL
REMARK 927      BINDING AFFINITY PREDICTED BY RF-SCORE:    0.00 PKD
ROOT
HETATM    1  C   UNL     1      -7.323   5.745  63.383  1.00  0.00    -0.062 C  
HETATM    2  O   UNL     1      -7.295   4.519  64.120  1.00  0.00    -0.057 OA 
ENDROOT
BRANCH   2   3
HETATM    3  C   UNL     1      -6.591   4.606  65.281  1.00  0.00    -0.047 C  
HETATM    4  O   UNL     1      -5.373   4.563  65.350  1.00  0.00    -0.012 OA 
BRANCH   3   5
HETATM    5  C   UNL     1      -7.507   4.762  66.444  1.00  0.00    -0.086 C  
HETATM    6  C   UNL     1      -8.657   4.050  66.531  1.00  0.00    -0.110 C  
HETATM    7  N   UNL     1      -9.452   4.171  67.657  1.00  0.00    -0.173 NA 
HETATM    8  C   UNL     1      -9.234   3.103  65.505  1.00  0.00    -0.145 C  
HETATM    9  C   UNL     1      -9.283   5.109  68.655  1.00  0.00    -0.119 C  
HETATM   10  C   UNL     1     -10.363   5.120  69.714  1.00  0.00    -0.332 C  
HETATM   11  C   UNL     1      -8.200   5.923  68.633  1.00  0.00    -0.109 C  
HETATM   12  C   UNL     1      -7.120   5.766  67.552  1.00  0.00    -0.074 C  
BRANCH  11  13
HETATM   13  C   UNL     1      -8.129   7.010  69.644  1.00  0.00    -0.130 C  
HETATM   14  O   UNL     1      -7.279   7.038  70.521  1.00  0.00    -0.066 OA 
BRANCH  13  15
HETATM   15  O   UNL     1      -9.043   7.982  69.411  1.00  0.00    -0.148 OA 
HETATM   16  C   UNL     1     -10.296  10.049  69.913  1.00  0.00    -0.272 C  
HETATM   17  C   UNL     1      -7.777   9.911  70.192  1.00  0.00    -0.188 C  
HETATM   18  C   UNL     1      -9.093   9.127  70.317  1.00  0.00    -0.218 C  
HETATM   19  C   UNL     1      -9.362   8.722  71.785  1.00  0.00    -0.350 C  
BRANCH  16  20
HETATM   20  N   UNL     1     -10.308  10.674  68.564  1.00  0.00    -0.174 NA 
HETATM   21  C   UNL     1     -10.472   9.655  67.523  1.00  0.00    -0.262 C  
BRANCH  20  22
HETATM   22  C   UNL     1     -11.445  11.611  68.432  1.00  0.00    -0.297 C  
BRANCH  22  23
HETATM   23  C   UNL     1     -11.091  13.098  68.375  1.00  0.00    -0.298 C  
HETATM   24  C   UNL     1     -10.173  13.566  67.216  1.00  0.00    -0.242 C  
HETATM   25  C   UNL     1      -9.701  14.989  67.560  1.00  0.00    -0.215 A  
HETATM   26  C   UNL     1     -10.824  13.362  65.845  1.00  0.00    -0.282 A  
HETATM   27  C   UNL     1      -8.332  15.268  67.681  1.00  0.00    -0.176 A  
HETATM   28  C   UNL     1     -11.650  14.312  65.225  1.00  0.00    -0.348 A  
HETATM   29  C   UNL     1      -7.899  16.489  68.212  1.00  0.00    -0.175 A  
HETATM   30  C   UNL     1     -12.319  14.023  64.032  1.00  0.00    -0.341 A  
HETATM   31  C   UNL     1     -12.175  12.779  63.430  1.00  0.00    -0.594 A  
HETATM   32  C   UNL     1      -8.825  17.452  68.611  1.00  0.00    -0.258 A  
HETATM   33  C   UNL     1     -10.184  17.211  68.453  1.00  0.00    -0.340 A  
HETATM   34  C   UNL     1     -11.345  11.826  64.010  1.00  0.00    -0.461 A  
HETATM   35  C   UNL     1     -10.671  12.121  65.201  1.00  0.00    -0.333 A  
HETATM   36  C   UNL     1     -10.617  15.992  67.933  1.00  0.00    -0.301 A  
ENDBRANCH  22  23
ENDBRANCH  20  22
ENDBRANCH  16  20
ENDBRANCH  13  15
ENDBRANCH  11  13
BRANCH  12  37
HETATM   37  C   UNL     1      -6.723   7.127  66.971  1.00  0.00    -0.064 A  
HETATM   38  O   UNL     1      -9.097   9.009  64.143  1.00  0.00    -0.038 OA 
HETATM   39  C   UNL     1      -7.582   7.782  66.067  1.00  0.00    -0.087 A  
HETATM   40  O   UNL     1      -7.672  10.664  63.936  1.00  0.00    -0.009 OA 
HETATM   41  C   UNL     1      -5.127   8.942  66.715  1.00  0.00    -0.034 A  
HETATM   42  C   UNL     1      -7.183   8.976  65.454  1.00  0.00    -0.084 A  
HETATM   43  N   UNL     1      -8.048   9.595  64.441  1.00  0.00    -0.132 N  
HETATM   44  C   UNL     1      -5.957   9.562  65.779  1.00  0.00    -0.055 A  
HETATM   45  C   UNL     1      -5.505   7.731  67.303  1.00  0.00    -0.035 A  
ENDBRANCH  12  37
ENDBRANCH   3   5
ENDBRANCH   2   3
TORSDOF 8
ENDMDL
MODEL       99
REMARK 921   NORMALIZED FREE ENERGY PREDICTED BY IDOCK:   -5.02 KCAL/MOL
REMARK 922        TOTAL FREE ENERGY PREDICTED BY IDOCK:   -9.27 KCAL/MOL
REMARK 923 INTER-LIGAND FREE ENERGY PREDICTED BY IDOCK:   -8.69 KCAL/MOL
REMARK 924 INTRA-LIGAND FREE ENERGY PREDICTED BY IDOCK:   -0.58 KCAL/MOL
REMARK 927      BINDING AFFINITY PREDICTED BY RF-SCORE:    0.00 PKD
ROOT
HETATM    1  C   UNL     1     -10.682   4.468  72.748  1.00  0.00    -0.186 C  
HETATM    2  O   UNL     1      -9.886   5.252  71.853  1.00  0.00    -0.167 OA 
ENDROOT
BRANCH   2   3
HETATM    3  C   UNL     1      -8.564   5.258  72.176  1.00  0.00    -0.126 C  
HETATM    4  O   UNL     1      -7.989   4.336  72.733  1.00  0.00    -0.083 OA 
BRANCH   3   5
HETATM    5  C   UNL     1      -7.923   6.534  71.755  1.00  0.00    -0.104 C  
HETATM    6  C   UNL     1      -8.189   7.697  72.399  1.00  0.00    -0.112 C  
HETATM    7  N   UNL     1      -7.525   8.852  72.024  1.00  0.00    -0.335 NA 
HETATM    8  C   UNL     1      -9.176   7.925  73.520  1.00  0.00    -0.340 C  
HETATM    9  C   UNL     1      -6.728   8.986  70.907  1.00  0.00    -0.080 C  
HETATM   10  C   UNL     1      -6.221  10.387  70.644  1.00  0.00    -0.083 C  
HETATM   11  C   UNL     1      -6.450   7.899  70.148  1.00  0.00    -0.037 C  
HETATM   12  C   UNL     1      -6.950   6.505  70.556  1.00  0.00    -0.064 C  
BRANCH  11  13
HETATM   13  C   UNL     1      -5.707   8.111  68.878  1.00  0.00    -0.035 C  
HETATM   14  O   UNL     1      -5.172   7.197  68.269  1.00  0.00    -0.018 OA 
BRANCH  13  15
HETATM   15  O   UNL     1      -5.782   9.394  68.452  1.00  0.00    -0.041 OA 
HETATM   16  C   UNL     1      -6.341  11.203  66.866  1.00  0.00    -0.114 C  
HETATM   17  C   UNL     1      -7.975   9.332  67.392  1.00  0.00    -0.106 C  
HETATM   18  C   UNL     1      -6.488   9.678  67.204  1.00  0.00    -0.070 C  
HETATM   19  C   UNL     1      -5.891   8.928  65.991  1.00  0.00    -0.051 C  
BRANCH  16  20
HETATM   20  N   UNL     1      -6.888  12.210  67.812  1.00  0.00    -0.094 NA 
HETATM   21  C   UNL     1      -5.991  13.364  67.918  1.00  0.00    -0.140 C  
BRANCH  20  22
HETATM   22  C   UNL     1      -8.191  12.722  67.334  1.00  0.00    -0.186 C  
BRANCH  22  23
HETATM   23  C   UNL     1      -9.427  12.244  68.100  1.00  0.00    -0.213 C  
HETATM   24  C   UNL     1     -10.611  13.237  68.228  1.00  0.00    -0.262 C  
HETATM   25  C   UNL     1     -11.563  12.670  69.294  1.00  0.00    -0.376 A  
HETATM   26  C   UNL     1     -11.220  13.587  66.868  1.00  0.00    -0.329 A  
HETATM   27  C   UNL     1     -11.864  13.418  70.442  1.00  0.00    -0.283 A  
HETATM   28  C   UNL     1     -12.247  12.850  66.260  1.00  0.00    -0.340 A  
HETATM   29  C   UNL     1     -12.539  12.830  71.518  1.00  0.00    -0.259 A  
HETATM   30  C   UNL     1     -12.679  13.141  64.963  1.00  0.00    -0.456 A  
HETATM   31  C   UNL     1     -12.096  14.177  64.245  1.00  0.00    -0.471 A  
HETATM   32  C   UNL     1     -12.937  11.496  71.456  1.00  0.00    -0.485 A  
HETATM   33  C   UNL     1     -12.690  10.754  70.308  1.00  0.00    -0.286 A  
HETATM   34  C   UNL     1     -11.092  14.940  64.830  1.00  0.00    -0.424 A  
HETATM   35  C   UNL     1     -10.667  14.652  66.132  1.00  0.00    -0.314 A  
HETATM   36  C   UNL     1     -12.010  11.335  69.239  1.00  0.00    -0.411 A  
ENDBRANCH  22  23
ENDBRANCH  20  22
ENDBRANCH  16  20
ENDBRANCH  13  15
ENDBRANCH  11  13
BRANCH  12  37
HETATM   37  C   UNL     1      -7.548   5.763  69.357  1.00  0.00    -0.088 A  
HETATM   38  O   UNL     1     -10.972   7.157  67.483  1.00  0.00    -0.244 OA 
HETATM   39  C   UNL     1      -8.669   6.295  68.690  1.00  0.00    -0.120 A  
HETATM   40  O   UNL     1     -11.012   5.444  66.113  1.00  0.00    -0.178 OA 
HETATM   41  C   UNL     1      -7.614   3.847  67.864  1.00  0.00    -0.067 A  
HETATM   42  C   UNL     1      -9.284   5.575  67.659  1.00  0.00    -0.110 A  
HETATM   43  N   UNL     1     -10.508   6.099  67.038  1.00  0.00    -0.241 N  
HETATM   44  C   UNL     1      -8.756   4.351  67.240  1.00  0.00    -0.108 A  
HETATM   45  C   UNL     1      -7.017   4.545  68.918  1.00  0.00    -0.051 A  
ENDBRANCH  12  37
ENDBRANCH   3   5
ENDBRANCH   2   3
TORSDOF 8
ENDMDL
MODEL      100
REMARK 921   NORMALIZED FREE ENERGY PREDICTED BY IDOCK:   -4.97 KCAL/MOL
REMARK 922        TOTAL FREE ENERGY PREDICTED BY IDOCK:   -9.21 KCAL/MOL
REMARK 923 INTER-LIGAND FREE ENERGY PREDICTED BY IDOCK:   -8.70 KCAL/MOL
REMARK 924 INTRA-LIGAND FREE ENERGY PREDICTED BY IDOCK:   -0.51 KCAL/MOL
REMARK 927      BINDING AFFINITY PREDICTED BY RF-SCORE:    0.00 PKD
ROOT
HETATM    1  C   UNL     1     -10.533  18.294  65.885  1.00  0.00    -0.307 C  
HETATM    2  O   UNL     1     -10.890  16.960  66.261  1.00  0.00    -0.146 OA 
ENDROOT
BRANCH   2   3
HETATM    3  C   UNL     1     -11.000  16.114  65.201  1.00  0.00    -0.316 C  
HETATM    4  O   UNL     1     -11.163  16.477  64.047  1.00  0.00    -0.967 OA 
BRANCH   3   5
HETATM    5  C   UNL     1     -10.891  14.697  65.642  1.00  0.00    -0.335 C  
HETATM    6  C   UNL     1     -11.975  13.882  65.657  1.00  0.00    -0.392 C  
HETATM    7  N   UNL     1     -11.825  12.552  66.010  1.00  0.00    -0.480 NA 
HETATM    8  C   UNL     1     -13.406  14.248  65.341  1.00  0.00     0.372 C  
HETATM    9  C   UNL     1     -10.682  11.993  66.540  1.00  0.00    -0.258 C  
HETATM   10  C   UNL     1     -10.813  10.547  66.966  1.00  0.00    -0.288 C  
HETATM   11  C   UNL     1      -9.553  12.736  66.637  1.00  0.00    -0.255 C  
HETATM   12  C   UNL     1      -9.510  14.173  66.094  1.00  0.00    -0.229 C  
BRANCH  11  13
HETATM   13  C   UNL     1      -8.389  12.142  67.343  1.00  0.00    -0.174 C  
HETATM   14  O   UNL     1      -8.074  12.465  68.478  1.00  0.00    -0.148 OA 
BRANCH  13  15
HETATM   15  O   UNL     1      -7.802  11.159  66.620  1.00  0.00    -0.146 OA 
HETATM   16  C   UNL     1      -6.276   9.254  66.246  1.00  0.00    -0.064 C  
HETATM   17  C   UNL     1      -7.752   9.402  68.306  1.00  0.00    -0.083 C  
HETATM   18  C   UNL     1      -6.918  10.218  67.304  1.00  0.00    -0.086 C  
HETATM   19  C   UNL     1      -5.727  10.911  68.006  1.00  0.00    -0.042 C  
BRANCH  16  20
HETATM   20  N   UNL     1      -7.159   8.375  65.437  1.00  0.00    -0.080 NA 
HETATM   21  C   UNL     1      -6.930   8.586  64.005  1.00  0.00    -0.079 C  
BRANCH  20  22
HETATM   22  C   UNL     1      -6.873   6.950  65.712  1.00  0.00    -0.052 C  
BRANCH  22  23
HETATM   23  C   UNL     1      -7.921   5.945  65.230  1.00  0.00    -0.115 C  
HETATM   24  C   UNL     1      -8.242   4.750  66.165  1.00  0.00    -0.107 C  
HETATM   25  C   UNL     1      -9.046   3.733  65.338  1.00  0.00    -0.145 A  
HETATM   26  C   UNL     1      -8.854   5.204  67.493  1.00  0.00    -0.105 A  
HETATM   27  C   UNL     1      -8.566   2.426  65.166  1.00  0.00    -0.109 A  
HETATM   28  C   UNL     1     -10.230   5.393  67.694  1.00  0.00    -0.236 A  
HETATM   29  C   UNL     1      -9.163   1.565  64.239  1.00  0.00    -0.121 A  
HETATM   30  C   UNL     1     -10.721   5.928  68.888  1.00  0.00    -0.370 A  
HETATM   31  C   UNL     1      -9.850   6.286  69.909  1.00  0.00    -0.198 A  
HETATM   32  C   UNL     1     -10.256   1.990  63.485  1.00  0.00    -0.139 A  
HETATM   33  C   UNL     1     -10.774   3.264  63.676  1.00  0.00    -0.247 A  
HETATM   34  C   UNL     1      -8.483   6.090  69.746  1.00  0.00    -0.126 A  
HETATM   35  C   UNL     1      -7.994   5.546  68.553  1.00  0.00    -0.088 A  
HETATM   36  C   UNL     1     -10.175   4.126  64.593  1.00  0.00    -0.195 A  
ENDBRANCH  22  23
ENDBRANCH  20  22
ENDBRANCH  16  20
ENDBRANCH  13  15
ENDBRANCH  11  13
BRANCH  12  37
HETATM   37  C   UNL     1      -8.846  15.119  67.099  1.00  0.00    -0.236 A  
HETATM   38  O   UNL     1      -5.281  17.030  66.191  1.00  0.00    -0.360 OA 
HETATM   39  C   UNL     1      -7.674  15.814  66.741  1.00  0.00    -0.216 A  
HETATM   40  O   UNL     1      -5.180  17.951  68.179  1.00  0.00    -0.147 OA 
HETATM   41  C   UNL     1      -8.714  16.111  69.314  1.00  0.00    -0.190 A  
HETATM   42  C   UNL     1      -7.005  16.602  67.685  1.00  0.00    -0.139 A  
HETATM   43  N   UNL     1      -5.733  17.243  67.324  1.00  0.00    -0.130 N  
HETATM   44  C   UNL     1      -7.525  16.757  68.973  1.00  0.00    -0.228 A  
HETATM   45  C   UNL     1      -9.367  15.294  68.386  1.00  0.00    -0.194 A  
ENDBRANCH  12  37
ENDBRANCH   3   5
ENDBRANCH   2   3
TORSDOF 8
ENDMDL
MODEL      101
REMARK 921   NORMALIZED FREE ENERGY PREDICTED BY IDOCK:   -4.95 KCAL/MOL
REMARK 922        TOTAL FREE ENERGY PREDICTED BY IDOCK:   -9.17 KCAL/MOL
REMARK 923 INTER-LIGAND FREE ENERGY PREDICTED BY IDOCK:   -8.25 KCAL/MOL
REMARK 924 INTRA-LIGAND FREE ENERGY PREDICTED BY IDOCK:   -0.92 KCAL/MOL
REMARK 927      BINDING AFFINITY PREDICTED BY RF-SCORE:    0.00 PKD
ROOT
HETATM    1  C   UNL     1     -10.023   6.460  74.406  1.00  0.00    -0.343 C  
HETATM    2  O   UNL     1      -8.848   7.270  74.288  1.00  0.00    -0.199 OA 
ENDROOT
BRANCH   2   3
HETATM    3  C   UNL     1      -7.886   6.711  73.506  1.00  0.00    -0.092 C  
HETATM    4  O   UNL     1      -7.500   5.557  73.612  1.00  0.00    -0.090 OA 
BRANCH   3   5
HETATM    5  C   UNL     1      -7.377   7.693  72.510  1.00  0.00    -0.089 C  
HETATM    6  C   UNL     1      -6.729   8.818  72.903  1.00  0.00     0.085 C  
HETATM    7  N   UNL     1      -6.211   9.675  71.949  1.00  0.00    -0.297 NA 
HETATM    8  C   UNL     1      -6.496   9.301  74.315  1.00  0.00     0.216 C  
HETATM    9  C   UNL     1      -6.450   9.597  70.593  1.00  0.00    -0.105 C  
HETATM   10  C   UNL     1      -5.876  10.732  69.773  1.00  0.00    -0.063 C  
HETATM   11  C   UNL     1      -7.147   8.547  70.094  1.00  0.00    -0.043 C  
HETATM   12  C   UNL     1      -7.612   7.406  71.011  1.00  0.00    -0.086 C  
BRANCH  11  13
HETATM   13  C   UNL     1      -7.504   8.574  68.652  1.00  0.00    -0.093 C  
HETATM   14  O   UNL     1      -7.050   7.774  67.848  1.00  0.00    -0.081 OA 
BRANCH  13  15
HETATM   15  O   UNL     1      -8.441   9.511  68.376  1.00  0.00    -0.117 OA 
HETATM   16  C   UNL     1     -10.185  10.607  67.014  1.00  0.00    -0.220 C  
HETATM   17  C   UNL     1     -10.129   8.091  67.343  1.00  0.00    -0.294 C  
HETATM   18  C   UNL     1      -9.262   9.349  67.178  1.00  0.00    -0.134 C  
HETATM   19  C   UNL     1      -8.424   9.282  65.879  1.00  0.00    -0.141 C  
BRANCH  16  20
HETATM   20  N   UNL     1     -11.178  10.920  68.074  1.00  0.00    -0.294 NA 
HETATM   21  C   UNL     1     -10.592  10.734  69.405  1.00  0.00    -0.221 C  
BRANCH  20  22
HETATM   22  C   UNL     1     -11.609  12.332  67.988  1.00  0.00    -0.349 C  
BRANCH  22  23
HETATM   23  C   UNL     1     -10.533  13.385  68.262  1.00  0.00    -0.256 C  
HETATM   24  C   UNL     1      -9.584  13.752  67.092  1.00  0.00    -0.244 C  
HETATM   25  C   UNL     1      -8.416  14.552  67.691  1.00  0.00    -0.189 A  
HETATM   26  C   UNL     1     -10.334  14.390  65.919  1.00  0.00    -0.327 A  
HETATM   27  C   UNL     1      -7.098  14.091  67.549  1.00  0.00    -0.179 A  
HETATM   28  C   UNL     1     -10.579  15.767  65.807  1.00  0.00    -0.369 A  
HETATM   29  C   UNL     1      -6.057  14.679  68.276  1.00  0.00    -0.117 A  
HETATM   30  C   UNL     1     -11.376  16.280  64.780  1.00  0.00    -0.214 A  
HETATM   31  C   UNL     1     -11.946  15.430  63.841  1.00  0.00     0.182 A  
HETATM   32  C   UNL     1      -6.313  15.744  69.139  1.00  0.00    -0.134 A  
HETATM   33  C   UNL     1      -7.603  16.244  69.255  1.00  0.00    -0.203 A  
HETATM   34  C   UNL     1     -11.702  14.063  63.914  1.00  0.00    -0.182 A  
HETATM   35  C   UNL     1     -10.896  13.552  64.938  1.00  0.00    -0.371 A  
HETATM   36  C   UNL     1      -8.643  15.654  68.539  1.00  0.00    -0.180 A  
ENDBRANCH  22  23
ENDBRANCH  20  22
ENDBRANCH  16  20
ENDBRANCH  13  15
ENDBRANCH  11  13
BRANCH  12  37
HETATM   37  C   UNL     1      -9.070   7.032  70.727  1.00  0.00    -0.154 A  
HETATM   38  O   UNL     1     -12.183   9.377  72.137  1.00  0.00    -0.343 OA 
HETATM   39  C   UNL     1     -10.109   7.883  71.152  1.00  0.00    -0.210 A  
HETATM   40  O   UNL     1     -13.687   7.996  71.337  1.00  0.00    -0.308 OA 
HETATM   41  C   UNL     1     -10.737   5.483  69.873  1.00  0.00    -0.358 A  
HETATM   42  C   UNL     1     -11.446   7.501  70.987  1.00  0.00    -0.278 A  
HETATM   43  N   UNL     1     -12.515   8.355  71.522  1.00  0.00    -0.307 N  
HETATM   44  C   UNL     1     -11.764   6.303  70.343  1.00  0.00    -0.290 A  
HETATM   45  C   UNL     1      -9.400   5.842  70.067  1.00  0.00    -0.171 A  
ENDBRANCH  12  37
ENDBRANCH   3   5
ENDBRANCH   2   3
TORSDOF 8
ENDMDL
MODEL      102
REMARK 921   NORMALIZED FREE ENERGY PREDICTED BY IDOCK:   -4.93 KCAL/MOL
REMARK 922        TOTAL FREE ENERGY PREDICTED BY IDOCK:   -9.15 KCAL/MOL
REMARK 923 INTER-LIGAND FREE ENERGY PREDICTED BY IDOCK:   -8.07 KCAL/MOL
REMARK 924 INTRA-LIGAND FREE ENERGY PREDICTED BY IDOCK:   -1.08 KCAL/MOL
REMARK 927      BINDING AFFINITY PREDICTED BY RF-SCORE:    0.00 PKD
ROOT
HETATM    1  C   UNL     1      -9.113   3.174  71.247  1.00  0.00    -0.109 C  
HETATM    2  O   UNL     1      -8.915   3.674  69.920  1.00  0.00    -0.082 OA 
ENDROOT
BRANCH   2   3
HETATM    3  C   UNL     1      -9.739   4.710  69.608  1.00  0.00    -0.213 C  
HETATM    4  O   UNL     1     -10.761   4.982  70.219  1.00  0.00    -0.177 OA 
BRANCH   3   5
HETATM    5  C   UNL     1      -9.224   5.459  68.430  1.00  0.00    -0.128 C  
HETATM    6  C   UNL     1      -9.125   4.871  67.213  1.00  0.00    -0.116 C  
HETATM    7  N   UNL     1      -8.704   5.616  66.126  1.00  0.00    -0.131 NA 
HETATM    8  C   UNL     1      -9.409   3.429  66.861  1.00  0.00    -0.201 C  
HETATM    9  C   UNL     1      -8.183   6.891  66.188  1.00  0.00    -0.121 C  
HETATM   10  C   UNL     1      -7.673   7.441  64.873  1.00  0.00    -0.113 C  
HETATM   11  C   UNL     1      -8.169   7.553  67.370  1.00  0.00    -0.116 C  
HETATM   12  C   UNL     1      -8.792   6.930  68.628  1.00  0.00    -0.124 C  
BRANCH  11  13
HETATM   13  C   UNL     1      -7.473   8.865  67.422  1.00  0.00    -0.085 C  
HETATM   14  O   UNL     1      -6.282   8.987  67.177  1.00  0.00    -0.057 OA 
BRANCH  13  15
HETATM   15  O   UNL     1      -8.326   9.885  67.676  1.00  0.00    -0.114 OA 
HETATM   16  C   UNL     1      -9.200  12.185  67.465  1.00  0.00    -0.182 C  
HETATM   17  C   UNL     1      -8.491  10.831  65.438  1.00  0.00    -0.132 C  
HETATM   18  C   UNL     1      -8.183  11.124  66.915  1.00  0.00    -0.149 C  
HETATM   19  C   UNL     1      -6.788  11.771  67.075  1.00  0.00    -0.137 C  
BRANCH  16  20
HETATM   20  N   UNL     1     -10.656  11.898  67.390  1.00  0.00    -0.219 NA 
HETATM   21  C   UNL     1     -11.148  11.374  68.667  1.00  0.00    -0.236 C  
BRANCH  20  22
HETATM   22  C   UNL     1     -11.419  13.134  67.110  1.00  0.00    -0.334 C  
BRANCH  22  23
HETATM   23  C   UNL     1     -12.022  13.846  68.323  1.00  0.00    -0.392 C  
HETATM   24  C   UNL     1     -11.087  14.778  69.136  1.00  0.00    -0.278 C  
HETATM   25  C   UNL     1     -11.806  15.098  70.457  1.00  0.00    -0.361 A  
HETATM   26  C   UNL     1     -10.594  15.967  68.307  1.00  0.00    -0.276 A  
HETATM   27  C   UNL     1     -11.209  14.768  71.683  1.00  0.00     0.097 A  
HETATM   28  C   UNL     1     -11.284  17.184  68.203  1.00  0.00     0.024 A  
HETATM   29  C   UNL     1     -11.941  14.844  72.873  1.00  0.00    -0.328 A  
HETATM   30  C   UNL     1     -10.853  18.190  67.333  1.00  0.00    -0.258 A  
HETATM   31  C   UNL     1      -9.721  18.003  66.549  1.00  0.00    -0.338 A  
HETATM   32  C   UNL     1     -13.270  15.265  72.858  1.00  0.00    -0.610 A  
HETATM   33  C   UNL     1     -13.862  15.641  71.659  1.00  0.00    -0.438 A  
HETATM   34  C   UNL     1      -9.005  16.816  66.649  1.00  0.00    -0.278 A  
HETATM   35  C   UNL     1      -9.434  15.814  67.526  1.00  0.00    -0.218 A  
HETATM   36  C   UNL     1     -13.137  15.558  70.472  1.00  0.00    -0.265 A  
ENDBRANCH  22  23
ENDBRANCH  20  22
ENDBRANCH  16  20
ENDBRANCH  13  15
ENDBRANCH  11  13
BRANCH  12  37
HETATM   37  C   UNL     1      -7.866   7.091  69.837  1.00  0.00    -0.114 A  
HETATM   38  O   UNL     1      -9.192   8.934  73.304  1.00  0.00    -0.009 OA 
HETATM   39  C   UNL     1      -8.360   7.654  71.030  1.00  0.00    -0.112 A  
HETATM   40  O   UNL     1      -7.220   8.753  74.247  1.00  0.00    -0.372 OA 
HETATM   41  C   UNL     1      -5.671   6.923  70.868  1.00  0.00    -0.027 A  
HETATM   42  C   UNL     1      -7.497   7.898  72.105  1.00  0.00    -0.084 A  
HETATM   43  N   UNL     1      -8.008   8.573  73.306  1.00  0.00    -0.071 N  
HETATM   44  C   UNL     1      -6.152   7.530  72.029  1.00  0.00    -0.039 A  
HETATM   45  C   UNL     1      -6.520   6.710  69.778  1.00  0.00    -0.044 A  
ENDBRANCH  12  37
ENDBRANCH   3   5
ENDBRANCH   2   3
TORSDOF 8
ENDMDL
MODEL      103
REMARK 921   NORMALIZED FREE ENERGY PREDICTED BY IDOCK:   -4.89 KCAL/MOL
REMARK 922        TOTAL FREE ENERGY PREDICTED BY IDOCK:   -9.10 KCAL/MOL
REMARK 923 INTER-LIGAND FREE ENERGY PREDICTED BY IDOCK:   -7.94 KCAL/MOL
REMARK 924 INTRA-LIGAND FREE ENERGY PREDICTED BY IDOCK:   -1.16 KCAL/MOL
REMARK 927      BINDING AFFINITY PREDICTED BY RF-SCORE:    0.00 PKD
ROOT
HETATM    1  C   UNL     1      -7.215  20.334  66.008  1.00  0.00    -0.247 C  
HETATM    2  O   UNL     1      -7.308  19.094  66.717  1.00  0.00    -0.207 OA 
ENDROOT
BRANCH   2   3
HETATM    3  C   UNL     1      -8.533  18.882  67.270  1.00  0.00    -0.277 C  
HETATM    4  O   UNL     1      -8.898  19.363  68.332  1.00  0.00    -0.332 OA 
BRANCH   3   5
HETATM    5  C   UNL     1      -9.357  17.993  66.408  1.00  0.00    -0.267 C  
HETATM    6  C   UNL     1     -10.377  18.487  65.663  1.00  0.00    -0.040 C  
HETATM    7  N   UNL     1     -11.080  17.643  64.822  1.00  0.00    -0.717 NA 
HETATM    8  C   UNL     1     -10.892  19.907  65.635  1.00  0.00    -0.299 C  
HETATM    9  C   UNL     1     -10.967  16.269  64.796  1.00  0.00    -0.272 C  
HETATM   10  C   UNL     1     -11.941  15.561  63.879  1.00  0.00     0.204 C  
HETATM   11  C   UNL     1     -10.023  15.659  65.554  1.00  0.00    -0.364 C  
HETATM   12  C   UNL     1      -9.030  16.483  66.386  1.00  0.00    -0.340 C  
BRANCH  11  13
HETATM   13  C   UNL     1     -10.028  14.174  65.606  1.00  0.00    -0.306 C  
HETATM   14  O   UNL     1      -9.425  13.486  64.796  1.00  0.00     0.284 OA 
BRANCH  13  15
HETATM   15  O   UNL     1     -10.691  13.704  66.689  1.00  0.00    -0.278 OA 
HETATM   16  C   UNL     1     -12.375  12.340  67.872  1.00  0.00     0.621 C  
HETATM   17  C   UNL     1     -10.919  11.369  66.032  1.00  0.00    -0.286 C  
HETATM   18  C   UNL     1     -11.664  12.629  66.504  1.00  0.00    -0.400 C  
HETATM   19  C   UNL     1     -12.797  13.006  65.522  1.00  0.00    -0.112 C  
BRANCH  16  20
HETATM   20  N   UNL     1     -11.563  11.876  69.026  1.00  0.00    -0.291 NA 
HETATM   21  C   UNL     1     -11.724  12.779  70.170  1.00  0.00    -0.162 C  
BRANCH  20  22
HETATM   22  C   UNL     1     -12.003  10.536  69.472  1.00  0.00    -0.186 C  
BRANCH  22  23
HETATM   23  C   UNL     1     -11.146   9.866  70.547  1.00  0.00    -0.398 C  
HETATM   24  C   UNL     1     -10.770   8.378  70.330  1.00  0.00    -0.244 C  
HETATM   25  C   UNL     1     -10.213   7.853  71.664  1.00  0.00    -0.239 A  
HETATM   26  C   UNL     1      -9.898   8.178  69.087  1.00  0.00    -0.182 A  
HETATM   27  C   UNL     1     -10.826   6.767  72.307  1.00  0.00    -0.263 A  
HETATM   28  C   UNL     1      -8.498   8.258  69.095  1.00  0.00    -0.127 A  
HETATM   29  C   UNL     1     -10.476   6.426  73.618  1.00  0.00    -0.311 A  
HETATM   30  C   UNL     1      -7.761   8.192  67.910  1.00  0.00    -0.114 A  
HETATM   31  C   UNL     1      -8.406   8.041  66.689  1.00  0.00    -0.120 A  
HETATM   32  C   UNL     1      -9.500   7.153  74.298  1.00  0.00    -0.236 A  
HETATM   33  C   UNL     1      -8.849   8.201  73.661  1.00  0.00    -0.296 A  
HETATM   34  C   UNL     1      -9.792   7.936  66.653  1.00  0.00    -0.311 A  
HETATM   35  C   UNL     1     -10.527   7.994  67.842  1.00  0.00    -0.259 A  
HETATM   36  C   UNL     1      -9.202   8.547  72.358  1.00  0.00    -0.328 A  
ENDBRANCH  22  23
ENDBRANCH  20  22
ENDBRANCH  16  20
ENDBRANCH  13  15
ENDBRANCH  11  13
BRANCH  12  37
HETATM   37  C   UNL     1      -8.892  15.912  67.800  1.00  0.00    -0.176 A  
HETATM   38  O   UNL     1     -11.991  16.225  70.535  1.00  0.00    -0.204 OA 
HETATM   39  C   UNL     1      -9.984  15.964  68.689  1.00  0.00    -0.214 A  
HETATM   40  O   UNL     1     -10.797  15.279  72.113  1.00  0.00    -0.097 OA 
HETATM   41  C   UNL     1      -7.557  14.897  69.559  1.00  0.00    -0.137 A  
HETATM   42  C   UNL     1      -9.837  15.538  70.014  1.00  0.00    -0.108 A  
HETATM   43  N   UNL     1     -10.957  15.688  70.953  1.00  0.00    -0.319 N  
HETATM   44  C   UNL     1      -8.625  14.999  70.452  1.00  0.00     1.135 A  
HETATM   45  C   UNL     1      -7.687  15.355  68.245  1.00  0.00    -0.115 A  
ENDBRANCH  12  37
ENDBRANCH   3   5
ENDBRANCH   2   3
TORSDOF 8
ENDMDL
MODEL      104
REMARK 921   NORMALIZED FREE ENERGY PREDICTED BY IDOCK:   -4.86 KCAL/MOL
REMARK 922        TOTAL FREE ENERGY PREDICTED BY IDOCK:   -9.05 KCAL/MOL
REMARK 923 INTER-LIGAND FREE ENERGY PREDICTED BY IDOCK:   -7.03 KCAL/MOL
REMARK 924 INTRA-LIGAND FREE ENERGY PREDICTED BY IDOCK:   -2.02 KCAL/MOL
REMARK 927      BINDING AFFINITY PREDICTED BY RF-SCORE:    0.00 PKD
ROOT
HETATM    1  C   UNL     1     -11.188   6.295  69.143  1.00  0.00    -0.371 C  
HETATM    2  O   UNL     1     -10.586   7.041  68.080  1.00  0.00    -0.195 OA 
ENDROOT
BRANCH   2   3
HETATM    3  C   UNL     1      -9.313   6.651  67.803  1.00  0.00    -0.119 C  
HETATM    4  O   UNL     1      -8.878   5.529  68.015  1.00  0.00    -0.107 OA 
BRANCH   3   5
HETATM    5  C   UNL     1      -8.533   7.771  67.210  1.00  0.00    -0.118 C  
HETATM    6  C   UNL     1      -8.256   7.806  65.883  1.00  0.00    -0.128 C  
HETATM    7  N   UNL     1      -7.585   8.894  65.354  1.00  0.00    -0.086 NA 
HETATM    8  C   UNL     1      -8.579   6.755  64.846  1.00  0.00     0.140 C  
HETATM    9  C   UNL     1      -6.990   9.897  66.089  1.00  0.00    -0.102 C  
HETATM   10  C   UNL     1      -6.204  10.907  65.280  1.00  0.00     0.115 C  
HETATM   11  C   UNL     1      -7.144   9.925  67.435  1.00  0.00    -0.085 C  
HETATM   12  C   UNL     1      -8.035   8.895  68.145  1.00  0.00    -0.102 C  
BRANCH  11  13
HETATM   13  C   UNL     1      -6.372  10.936  68.202  1.00  0.00    -0.057 C  
HETATM   14  O   UNL     1      -5.184  10.804  68.453  1.00  0.00    -0.038 OA 
BRANCH  13  15
HETATM   15  O   UNL     1      -7.113  12.032  68.491  1.00  0.00    -0.084 OA 
HETATM   16  C   UNL     1      -7.520  14.287  69.410  1.00  0.00     0.026 C  
HETATM   17  C   UNL     1      -5.468  13.763  68.010  1.00  0.00    -0.115 C  
HETATM   18  C   UNL     1      -6.444  13.201  69.057  1.00  0.00    -0.103 C  
HETATM   19  C   UNL     1      -5.717  12.894  70.387  1.00  0.00    -0.171 C  
BRANCH  16  20
HETATM   20  N   UNL     1      -8.356  14.858  68.323  1.00  0.00    -0.142 NA 
HETATM   21  C   UNL     1      -8.051  14.216  67.041  1.00  0.00    -0.017 C  
BRANCH  20  22
HETATM   22  C   UNL     1      -9.792  14.625  68.589  1.00  0.00    -0.224 C  
BRANCH  22  23
HETATM   23  C   UNL     1     -10.158  13.259  69.175  1.00  0.00     0.253 C  
HETATM   24  C   UNL     1     -11.411  12.552  68.598  1.00  0.00    -0.348 C  
HETATM   25  C   UNL     1     -11.755  11.395  69.550  1.00  0.00    -0.417 A  
HETATM   26  C   UNL     1     -11.248  12.207  67.115  1.00  0.00    -0.372 A  
HETATM   27  C   UNL     1     -13.010  11.345  70.176  1.00  0.00     0.199 A  
HETATM   28  C   UNL     1     -10.682  11.010  66.650  1.00  0.00    -0.305 A  
HETATM   29  C   UNL     1     -13.253  10.433  71.209  1.00  0.00    -0.431 A  
HETATM   30  C   UNL     1     -10.443  10.802  65.289  1.00  0.00    -0.282 A  
HETATM   31  C   UNL     1     -10.767  11.783  64.361  1.00  0.00    -0.381 A  
HETATM   32  C   UNL     1     -12.256   9.549  71.619  1.00  0.00    -0.477 A  
HETATM   33  C   UNL     1     -11.024   9.553  70.978  1.00  0.00    -0.424 A  
HETATM   34  C   UNL     1     -11.350  12.970  64.790  1.00  0.00    -0.348 A  
HETATM   35  C   UNL     1     -11.595  13.173  66.152  1.00  0.00    -0.396 A  
HETATM   36  C   UNL     1     -10.776  10.466  69.955  1.00  0.00    -0.331 A  
ENDBRANCH  22  23
ENDBRANCH  20  22
ENDBRANCH  16  20
ENDBRANCH  13  15
ENDBRANCH  11  13
BRANCH  12  37
HETATM   37  C   UNL     1      -7.339   8.331  69.388  1.00  0.00    -0.074 A  
HETATM   38  O   UNL     1      -8.992   8.815  73.158  1.00  0.00    -0.274 OA 
HETATM   39  C   UNL     1      -7.956   8.443  70.650  1.00  0.00    -0.101 A  
HETATM   40  O   UNL     1      -7.284   7.828  74.117  1.00  0.00    -0.117 OA 
HETATM   41  C   UNL     1      -5.430   7.270  70.455  1.00  0.00    -0.024 A  
HETATM   42  C   UNL     1      -7.283   8.022  71.803  1.00  0.00    -0.077 A  
HETATM   43  N   UNL     1      -7.899   8.233  73.120  1.00  0.00    -0.152 N  
HETATM   44  C   UNL     1      -6.021   7.430  71.709  1.00  0.00    -0.036 A  
HETATM   45  C   UNL     1      -6.082   7.721  69.303  1.00  0.00    -0.034 A  
ENDBRANCH  12  37
ENDBRANCH   3   5
ENDBRANCH   2   3
TORSDOF 8
ENDMDL
MODEL      105
REMARK 921   NORMALIZED FREE ENERGY PREDICTED BY IDOCK:   -4.86 KCAL/MOL
REMARK 922        TOTAL FREE ENERGY PREDICTED BY IDOCK:   -9.04 KCAL/MOL
REMARK 923 INTER-LIGAND FREE ENERGY PREDICTED BY IDOCK:   -9.16 KCAL/MOL
REMARK 924 INTRA-LIGAND FREE ENERGY PREDICTED BY IDOCK:    0.11 KCAL/MOL
REMARK 927      BINDING AFFINITY PREDICTED BY RF-SCORE:    0.00 PKD
ROOT
HETATM    1  C   UNL     1     -12.082  16.229  72.686  1.00  0.00    -0.534 C  
HETATM    2  O   UNL     1     -11.830  15.851  71.328  1.00  0.00    -0.382 OA 
ENDROOT
BRANCH   2   3
HETATM    3  C   UNL     1     -12.897  15.258  70.728  1.00  0.00    -0.437 C  
HETATM    4  O   UNL     1     -13.997  15.777  70.616  1.00  0.00    -0.186 OA 
BRANCH   3   5
HETATM    5  C   UNL     1     -12.539  13.902  70.230  1.00  0.00    -0.328 C  
HETATM    6  C   UNL     1     -12.696  12.805  71.010  1.00  0.00    -0.243 C  
HETATM    7  N   UNL     1     -12.415  11.553  70.492  1.00  0.00    -0.305 NA 
HETATM    8  C   UNL     1     -13.143  12.756  72.453  1.00  0.00    -0.292 C  
HETATM    9  C   UNL     1     -11.798  11.311  69.283  1.00  0.00    -0.354 C  
HETATM   10  C   UNL     1     -11.483   9.858  69.002  1.00  0.00     0.003 C  
HETATM   11  C   UNL     1     -11.531  12.344  68.448  1.00  0.00    -0.356 C  
HETATM   12  C   UNL     1     -11.972  13.773  68.799  1.00  0.00    -0.400 C  
BRANCH  11  13
HETATM   13  C   UNL     1     -10.740  12.059  67.222  1.00  0.00    -0.232 C  
HETATM   14  O   UNL     1     -10.924  12.651  66.170  1.00  0.00    -0.271 OA 
BRANCH  13  15
HETATM   15  O   UNL     1      -9.759  11.154  67.448  1.00  0.00    -0.171 OA 
HETATM   16  C   UNL     1      -7.620  10.005  67.000  1.00  0.00    -0.092 C  
HETATM   17  C   UNL     1      -7.819  12.535  66.936  1.00  0.00     0.016 C  
HETATM   18  C   UNL     1      -8.548  11.216  66.633  1.00  0.00    -0.165 C  
HETATM   19  C   UNL     1      -8.833  11.071  65.120  1.00  0.00    -0.116 C  
BRANCH  16  20
HETATM   20  N   UNL     1      -7.099   9.887  68.387  1.00  0.00    -0.072 NA 
HETATM   21  C   UNL     1      -7.997  10.550  69.337  1.00  0.00    -0.140 C  
BRANCH  20  22
HETATM   22  C   UNL     1      -7.014   8.468  68.795  1.00  0.00    -0.063 C  
BRANCH  22  23
HETATM   23  C   UNL     1      -7.533   7.442  67.785  1.00  0.00    -0.101 C  
HETATM   24  C   UNL     1      -7.954   6.055  68.335  1.00  0.00    -0.107 C  
HETATM   25  C   UNL     1      -8.112   5.118  67.126  1.00  0.00    -0.104 A  
HETATM   26  C   UNL     1      -9.140   6.152  69.298  1.00  0.00    -0.129 A  
HETATM   27  C   UNL     1      -7.343   3.949  67.033  1.00  0.00    -0.072 A  
HETATM   28  C   UNL     1     -10.482   6.106  68.891  1.00  0.00    -0.293 A  
HETATM   29  C   UNL     1      -7.308   3.212  65.844  1.00  0.00    -0.072 A  
HETATM   30  C   UNL     1     -11.523   6.325  69.797  1.00  0.00    -0.449 A  
HETATM   31  C   UNL     1     -11.248   6.592  71.132  1.00  0.00    -0.340 A  
HETATM   32  C   UNL     1      -8.054   3.622  64.740  1.00  0.00    -0.090 A  
HETATM   33  C   UNL     1      -8.858   4.750  64.829  1.00  0.00    -0.153 A  
HETATM   34  C   UNL     1      -9.928   6.622  71.569  1.00  0.00    -0.189 A  
HETATM   35  C   UNL     1      -8.888   6.394  70.662  1.00  0.00    -0.144 A  
HETATM   36  C   UNL     1      -8.887   5.490  66.009  1.00  0.00    -0.147 A  
ENDBRANCH  22  23
ENDBRANCH  20  22
ENDBRANCH  16  20
ENDBRANCH  13  15
ENDBRANCH  11  13
BRANCH  12  37
HETATM   37  C   UNL     1     -10.842  14.774  68.544  1.00  0.00    -0.255 A  
HETATM   38  O   UNL     1      -7.021  14.090  69.997  1.00  0.00     0.039 OA 
HETATM   39  C   UNL     1      -9.535  14.486  68.984  1.00  0.00    -0.087 A  
HETATM   40  O   UNL     1      -6.303  16.017  69.234  1.00  0.00    -0.138 OA 
HETATM   41  C   UNL     1     -10.055  16.926  67.731  1.00  0.00    -0.292 A  
HETATM   42  C   UNL     1      -8.518  15.438  68.845  1.00  0.00    -0.205 A  
HETATM   43  N   UNL     1      -7.184  15.160  69.395  1.00  0.00    -0.184 N  
HETATM   44  C   UNL     1      -8.773  16.659  68.215  1.00  0.00    -0.216 A  
HETATM   45  C   UNL     1     -11.083  15.993  67.899  1.00  0.00    -0.307 A  
ENDBRANCH  12  37
ENDBRANCH   3   5
ENDBRANCH   2   3
TORSDOF 8
ENDMDL
MODEL      106
REMARK 921   NORMALIZED FREE ENERGY PREDICTED BY IDOCK:   -4.84 KCAL/MOL
REMARK 922        TOTAL FREE ENERGY PREDICTED BY IDOCK:   -9.01 KCAL/MOL
REMARK 923 INTER-LIGAND FREE ENERGY PREDICTED BY IDOCK:   -8.39 KCAL/MOL
REMARK 924 INTRA-LIGAND FREE ENERGY PREDICTED BY IDOCK:   -0.63 KCAL/MOL
REMARK 927      BINDING AFFINITY PREDICTED BY RF-SCORE:    0.00 PKD
ROOT
HETATM    1  C   UNL     1     -12.292   9.714  71.984  1.00  0.00    -0.298 C  
HETATM    2  O   UNL     1     -12.027   8.749  73.008  1.00  0.00    -0.008 OA 
ENDROOT
BRANCH   2   3
HETATM    3  C   UNL     1     -10.938   7.976  72.749  1.00  0.00    -0.382 C  
HETATM    4  O   UNL     1     -10.177   7.554  73.606  1.00  0.00    -0.338 OA 
BRANCH   3   5
HETATM    5  C   UNL     1     -10.808   7.716  71.289  1.00  0.00    -0.252 C  
HETATM    6  C   UNL     1     -11.722   6.965  70.627  1.00  0.00    -0.367 C  
HETATM    7  N   UNL     1     -11.606   6.799  69.258  1.00  0.00    -0.105 NA 
HETATM    8  C   UNL     1     -12.905   6.228  71.210  1.00  0.00     0.512 C  
HETATM    9  C   UNL     1     -10.521   7.180  68.498  1.00  0.00    -0.204 C  
HETATM   10  C   UNL     1     -10.579   6.769  67.043  1.00  0.00    -0.405 C  
HETATM   11  C   UNL     1      -9.513   7.880  69.073  1.00  0.00    -0.151 C  
HETATM   12  C   UNL     1      -9.597   8.318  70.542  1.00  0.00    -0.180 C  
BRANCH  11  13
HETATM   13  C   UNL     1      -8.300   8.147  68.256  1.00  0.00    -0.126 C  
HETATM   14  O   UNL     1      -7.736   7.275  67.613  1.00  0.00    -0.107 OA 
BRANCH  13  15
HETATM   15  O   UNL     1      -7.973   9.461  68.244  1.00  0.00    -0.094 OA 
HETATM   16  C   UNL     1      -7.783  11.718  67.260  1.00  0.00    -0.158 C  
HETATM   17  C   UNL     1      -9.906  10.341  67.052  1.00  0.00    -0.238 C  
HETATM   18  C   UNL     1      -8.371  10.272  67.096  1.00  0.00    -0.122 C  
HETATM   19  C   UNL     1      -7.799   9.745  65.759  1.00  0.00    -0.110 C  
BRANCH  16  20
HETATM   20  N   UNL     1      -8.199  12.540  68.426  1.00  0.00    -0.158 NA 
HETATM   21  C   UNL     1      -7.037  12.917  69.236  1.00  0.00     0.104 C  
BRANCH  20  22
HETATM   22  C   UNL     1      -8.837  13.797  67.979  1.00  0.00    -0.182 C  
BRANCH  22  23
HETATM   23  C   UNL     1     -10.078  14.239  68.756  1.00  0.00    -0.217 C  
HETATM   24  C   UNL     1      -9.926  15.457  69.704  1.00  0.00    -0.270 C  
HETATM   25  C   UNL     1     -11.177  15.493  70.597  1.00  0.00    -0.373 A  
HETATM   26  C   UNL     1      -9.579  16.740  68.943  1.00  0.00    -0.249 A  
HETATM   27  C   UNL     1     -11.051  15.416  71.993  1.00  0.00    -0.199 A  
HETATM   28  C   UNL     1     -10.537  17.611  68.404  1.00  0.00    -0.318 A  
HETATM   29  C   UNL     1     -12.177  15.219  72.799  1.00  0.00    -0.513 A  
HETATM   30  C   UNL     1     -10.163  18.700  67.612  1.00  0.00    -0.425 A  
HETATM   31  C   UNL     1      -8.823  18.946  67.343  1.00  0.00    -0.293 A  
HETATM   32  C   UNL     1     -13.444  15.114  72.227  1.00  0.00    -0.539 A  
HETATM   33  C   UNL     1     -13.593  15.236  70.852  1.00  0.00    -0.402 A  
HETATM   34  C   UNL     1      -7.850  18.112  67.883  1.00  0.00    -0.247 A  
HETATM   35  C   UNL     1      -8.226  17.027  68.682  1.00  0.00    -0.261 A  
HETATM   36  C   UNL     1     -12.472  15.423  70.046  1.00  0.00    -0.316 A  
ENDBRANCH  22  23
ENDBRANCH  20  22
ENDBRANCH  16  20
ENDBRANCH  13  15
ENDBRANCH  11  13
BRANCH  12  37
HETATM   37  C   UNL     1      -8.282   8.036  71.275  1.00  0.00    -0.119 A  
HETATM   38  O   UNL     1      -7.119   4.155  72.150  1.00  0.00    -0.051 OA 
HETATM   39  C   UNL     1      -7.872   6.707  71.497  1.00  0.00    -0.099 A  
HETATM   40  O   UNL     1      -5.328   4.849  73.209  1.00  0.00    -0.008 OA 
HETATM   41  C   UNL     1      -6.317   8.806  72.481  1.00  0.00    -0.037 A  
HETATM   42  C   UNL     1      -6.724   6.440  72.253  1.00  0.00    -0.068 A  
HETATM   43  N   UNL     1      -6.363   5.048  72.556  1.00  0.00    -0.037 N  
HETATM   44  C   UNL     1      -5.941   7.487  72.744  1.00  0.00    -0.043 A  
HETATM   45  C   UNL     1      -7.481   9.078  71.756  1.00  0.00     0.064 A  
ENDBRANCH  12  37
ENDBRANCH   3   5
ENDBRANCH   2   3
TORSDOF 8
ENDMDL
MODEL      107
REMARK 921   NORMALIZED FREE ENERGY PREDICTED BY IDOCK:   -4.80 KCAL/MOL
REMARK 922        TOTAL FREE ENERGY PREDICTED BY IDOCK:   -8.96 KCAL/MOL
REMARK 923 INTER-LIGAND FREE ENERGY PREDICTED BY IDOCK:   -8.31 KCAL/MOL
REMARK 924 INTRA-LIGAND FREE ENERGY PREDICTED BY IDOCK:   -0.65 KCAL/MOL
REMARK 927      BINDING AFFINITY PREDICTED BY RF-SCORE:    0.00 PKD
ROOT
HETATM    1  C   UNL     1      -9.771   2.304  64.410  1.00  0.00    -0.071 C  
HETATM    2  O   UNL     1      -9.005   3.284  65.120  1.00  0.00    -0.128 OA 
ENDROOT
BRANCH   2   3
HETATM    3  C   UNL     1      -9.675   4.452  65.314  1.00  0.00    -0.192 C  
HETATM    4  O   UNL     1     -10.892   4.546  65.356  1.00  0.00    -0.271 OA 
BRANCH   3   5
HETATM    5  C   UNL     1      -8.726   5.587  65.468  1.00  0.00    -0.154 C  
HETATM    6  C   UNL     1      -7.804   5.866  64.514  1.00  0.00    -0.115 C  
HETATM    7  N   UNL     1      -6.981   6.968  64.660  1.00  0.00    -0.049 NA 
HETATM    8  C   UNL     1      -7.523   5.087  63.250  1.00  0.00    -0.055 C  
HETATM    9  C   UNL     1      -6.873   7.736  65.800  1.00  0.00    -0.053 C  
HETATM   10  C   UNL     1      -5.805   8.808  65.753  1.00  0.00    -0.051 C  
HETATM   11  C   UNL     1      -7.700   7.503  66.847  1.00  0.00    -0.110 C  
HETATM   12  C   UNL     1      -8.807   6.442  66.753  1.00  0.00    -0.124 C  
BRANCH  11  13
HETATM   13  C   UNL     1      -7.457   8.255  68.105  1.00  0.00    -0.097 C  
HETATM   14  O   UNL     1      -6.434   8.127  68.760  1.00  0.00    -0.050 OA 
BRANCH  13  15
HETATM   15  O   UNL     1      -8.446   9.142  68.368  1.00  0.00    -0.126 OA 
HETATM   16  C   UNL     1      -9.381  11.320  69.061  1.00  0.00     0.000 C  
HETATM   17  C   UNL     1      -7.428  11.155  67.447  1.00  0.00    -0.109 C  
HETATM   18  C   UNL     1      -8.083  10.522  68.685  1.00  0.00    -0.127 C  
HETATM   19  C   UNL     1      -7.160  10.632  69.921  1.00  0.00    -0.133 C  
BRANCH  16  20
HETATM   20  N   UNL     1     -10.457  11.469  68.048  1.00  0.00    -0.183 NA 
HETATM   21  C   UNL     1     -11.273  10.253  67.974  1.00  0.00    -0.235 C  
BRANCH  20  22
HETATM   22  C   UNL     1     -11.368  12.576  68.411  1.00  0.00    -0.291 C  
BRANCH  22  23
HETATM   23  C   UNL     1     -10.998  13.960  67.876  1.00  0.00    -0.265 C  
HETATM   24  C   UNL     1     -10.074  14.016  66.631  1.00  0.00    -0.276 C  
HETATM   25  C   UNL     1      -9.586  15.468  66.495  1.00  0.00    -0.295 A  
HETATM   26  C   UNL     1     -10.728  13.385  65.399  1.00  0.00    -0.307 A  
HETATM   27  C   UNL     1      -8.214  15.757  66.524  1.00  0.00    -0.278 A  
HETATM   28  C   UNL     1     -11.543  14.090  64.500  1.00  0.00    -0.403 A  
HETATM   29  C   UNL     1      -7.767  17.079  66.631  1.00  0.00    -0.302 A  
HETATM   30  C   UNL     1     -12.214  13.436  63.464  1.00  0.00    -0.468 A  
HETATM   31  C   UNL     1     -12.085  12.063  63.299  1.00  0.00    -0.509 A  
HETATM   32  C   UNL     1      -8.682  18.129  66.692  1.00  0.00    -0.279 A  
HETATM   33  C   UNL     1     -10.043  17.865  66.616  1.00  0.00    -0.362 A  
HETATM   34  C   UNL     1     -11.266  11.341  64.161  1.00  0.00    -0.222 A  
HETATM   35  C   UNL     1     -10.589  11.999  65.193  1.00  0.00    -0.330 A  
HETATM   36  C   UNL     1     -10.490  16.548  66.519  1.00  0.00    -0.270 A  
ENDBRANCH  22  23
ENDBRANCH  20  22
ENDBRANCH  16  20
ENDBRANCH  13  15
ENDBRANCH  11  13
BRANCH  12  37
HETATM   37  C   UNL     1      -8.840   5.570  68.012  1.00  0.00    -0.105 A  
HETATM   38  O   UNL     1      -5.890   2.749  68.729  1.00  0.00    -0.022 OA 
HETATM   39  C   UNL     1      -7.788   4.670  68.272  1.00  0.00    -0.081 A  
HETATM   40  O   UNL     1      -6.885   2.061  70.559  1.00  0.00    -0.032 OA 
HETATM   41  C   UNL     1      -9.962   4.783  70.020  1.00  0.00    -0.314 A  
HETATM   42  C   UNL     1      -7.859   3.799  69.366  1.00  0.00    -0.051 A  
HETATM   43  N   UNL     1      -6.800   2.801  69.567  1.00  0.00    -0.034 N  
HETATM   44  C   UNL     1      -8.943   3.855  70.245  1.00  0.00    -0.163 A  
HETATM   45  C   UNL     1      -9.913   5.631  68.909  1.00  0.00    -0.222 A  
ENDBRANCH  12  37
ENDBRANCH   3   5
ENDBRANCH   2   3
TORSDOF 8
ENDMDL
MODEL      108
REMARK 921   NORMALIZED FREE ENERGY PREDICTED BY IDOCK:   -4.79 KCAL/MOL
REMARK 922        TOTAL FREE ENERGY PREDICTED BY IDOCK:   -8.94 KCAL/MOL
REMARK 923 INTER-LIGAND FREE ENERGY PREDICTED BY IDOCK:   -8.81 KCAL/MOL
REMARK 924 INTRA-LIGAND FREE ENERGY PREDICTED BY IDOCK:   -0.13 KCAL/MOL
REMARK 927      BINDING AFFINITY PREDICTED BY RF-SCORE:    0.00 PKD
ROOT
HETATM    1  C   UNL     1     -11.114  15.993  70.369  1.00  0.00    -0.364 C  
HETATM    2  O   UNL     1     -10.027  15.073  70.221  1.00  0.00    -0.011 OA 
ENDROOT
BRANCH   2   3
HETATM    3  C   UNL     1      -9.016  15.556  69.449  1.00  0.00    -0.275 C  
HETATM    4  O   UNL     1      -8.873  16.735  69.164  1.00  0.00    -0.220 OA 
BRANCH   3   5
HETATM    5  C   UNL     1      -8.116  14.456  69.007  1.00  0.00    -0.047 C  
HETATM    6  C   UNL     1      -6.812  14.426  69.379  1.00  0.00    -0.132 C  
HETATM    7  N   UNL     1      -6.020  13.354  69.005  1.00  0.00    -0.078 NA 
HETATM    8  C   UNL     1      -6.057  15.464  70.175  1.00  0.00    -0.132 C  
HETATM    9  C   UNL     1      -6.382  12.370  68.110  1.00  0.00    -0.065 C  
HETATM   10  C   UNL     1      -5.290  11.380  67.767  1.00  0.00    -0.046 C  
HETATM   11  C   UNL     1      -7.645  12.342  67.619  1.00  0.00    -0.144 C  
HETATM   12  C   UNL     1      -8.699  13.349  68.102  1.00  0.00    -0.179 C  
BRANCH  11  13
HETATM   13  C   UNL     1      -7.953  11.353  66.553  1.00  0.00    -0.128 C  
HETATM   14  O   UNL     1      -7.754  11.581  65.369  1.00  0.00     0.496 OA 
BRANCH  13  15
HETATM   15  O   UNL     1      -8.379  10.173  67.060  1.00  0.00    -0.124 OA 
HETATM   16  C   UNL     1      -9.241   7.861  66.945  1.00  0.00    -0.155 C  
HETATM   17  C   UNL     1      -7.340   8.656  65.462  1.00  0.00    -0.084 C  
HETATM   18  C   UNL     1      -8.656   9.073  66.138  1.00  0.00    -0.135 C  
HETATM   19  C   UNL     1      -9.735   9.426  65.088  1.00  0.00    -0.106 C  
BRANCH  16  20
HETATM   20  N   UNL     1      -8.410   7.227  68.001  1.00  0.00    -0.123 NA 
HETATM   21  C   UNL     1      -7.576   8.226  68.676  1.00  0.00    -0.099 C  
BRANCH  20  22
HETATM   22  C   UNL     1      -9.265   6.609  69.039  1.00  0.00    -0.131 C  
BRANCH  22  23
HETATM   23  C   UNL     1     -10.224   7.549  69.772  1.00  0.00    -0.211 C  
HETATM   24  C   UNL     1     -10.713   7.110  71.176  1.00  0.00    -0.252 C  
HETATM   25  C   UNL     1     -11.892   8.024  71.550  1.00  0.00    -0.328 A  
HETATM   26  C   UNL     1      -9.564   7.012  72.184  1.00  0.00    -0.160 A  
HETATM   27  C   UNL     1     -13.152   7.473  71.827  1.00  0.00    -0.362 A  
HETATM   28  C   UNL     1      -9.117   8.088  72.965  1.00  0.00    -0.331 A  
HETATM   29  C   UNL     1     -14.279   8.295  71.943  1.00  0.00    -0.535 A  
HETATM   30  C   UNL     1      -7.984   7.975  73.775  1.00  0.00    -0.255 A  
HETATM   31  C   UNL     1      -7.273   6.783  73.826  1.00  0.00    -0.082 A  
HETATM   32  C   UNL     1     -14.160   9.677  71.803  1.00  0.00    -0.050 A  
HETATM   33  C   UNL     1     -12.912  10.244  71.576  1.00  0.00    -0.556 A  
HETATM   34  C   UNL     1      -7.706   5.692  73.080  1.00  0.00    -0.100 A  
HETATM   35  C   UNL     1      -8.846   5.805  72.276  1.00  0.00    -0.135 A  
HETATM   36  C   UNL     1     -11.791   9.426  71.451  1.00  0.00    -0.447 A  
ENDBRANCH  22  23
ENDBRANCH  20  22
ENDBRANCH  16  20
ENDBRANCH  13  15
ENDBRANCH  11  13
BRANCH  12  37
HETATM   37  C   UNL     1      -9.481  13.934  66.922  1.00  0.00    -0.263 A  
HETATM   38  O   UNL     1     -12.604  11.836  65.184  1.00  0.00    -0.078 OA 
HETATM   39  C   UNL     1     -10.585  13.236  66.395  1.00  0.00    -0.288 A  
HETATM   40  O   UNL     1     -12.903  13.389  63.665  1.00  0.00    -0.584 OA 
HETATM   41  C   UNL     1      -9.789  15.638  65.216  1.00  0.00    -0.150 A  
HETATM   42  C   UNL     1     -11.242  13.713  65.255  1.00  0.00    -0.299 A  
HETATM   43  N   UNL     1     -12.330  12.924  64.661  1.00  0.00    -0.431 N  
HETATM   44  C   UNL     1     -10.849  14.917  64.664  1.00  0.00    -0.296 A  
HETATM   45  C   UNL     1      -9.106  15.148  66.333  1.00  0.00    -0.331 A  
ENDBRANCH  12  37
ENDBRANCH   3   5
ENDBRANCH   2   3
TORSDOF 8
ENDMDL
MODEL      109
REMARK 921   NORMALIZED FREE ENERGY PREDICTED BY IDOCK:   -4.78 KCAL/MOL
REMARK 922        TOTAL FREE ENERGY PREDICTED BY IDOCK:   -8.93 KCAL/MOL
REMARK 923 INTER-LIGAND FREE ENERGY PREDICTED BY IDOCK:   -9.37 KCAL/MOL
REMARK 924 INTRA-LIGAND FREE ENERGY PREDICTED BY IDOCK:    0.44 KCAL/MOL
REMARK 927      BINDING AFFINITY PREDICTED BY RF-SCORE:    0.00 PKD
ROOT
HETATM    1  C   UNL     1     -11.483  15.602  71.876  1.00  0.00    -0.414 C  
HETATM    2  O   UNL     1     -10.849  15.141  70.678  1.00  0.00    -0.263 OA 
ENDROOT
BRANCH   2   3
HETATM    3  C   UNL     1     -11.727  14.880  69.672  1.00  0.00    -0.320 C  
HETATM    4  O   UNL     1     -12.528  15.691  69.234  1.00  0.00    -0.149 OA 
BRANCH   3   5
HETATM    5  C   UNL     1     -11.573  13.483  69.184  1.00  0.00    -0.359 C  
HETATM    6  C   UNL     1     -11.959  12.428  69.945  1.00  0.00    -0.299 C  
HETATM    7  N   UNL     1     -11.862  11.146  69.433  1.00  0.00    -0.318 NA 
HETATM    8  C   UNL     1     -12.493  12.458  71.357  1.00  0.00    -0.205 C  
HETATM    9  C   UNL     1     -11.224  10.802  68.261  1.00  0.00    -0.297 C  
HETATM   10  C   UNL     1     -11.141   9.316  67.986  1.00  0.00     0.055 C  
HETATM   11  C   UNL     1     -10.736  11.774  67.452  1.00  0.00    -0.277 C  
HETATM   12  C   UNL     1     -10.951  13.257  67.788  1.00  0.00    -0.278 C  
BRANCH  11  13
HETATM   13  C   UNL     1      -9.933  11.358  66.273  1.00  0.00    -0.224 C  
HETATM   14  O   UNL     1      -9.800  12.065  65.286  1.00  0.00    -0.246 OA 
BRANCH  13  15
HETATM   15  O   UNL     1      -9.312  10.172  66.472  1.00  0.00    -0.156 OA 
HETATM   16  C   UNL     1      -7.765   8.328  65.921  1.00  0.00    -0.087 C  
HETATM   17  C   UNL     1      -7.075  10.762  65.711  1.00  0.00    -0.053 C  
HETATM   18  C   UNL     1      -8.245   9.777  65.556  1.00  0.00    -0.129 C  
HETATM   19  C   UNL     1      -8.713   9.697  64.085  1.00  0.00    -0.238 C  
BRANCH  16  20
HETATM   20  N   UNL     1      -7.180   8.076  67.263  1.00  0.00    -0.086 NA 
HETATM   21  C   UNL     1      -7.490   9.177  68.180  1.00  0.00    -0.083 C  
BRANCH  20  22
HETATM   22  C   UNL     1      -7.749   6.847  67.859  1.00  0.00    -0.112 C  
BRANCH  22  23
HETATM   23  C   UNL     1      -8.495   7.022  69.183  1.00  0.00    -0.129 C  
HETATM   24  C   UNL     1      -9.773   6.169  69.396  1.00  0.00    -0.172 C  
HETATM   25  C   UNL     1     -10.507   6.752  70.615  1.00  0.00    -0.243 A  
HETATM   26  C   UNL     1      -9.467   4.669  69.422  1.00  0.00    -0.239 A  
HETATM   27  C   UNL     1     -11.822   7.226  70.486  1.00  0.00    -0.237 A  
HETATM   28  C   UNL     1      -9.119   3.963  70.584  1.00  0.00    -0.181 A  
HETATM   29  C   UNL     1     -12.417   7.960  71.518  1.00  0.00    -0.341 A  
HETATM   30  C   UNL     1      -8.729   2.622  70.528  1.00  0.00    -0.126 A  
HETATM   31  C   UNL     1      -8.679   1.955  69.311  1.00  0.00    -0.113 A  
HETATM   32  C   UNL     1     -11.717   8.217  72.696  1.00  0.00    -0.419 A  
HETATM   33  C   UNL     1     -10.432   7.714  72.859  1.00  0.00    -0.394 A  
HETATM   34  C   UNL     1      -9.041   2.622  68.146  1.00  0.00    -0.229 A  
HETATM   35  C   UNL     1      -9.439   3.962  68.205  1.00  0.00    -0.219 A  
HETATM   36  C   UNL     1      -9.834   6.990  71.829  1.00  0.00    -0.169 A  
ENDBRANCH  22  23
ENDBRANCH  20  22
ENDBRANCH  16  20
ENDBRANCH  13  15
ENDBRANCH  11  13
BRANCH  12  37
HETATM   37  C   UNL     1      -9.655  14.053  67.610  1.00  0.00    -0.221 A  
HETATM   38  O   UNL     1      -6.311  13.226  69.914  1.00  0.00    -0.121 OA 
HETATM   39  C   UNL     1      -8.509  13.706  68.352  1.00  0.00    -0.147 A  
HETATM   40  O   UNL     1      -5.183  14.873  69.007  1.00  0.00    -0.092 OA 
HETATM   41  C   UNL     1      -8.417  15.902  66.631  1.00  0.00    -0.322 A  
HETATM   42  C   UNL     1      -7.351  14.490  68.270  1.00  0.00    -0.120 A  
HETATM   43  N   UNL     1      -6.198  14.170  69.122  1.00  0.00    -0.096 N  
HETATM   44  C   UNL     1      -7.300  15.587  67.407  1.00  0.00    -0.241 A  
HETATM   45  C   UNL     1      -9.587  15.144  66.735  1.00  0.00    -0.260 A  
ENDBRANCH  12  37
ENDBRANCH   3   5
ENDBRANCH   2   3
TORSDOF 8
ENDMDL
MODEL      110
REMARK 921   NORMALIZED FREE ENERGY PREDICTED BY IDOCK:   -4.76 KCAL/MOL
REMARK 922        TOTAL FREE ENERGY PREDICTED BY IDOCK:   -8.90 KCAL/MOL
REMARK 923 INTER-LIGAND FREE ENERGY PREDICTED BY IDOCK:   -8.87 KCAL/MOL
REMARK 924 INTRA-LIGAND FREE ENERGY PREDICTED BY IDOCK:   -0.04 KCAL/MOL
REMARK 927      BINDING AFFINITY PREDICTED BY RF-SCORE:    0.00 PKD
ROOT
HETATM    1  C   UNL     1      -9.823   3.955  74.554  1.00  0.00    -0.143 C  
HETATM    2  O   UNL     1      -9.082   4.300  73.379  1.00  0.00    -0.103 OA 
ENDROOT
BRANCH   2   3
HETATM    3  C   UNL     1      -9.848   4.866  72.408  1.00  0.00    -0.161 C  
HETATM    4  O   UNL     1     -10.737   5.676  72.620  1.00  0.00    -0.214 OA 
BRANCH   3   5
HETATM    5  C   UNL     1      -9.453   4.366  71.063  1.00  0.00    -0.232 C  
HETATM    6  C   UNL     1      -9.624   3.065  70.720  1.00  0.00    -0.133 C  
HETATM    7  N   UNL     1      -9.306   2.650  69.439  1.00  0.00    -0.132 NA 
HETATM    8  C   UNL     1     -10.124   1.940  71.596  1.00  0.00    -0.141 C  
HETATM    9  C   UNL     1      -8.641   3.406  68.498  1.00  0.00    -0.092 C  
HETATM   10  C   UNL     1      -8.296   2.679  67.217  1.00  0.00    -0.097 C  
HETATM   11  C   UNL     1      -8.357   4.705  68.760  1.00  0.00    -0.085 C  
HETATM   12  C   UNL     1      -8.831   5.366  70.062  1.00  0.00    -0.141 C  
BRANCH  11  13
HETATM   13  C   UNL     1      -7.518   5.443  67.780  1.00  0.00    -0.080 C  
HETATM   14  O   UNL     1      -6.492   4.975  67.310  1.00  0.00    -0.045 OA 
BRANCH  13  15
HETATM   15  O   UNL     1      -8.073   6.624  67.420  1.00  0.00    -0.118 OA 
HETATM   16  C   UNL     1      -9.362   8.147  65.965  1.00  0.00    -0.117 C  
HETATM   17  C   UNL     1     -10.186   5.811  66.521  1.00  0.00    -0.241 C  
HETATM   18  C   UNL     1      -8.936   6.662  66.242  1.00  0.00    -0.152 C  
HETATM   19  C   UNL     1      -8.219   6.193  64.955  1.00  0.00    -0.125 C  
BRANCH  16  20
HETATM   20  N   UNL     1     -10.146   8.879  66.992  1.00  0.00    -0.236 NA 
HETATM   21  C   UNL     1     -10.453   8.007  68.130  1.00  0.00    -0.167 C  
BRANCH  20  22
HETATM   22  C   UNL     1      -9.373  10.022  67.524  1.00  0.00    -0.144 C  
BRANCH  22  23
HETATM   23  C   UNL     1     -10.186  11.143  68.176  1.00  0.00    -0.198 C  
HETATM   24  C   UNL     1     -10.147  12.536  67.496  1.00  0.00    -0.207 C  
HETATM   25  C   UNL     1     -10.746  13.542  68.494  1.00  0.00    -0.270 A  
HETATM   26  C   UNL     1     -10.751  12.509  66.090  1.00  0.00    -0.290 A  
HETATM   27  C   UNL     1      -9.984  14.633  68.939  1.00  0.00    -0.228 A  
HETATM   28  C   UNL     1     -12.114  12.708  65.822  1.00  0.00    -0.484 A  
HETATM   29  C   UNL     1     -10.427  15.420  70.008  1.00  0.00    -0.301 A  
HETATM   30  C   UNL     1     -12.630  12.548  64.533  1.00  0.00    -0.503 A  
HETATM   31  C   UNL     1     -11.796  12.190  63.481  1.00  0.00    -0.597 A  
HETATM   32  C   UNL     1     -11.641  15.141  70.634  1.00  0.00    -0.351 A  
HETATM   33  C   UNL     1     -12.430  14.094  70.175  1.00  0.00    -0.391 A  
HETATM   34  C   UNL     1     -10.438  12.009  63.713  1.00  0.00    -0.469 A  
HETATM   35  C   UNL     1      -9.921  12.177  65.003  1.00  0.00    -0.242 A  
HETATM   36  C   UNL     1     -11.987  13.303  69.117  1.00  0.00    -0.343 A  
ENDBRANCH  22  23
ENDBRANCH  20  22
ENDBRANCH  16  20
ENDBRANCH  13  15
ENDBRANCH  11  13
BRANCH  12  37
HETATM   37  C   UNL     1      -7.706   6.184  70.704  1.00  0.00    -0.105 A  
HETATM   38  O   UNL     1      -7.635  10.316  70.398  1.00  0.00    -0.228 OA 
HETATM   39  C   UNL     1      -7.742   7.591  70.650  1.00  0.00    -0.090 A  
HETATM   40  O   UNL     1      -5.722  10.440  71.463  1.00  0.00    -0.287 OA 
HETATM   41  C   UNL     1      -5.568   6.318  71.853  1.00  0.00    -0.031 A  
HETATM   42  C   UNL     1      -6.669   8.343  71.144  1.00  0.00    -0.052 A  
HETATM   43  N   UNL     1      -6.679   9.805  70.994  1.00  0.00    -0.024 N  
HETATM   44  C   UNL     1      -5.581   7.710  71.751  1.00  0.00    -0.036 A  
HETATM   45  C   UNL     1      -6.619   5.560  71.329  1.00  0.00    -0.040 A  
ENDBRANCH  12  37
ENDBRANCH   3   5
ENDBRANCH   2   3
TORSDOF 8
ENDMDL
MODEL      111
REMARK 921   NORMALIZED FREE ENERGY PREDICTED BY IDOCK:   -4.76 KCAL/MOL
REMARK 922        TOTAL FREE ENERGY PREDICTED BY IDOCK:   -8.90 KCAL/MOL
REMARK 923 INTER-LIGAND FREE ENERGY PREDICTED BY IDOCK:   -8.42 KCAL/MOL
REMARK 924 INTRA-LIGAND FREE ENERGY PREDICTED BY IDOCK:   -0.48 KCAL/MOL
REMARK 927      BINDING AFFINITY PREDICTED BY RF-SCORE:    0.00 PKD
ROOT
HETATM    1  C   UNL     1      -5.552   4.168  68.527  1.00  0.00    -0.013 C  
HETATM    2  O   UNL     1      -6.309   3.514  69.551  1.00  0.00    -0.028 OA 
ENDROOT
BRANCH   2   3
HETATM    3  C   UNL     1      -6.218   4.128  70.761  1.00  0.00    -0.018 C  
HETATM    4  O   UNL     1      -5.168   4.330  71.351  1.00  0.00     0.000 OA 
BRANCH   3   5
HETATM    5  C   UNL     1      -7.565   4.519  71.259  1.00  0.00    -0.075 C  
HETATM    6  C   UNL     1      -8.600   3.642  71.243  1.00  0.00    -0.079 C  
HETATM    7  N   UNL     1      -9.821   4.017  71.774  1.00  0.00    -0.174 NA 
HETATM    8  C   UNL     1      -8.611   2.241  70.677  1.00  0.00    -0.099 C  
HETATM    9  C   UNL     1     -10.160   5.295  72.168  1.00  0.00    -0.190 C  
HETATM   10  C   UNL     1     -11.601   5.474  72.593  1.00  0.00    -0.293 C  
HETATM   11  C   UNL     1      -9.220   6.270  72.162  1.00  0.00    -0.144 C  
HETATM   12  C   UNL     1      -7.763   5.956  71.791  1.00  0.00    -0.101 C  
BRANCH  11  13
HETATM   13  C   UNL     1      -9.659   7.659  72.457  1.00  0.00    -0.176 C  
HETATM   14  O   UNL     1      -9.888   8.049  73.592  1.00  0.00    -0.191 OA 
BRANCH  13  15
HETATM   15  O   UNL     1      -9.679   8.434  71.347  1.00  0.00    -0.169 OA 
HETATM   16  C   UNL     1     -10.667   9.394  69.298  1.00  0.00    -0.211 C  
HETATM   17  C   UNL     1     -11.972   9.246  71.470  1.00  0.00    -0.439 C  
HETATM   18  C   UNL     1     -10.924   8.544  70.591  1.00  0.00    -0.239 C  
HETATM   19  C   UNL     1     -11.445   7.177  70.087  1.00  0.00    -0.245 C  
BRANCH  16  20
HETATM   20  N   UNL     1     -10.220  10.805  69.436  1.00  0.00    -0.198 NA 
HETATM   21  C   UNL     1      -8.883  10.984  68.864  1.00  0.00    -0.113 C  
BRANCH  20  22
HETATM   22  C   UNL     1     -11.127  11.715  68.703  1.00  0.00    -0.234 C  
BRANCH  22  23
HETATM   23  C   UNL     1     -11.872  12.750  69.547  1.00  0.00    -0.379 C  
HETATM   24  C   UNL     1     -11.070  13.989  70.024  1.00  0.00     0.026 C  
HETATM   25  C   UNL     1     -11.916  14.687  71.102  1.00  0.00    -0.405 A  
HETATM   26  C   UNL     1     -10.588  14.850  68.853  1.00  0.00    -0.247 A  
HETATM   27  C   UNL     1     -11.403  14.864  72.396  1.00  0.00     0.036 A  
HETATM   28  C   UNL     1     -11.344  15.886  68.284  1.00  0.00    -0.342 A  
HETATM   29  C   UNL     1     -12.235  15.287  73.439  1.00  0.00    -0.595 A  
HETATM   30  C   UNL     1     -10.907  16.556  67.138  1.00  0.00    -0.142 A  
HETATM   31  C   UNL     1      -9.705  16.208  66.536  1.00  0.00    -0.282 A  
HETATM   32  C   UNL     1     -13.582  15.555  73.201  1.00  0.00    -0.514 A  
HETATM   33  C   UNL     1     -14.095  15.431  71.916  1.00  0.00    -0.636 A  
HETATM   34  C   UNL     1      -8.924  15.201  67.091  1.00  0.00    -0.231 A  
HETATM   35  C   UNL     1      -9.359  14.537  68.243  1.00  0.00    -0.203 A  
HETATM   36  C   UNL     1     -13.271  15.002  70.878  1.00  0.00    -0.453 A  
ENDBRANCH  22  23
ENDBRANCH  20  22
ENDBRANCH  16  20
ENDBRANCH  13  15
ENDBRANCH  11  13
BRANCH  12  37
HETATM   37  C   UNL     1      -7.206   7.001  70.819  1.00  0.00    -0.071 A  
HETATM   38  O   UNL     1      -8.196   6.911  66.795  1.00  0.00    -0.110 OA 
HETATM   39  C   UNL     1      -7.614   6.995  69.471  1.00  0.00    -0.098 A  
HETATM   40  O   UNL     1      -6.884   8.613  66.356  1.00  0.00    -0.069 OA 
HETATM   41  C   UNL     1      -5.725   8.864  70.326  1.00  0.00    -0.033 A  
HETATM   42  C   UNL     1      -7.035   7.881  68.555  1.00  0.00    -0.071 A  
HETATM   43  N   UNL     1      -7.401   7.798  67.134  1.00  0.00    -0.089 N  
HETATM   44  C   UNL     1      -6.092   8.821  68.980  1.00  0.00    -0.043 A  
HETATM   45  C   UNL     1      -6.274   7.958  71.238  1.00  0.00    -0.034 A  
ENDBRANCH  12  37
ENDBRANCH   3   5
ENDBRANCH   2   3
TORSDOF 8
ENDMDL
MODEL      112
REMARK 921   NORMALIZED FREE ENERGY PREDICTED BY IDOCK:   -4.71 KCAL/MOL
REMARK 922        TOTAL FREE ENERGY PREDICTED BY IDOCK:   -8.83 KCAL/MOL
REMARK 923 INTER-LIGAND FREE ENERGY PREDICTED BY IDOCK:   -8.54 KCAL/MOL
REMARK 924 INTRA-LIGAND FREE ENERGY PREDICTED BY IDOCK:   -0.30 KCAL/MOL
REMARK 927      BINDING AFFINITY PREDICTED BY RF-SCORE:    0.00 PKD
ROOT
HETATM    1  C   UNL     1      -5.554   4.017  67.226  1.00  0.00    -0.021 C  
HETATM    2  O   UNL     1      -5.937   5.248  66.605  1.00  0.00    -0.021 OA 
ENDROOT
BRANCH   2   3
HETATM    3  C   UNL     1      -7.095   5.156  65.897  1.00  0.00    -0.068 C  
HETATM    4  O   UNL     1      -7.636   4.102  65.601  1.00  0.00    -0.083 OA 
BRANCH   3   5
HETATM    5  C   UNL     1      -7.607   6.507  65.541  1.00  0.00    -0.088 C  
HETATM    6  C   UNL     1      -7.077   7.208  64.508  1.00  0.00    -0.058 C  
HETATM    7  N   UNL     1      -7.620   8.432  64.163  1.00  0.00    -0.117 NA 
HETATM    8  C   UNL     1      -5.898   6.824  63.644  1.00  0.00    -0.031 C  
HETATM    9  C   UNL     1      -8.561   9.122  64.899  1.00  0.00    -0.184 C  
HETATM   10  C   UNL     1      -8.898  10.502  64.377  1.00  0.00    -0.210 C  
HETATM   11  C   UNL     1      -9.111   8.544  65.994  1.00  0.00    -0.246 C  
HETATM   12  C   UNL     1      -8.756   7.102  66.384  1.00  0.00    -0.146 C  
BRANCH  11  13
HETATM   13  C   UNL     1     -10.012   9.373  66.837  1.00  0.00    -0.229 C  
HETATM   14  O   UNL     1     -11.027   8.927  67.349  1.00  0.00    -0.125 OA 
BRANCH  13  15
HETATM   15  O   UNL     1      -9.523  10.621  67.031  1.00  0.00    -0.161 OA 
HETATM   16  C   UNL     1      -9.152  12.715  68.286  1.00  0.00    -0.181 C  
HETATM   17  C   UNL     1      -8.892  10.438  69.377  1.00  0.00    -0.138 C  
HETATM   18  C   UNL     1      -9.694  11.244  68.342  1.00  0.00    -0.194 C  
HETATM   19  C   UNL     1     -11.177  11.367  68.761  1.00  0.00    -0.308 C  
BRANCH  16  20
HETATM   20  N   UNL     1      -7.718  12.947  67.976  1.00  0.00    -0.129 NA 
HETATM   21  C   UNL     1      -7.155  11.810  67.242  1.00  0.00    -0.140 C  
BRANCH  20  22
HETATM   22  C   UNL     1      -7.554  14.138  67.114  1.00  0.00     0.053 C  
BRANCH  22  23
HETATM   23  C   UNL     1      -8.325  15.390  67.538  1.00  0.00    -0.190 C  
HETATM   24  C   UNL     1      -9.296  16.011  66.500  1.00  0.00    -0.296 C  
HETATM   25  C   UNL     1      -9.682  17.405  67.020  1.00  0.00    -0.276 A  
HETATM   26  C   UNL     1     -10.442  15.061  66.142  1.00  0.00    -0.313 A  
HETATM   27  C   UNL     1      -9.412  18.546  66.249  1.00  0.00    -0.256 A  
HETATM   28  C   UNL     1     -11.654  14.999  66.847  1.00  0.00    -0.229 A  
HETATM   29  C   UNL     1      -9.547  19.825  66.800  1.00  0.00    -0.501 A  
HETATM   30  C   UNL     1     -12.615  14.028  66.554  1.00  0.00    -0.214 A  
HETATM   31  C   UNL     1     -12.389  13.097  65.548  1.00  0.00    -0.529 A  
HETATM   32  C   UNL     1      -9.968  19.984  68.119  1.00  0.00    -0.533 A  
HETATM   33  C   UNL     1     -10.285  18.867  68.882  1.00  0.00    -0.267 A  
HETATM   34  C   UNL     1     -11.207  13.149  64.817  1.00  0.00    -0.347 A  
HETATM   35  C   UNL     1     -10.250  14.127  65.106  1.00  0.00    -0.411 A  
HETATM   36  C   UNL     1     -10.143  17.592  68.338  1.00  0.00    -0.358 A  
ENDBRANCH  22  23
ENDBRANCH  20  22
ENDBRANCH  16  20
ENDBRANCH  13  15
ENDBRANCH  11  13
BRANCH  12  37
HETATM   37  C   UNL     1      -8.472   6.994  67.885  1.00  0.00    -0.124 A  
HETATM   38  O   UNL     1     -11.303   5.438  70.482  1.00  0.00     0.077 OA 
HETATM   39  C   UNL     1      -9.419   6.394  68.738  1.00  0.00    -0.127 A  
HETATM   40  O   UNL     1     -10.028   5.824  72.225  1.00  0.00    -0.168 OA 
HETATM   41  C   UNL     1      -7.075   7.455  69.821  1.00  0.00    -0.068 A  
HETATM   42  C   UNL     1      -9.214   6.382  70.123  1.00  0.00    -0.158 A  
HETATM   43  N   UNL     1     -10.255   5.839  71.006  1.00  0.00    -0.207 N  
HETATM   44  C   UNL     1      -8.040   6.908  70.668  1.00  0.00    -0.118 A  
HETATM   45  C   UNL     1      -7.292   7.503  68.440  1.00  0.00    -0.099 A  
ENDBRANCH  12  37
ENDBRANCH   3   5
ENDBRANCH   2   3
TORSDOF 8
ENDMDL
MODEL      113
REMARK 921   NORMALIZED FREE ENERGY PREDICTED BY IDOCK:   -4.71 KCAL/MOL
REMARK 922        TOTAL FREE ENERGY PREDICTED BY IDOCK:   -8.83 KCAL/MOL
REMARK 923 INTER-LIGAND FREE ENERGY PREDICTED BY IDOCK:   -7.11 KCAL/MOL
REMARK 924 INTRA-LIGAND FREE ENERGY PREDICTED BY IDOCK:   -1.72 KCAL/MOL
REMARK 927      BINDING AFFINITY PREDICTED BY RF-SCORE:    0.00 PKD
ROOT
HETATM    1  C   UNL     1      -7.856   3.433  70.190  1.00  0.00    -0.046 C  
HETATM    2  O   UNL     1      -8.675   4.220  71.062  1.00  0.00    -0.089 OA 
ENDROOT
BRANCH   2   3
HETATM    3  C   UNL     1      -8.042   5.325  71.541  1.00  0.00    -0.116 C  
HETATM    4  O   UNL     1      -6.955   5.307  72.096  1.00  0.00    -0.076 OA 
BRANCH   3   5
HETATM    5  C   UNL     1      -8.853   6.548  71.293  1.00  0.00    -0.137 C  
HETATM    6  C   UNL     1      -9.970   6.807  72.017  1.00  0.00    -0.171 C  
HETATM    7  N   UNL     1     -10.663   7.986  71.805  1.00  0.00    -0.230 NA 
HETATM    8  C   UNL     1     -10.609   5.932  73.071  1.00  0.00    -0.270 C  
HETATM    9  C   UNL     1     -10.433   8.871  70.773  1.00  0.00    -0.227 C  
HETATM   10  C   UNL     1     -11.413  10.020  70.683  1.00  0.00    -0.425 C  
HETATM   11  C   UNL     1      -9.381   8.673  69.942  1.00  0.00    -0.160 C  
HETATM   12  C   UNL     1      -8.398   7.517  70.179  1.00  0.00    -0.134 C  
BRANCH  11  13
HETATM   13  C   UNL     1      -9.252   9.567  68.762  1.00  0.00    -0.140 C  
HETATM   14  O   UNL     1     -10.074   9.585  67.859  1.00  0.00    -0.171 OA 
BRANCH  13  15
HETATM   15  O   UNL     1      -8.187  10.397  68.865  1.00  0.00    -0.114 OA 
HETATM   16  C   UNL     1      -6.212  11.626  68.037  1.00  0.00    -0.047 C  
HETATM   17  C   UNL     1      -8.396  11.575  66.743  1.00  0.00    -0.165 C  
HETATM   18  C   UNL     1      -7.460  10.758  67.650  1.00  0.00    -0.095 C  
HETATM   19  C   UNL     1      -6.891   9.530  66.901  1.00  0.00    -0.080 C  
BRANCH  16  20
HETATM   20  N   UNL     1      -6.421  12.931  68.717  1.00  0.00    -0.079 NA 
HETATM   21  C   UNL     1      -5.646  12.998  69.960  1.00  0.00    -0.123 C  
BRANCH  20  22
HETATM   22  C   UNL     1      -5.959  14.046  67.863  1.00  0.00    -0.138 C  
BRANCH  22  23
HETATM   23  C   UNL     1      -6.078  15.450  68.460  1.00  0.00    -0.093 C  
HETATM   24  C   UNL     1      -6.848  16.511  67.632  1.00  0.00    -0.161 C  
HETATM   25  C   UNL     1      -6.548  17.881  68.263  1.00  0.00    -0.199 A  
HETATM   26  C   UNL     1      -8.322  16.139  67.447  1.00  0.00    -0.191 A  
HETATM   27  C   UNL     1      -5.950  18.894  67.498  1.00  0.00    -0.182 A  
HETATM   28  C   UNL     1      -9.335  16.492  68.351  1.00  0.00    -0.221 A  
HETATM   29  C   UNL     1      -5.466  20.055  68.110  1.00  0.00    -0.218 A  
HETATM   30  C   UNL     1     -10.642  16.019  68.197  1.00  0.00    -0.286 A  
HETATM   31  C   UNL     1     -10.966  15.187  67.133  1.00  0.00    -0.326 A  
HETATM   32  C   UNL     1      -5.589  20.229  69.488  1.00  0.00    -0.337 A  
HETATM   33  C   UNL     1      -6.221  19.258  70.254  1.00  0.00    -0.148 A  
HETATM   34  C   UNL     1      -9.988  14.840  66.208  1.00  0.00    -0.308 A  
HETATM   35  C   UNL     1      -8.683  15.320  66.361  1.00  0.00    -0.265 A  
HETATM   36  C   UNL     1      -6.695  18.096  69.647  1.00  0.00    -0.015 A  
ENDBRANCH  22  23
ENDBRANCH  20  22
ENDBRANCH  16  20
ENDBRANCH  13  15
ENDBRANCH  11  13
BRANCH  12  37
HETATM   37  C   UNL     1      -8.096   6.777  68.873  1.00  0.00    -0.120 A  
HETATM   38  O   UNL     1     -11.149   5.142  66.595  1.00  0.00     0.003 OA 
HETATM   39  C   UNL     1      -9.154   6.294  68.078  1.00  0.00    -0.112 A  
HETATM   40  O   UNL     1      -9.727   4.300  65.153  1.00  0.00    -0.174 OA 
HETATM   41  C   UNL     1      -6.519   5.812  67.295  1.00  0.00    -0.044 A  
HETATM   42  C   UNL     1      -8.887   5.530  66.935  1.00  0.00    -0.112 A  
HETATM   43  N   UNL     1     -10.001   4.953  66.171  1.00  0.00    -0.208 N  
HETATM   44  C   UNL     1      -7.569   5.290  66.538  1.00  0.00    -0.088 A  
HETATM   45  C   UNL     1      -6.780   6.546  68.456  1.00  0.00    -0.068 A  
ENDBRANCH  12  37
ENDBRANCH   3   5
ENDBRANCH   2   3
TORSDOF 8
ENDMDL
MODEL      114
REMARK 921   NORMALIZED FREE ENERGY PREDICTED BY IDOCK:   -4.71 KCAL/MOL
REMARK 922        TOTAL FREE ENERGY PREDICTED BY IDOCK:   -8.83 KCAL/MOL
REMARK 923 INTER-LIGAND FREE ENERGY PREDICTED BY IDOCK:   -9.27 KCAL/MOL
REMARK 924 INTRA-LIGAND FREE ENERGY PREDICTED BY IDOCK:    0.45 KCAL/MOL
REMARK 927      BINDING AFFINITY PREDICTED BY RF-SCORE:    0.00 PKD
ROOT
HETATM    1  C   UNL     1      -7.822   6.917  73.173  1.00  0.00    -0.094 C  
HETATM    2  O   UNL     1      -7.404   8.023  72.365  1.00  0.00    -0.084 OA 
ENDROOT
BRANCH   2   3
HETATM    3  C   UNL     1      -6.650   7.652  71.296  1.00  0.00    -0.041 C  
HETATM    4  O   UNL     1      -6.096   6.569  71.189  1.00  0.00    -0.037 OA 
BRANCH   3   5
HETATM    5  C   UNL     1      -6.598   8.741  70.282  1.00  0.00    -0.040 C  
HETATM    6  C   UNL     1      -5.907   9.884  70.516  1.00  0.00    -0.071 C  
HETATM    7  N   UNL     1      -5.826  10.847  69.527  1.00  0.00    -0.041 NA 
HETATM    8  C   UNL     1      -5.190  10.283  71.785  1.00  0.00    -0.027 C  
HETATM    9  C   UNL     1      -6.548  10.846  68.352  1.00  0.00    -0.058 C  
HETATM   10  C   UNL     1      -6.378  12.080  67.493  1.00  0.00    -0.118 C  
HETATM   11  C   UNL     1      -7.327   9.781  68.045  1.00  0.00    -0.081 C  
HETATM   12  C   UNL     1      -7.360   8.543  68.953  1.00  0.00    -0.086 C  
BRANCH  11  13
HETATM   13  C   UNL     1      -8.197   9.881  66.844  1.00  0.00    -0.120 C  
HETATM   14  O   UNL     1      -8.411   8.930  66.107  1.00  0.00    -0.116 OA 
BRANCH  13  15
HETATM   15  O   UNL     1      -8.775  11.100  66.733  1.00  0.00    -0.147 OA 
HETATM   16  C   UNL     1     -10.190  12.824  65.674  1.00  0.00    -0.279 C  
HETATM   17  C   UNL     1     -10.975  10.424  65.935  1.00  0.00     0.215 C  
HETATM   18  C   UNL     1      -9.753  11.317  65.669  1.00  0.00    -0.230 C  
HETATM   19  C   UNL     1      -9.173  11.062  64.258  1.00  0.00    -0.171 C  
BRANCH  16  20
HETATM   20  N   UNL     1     -10.860  13.379  66.879  1.00  0.00    -0.276 NA 
HETATM   21  C   UNL     1     -11.759  12.388  67.476  1.00  0.00    -0.357 C  
BRANCH  20  22
HETATM   22  C   UNL     1      -9.865  13.735  67.913  1.00  0.00    -0.232 C  
BRANCH  22  23
HETATM   23  C   UNL     1      -9.572  15.227  68.085  1.00  0.00    -0.204 C  
HETATM   24  C   UNL     1     -10.780  16.160  68.364  1.00  0.00    -0.298 C  
HETATM   25  C   UNL     1     -10.290  17.604  68.165  1.00  0.00    -0.386 A  
HETATM   26  C   UNL     1     -11.464  15.835  69.694  1.00  0.00    -0.348 A  
HETATM   27  C   UNL     1     -10.903  18.432  67.214  1.00  0.00    -0.296 A  
HETATM   28  C   UNL     1     -11.085  16.393  70.924  1.00  0.00    -0.073 A  
HETATM   29  C   UNL     1     -10.328  19.659  66.863  1.00  0.00    -0.583 A  
HETATM   30  C   UNL     1     -11.661  15.967  72.123  1.00  0.00    -0.586 A  
HETATM   31  C   UNL     1     -12.634  14.975  72.121  1.00  0.00    -0.405 A  
HETATM   32  C   UNL     1      -9.147  20.083  67.470  1.00  0.00    -0.457 A  
HETATM   33  C   UNL     1      -8.552  19.297  68.449  1.00  0.00    -0.389 A  
HETATM   34  C   UNL     1     -13.046  14.419  70.916  1.00  0.00    -0.390 A  
HETATM   35  C   UNL     1     -12.473  14.853  69.715  1.00  0.00    -0.222 A  
HETATM   36  C   UNL     1      -9.118  18.071  68.792  1.00  0.00    -0.224 A  
ENDBRANCH  22  23
ENDBRANCH  20  22
ENDBRANCH  16  20
ENDBRANCH  13  15
ENDBRANCH  11  13
BRANCH  12  37
HETATM   37  C   UNL     1      -8.798   8.072  69.189  1.00  0.00    -0.145 A  
HETATM   38  O   UNL     1     -11.432  10.327  71.459  1.00  0.00    -0.215 OA 
HETATM   39  C   UNL     1      -9.697   8.890  69.901  1.00  0.00    -0.185 A  
HETATM   40  O   UNL     1     -13.011   8.816  71.267  1.00  0.00    -0.290 OA 
HETATM   41  C   UNL     1     -10.535   6.382  69.007  1.00  0.00    -0.267 A  
HETATM   42  C   UNL     1     -10.982   8.425  70.208  1.00  0.00    -0.232 A  
HETATM   43  N   UNL     1     -11.873   9.250  71.034  1.00  0.00    -0.295 N  
HETATM   44  C   UNL     1     -11.406   7.172  69.759  1.00  0.00    -0.158 A  
HETATM   45  C   UNL     1      -9.239   6.826  68.728  1.00  0.00    -0.130 A  
ENDBRANCH  12  37
ENDBRANCH   3   5
ENDBRANCH   2   3
TORSDOF 8
ENDMDL
MODEL      115
REMARK 921   NORMALIZED FREE ENERGY PREDICTED BY IDOCK:   -4.71 KCAL/MOL
REMARK 922        TOTAL FREE ENERGY PREDICTED BY IDOCK:   -8.82 KCAL/MOL
REMARK 923 INTER-LIGAND FREE ENERGY PREDICTED BY IDOCK:   -6.88 KCAL/MOL
REMARK 924 INTRA-LIGAND FREE ENERGY PREDICTED BY IDOCK:   -1.94 KCAL/MOL
REMARK 927      BINDING AFFINITY PREDICTED BY RF-SCORE:    0.00 PKD
ROOT
HETATM    1  C   UNL     1     -12.105  13.614  70.133  1.00  0.00    -0.361 C  
HETATM    2  O   UNL     1     -11.783  12.938  68.913  1.00  0.00    -0.289 OA 
ENDROOT
BRANCH   2   3
HETATM    3  C   UNL     1     -10.982  13.668  68.090  1.00  0.00    -0.253 C  
HETATM    4  O   UNL     1     -10.556  14.781  68.358  1.00  0.00    -0.233 OA 
BRANCH   3   5
HETATM    5  C   UNL     1     -10.699  12.926  66.832  1.00  0.00    -0.272 C  
HETATM    6  C   UNL     1     -11.483  13.080  65.736  1.00  0.00    -0.332 C  
HETATM    7  N   UNL     1     -11.152  12.425  64.563  1.00  0.00    -0.300 NA 
HETATM    8  C   UNL     1     -12.746  13.899  65.615  1.00  0.00    -0.534 C  
HETATM    9  C   UNL     1     -10.179  11.456  64.438  1.00  0.00    -0.308 C  
HETATM   10  C   UNL     1     -10.100  10.797  63.078  1.00  0.00    -0.207 C  
HETATM   11  C   UNL     1      -9.379  11.170  65.493  1.00  0.00    -0.247 C  
HETATM   12  C   UNL     1      -9.492  11.962  66.804  1.00  0.00    -0.207 C  
BRANCH  11  13
HETATM   13  C   UNL     1      -8.441  10.024  65.362  1.00  0.00    -0.151 C  
HETATM   14  O   UNL     1      -7.259  10.171  65.091  1.00  0.00    -0.134 OA 
BRANCH  13  15
HETATM   15  O   UNL     1      -9.032   8.845  65.666  1.00  0.00    -0.182 OA 
HETATM   16  C   UNL     1      -9.170   6.386  65.850  1.00  0.00    -0.003 C  
HETATM   17  C   UNL     1      -7.114   7.671  66.603  1.00  0.00    -0.079 C  
HETATM   18  C   UNL     1      -8.243   7.619  65.561  1.00  0.00    -0.135 C  
HETATM   19  C   UNL     1      -7.680   7.386  64.140  1.00  0.00    -0.121 C  
BRANCH  16  20
HETATM   20  N   UNL     1      -9.822   6.266  67.180  1.00  0.00    -0.133 NA 
HETATM   21  C   UNL     1     -11.244   6.611  67.094  1.00  0.00    -0.234 C  
BRANCH  20  22
HETATM   22  C   UNL     1      -9.745   4.875  67.677  1.00  0.00    -0.159 C  
BRANCH  22  23
HETATM   23  C   UNL     1      -8.598   4.563  68.639  1.00  0.00    -0.101 C  
HETATM   24  C   UNL     1      -7.757   3.292  68.353  1.00  0.00    -0.055 C  
HETATM   25  C   UNL     1      -6.911   3.018  69.608  1.00  0.00    -0.041 A  
HETATM   26  C   UNL     1      -7.011   3.382  67.019  1.00  0.00    -0.054 A  
HETATM   27  C   UNL     1      -7.038   1.800  70.292  1.00  0.00    -0.033 A  
HETATM   28  C   UNL     1      -5.732   3.941  66.876  1.00  0.00    -0.022 A  
HETATM   29  C   UNL     1      -6.451   1.626  71.550  1.00  0.00    -0.018 A  
HETATM   30  C   UNL     1      -5.152   4.110  65.616  1.00  0.00    -0.009 A  
HETATM   31  C   UNL     1      -5.835   3.722  64.470  1.00  0.00    -0.014 A  
HETATM   32  C   UNL     1      -5.718   2.658  72.134  1.00  0.00    -0.008 A  
HETATM   33  C   UNL     1      -5.543   3.854  71.451  1.00  0.00    -0.008 A  
HETATM   34  C   UNL     1      -7.094   3.144  64.583  1.00  0.00    -0.057 A  
HETATM   35  C   UNL     1      -7.670   2.968  65.846  1.00  0.00    -0.078 A  
HETATM   36  C   UNL     1      -6.133   4.032  70.201  1.00  0.00    -0.019 A  
ENDBRANCH  22  23
ENDBRANCH  20  22
ENDBRANCH  16  20
ENDBRANCH  13  15
ENDBRANCH  11  13
BRANCH  12  37
HETATM   37  C   UNL     1      -9.487  11.024  68.014  1.00  0.00    -0.169 A  
HETATM   38  O   UNL     1      -6.010  10.336  70.162  1.00  0.00    -0.056 OA 
HETATM   39  C   UNL     1      -8.311  10.863  68.774  1.00  0.00    -0.151 A  
HETATM   40  O   UNL     1      -7.014   8.892  71.473  1.00  0.00    -0.095 OA 
HETATM   41  C   UNL     1     -10.590   9.397  69.444  1.00  0.00    -0.235 A  
HETATM   42  C   UNL     1      -8.269   9.933  69.819  1.00  0.00    -0.180 A  
HETATM   43  N   UNL     1      -7.008   9.708  70.539  1.00  0.00    -0.122 N  
HETATM   44  C   UNL     1      -9.409   9.200  70.161  1.00  0.00    -0.235 A  
HETATM   45  C   UNL     1     -10.628  10.298  68.376  1.00  0.00    -0.247 A  
ENDBRANCH  12  37
ENDBRANCH   3   5
ENDBRANCH   2   3
TORSDOF 8
ENDMDL
MODEL      116
REMARK 921   NORMALIZED FREE ENERGY PREDICTED BY IDOCK:   -4.70 KCAL/MOL
REMARK 922        TOTAL FREE ENERGY PREDICTED BY IDOCK:   -8.81 KCAL/MOL
REMARK 923 INTER-LIGAND FREE ENERGY PREDICTED BY IDOCK:   -9.32 KCAL/MOL
REMARK 924 INTRA-LIGAND FREE ENERGY PREDICTED BY IDOCK:    0.51 KCAL/MOL
REMARK 927      BINDING AFFINITY PREDICTED BY RF-SCORE:    0.00 PKD
ROOT
HETATM    1  C   UNL     1     -10.049   5.130  66.353  1.00  0.00    -0.239 C  
HETATM    2  O   UNL     1     -10.070   5.212  67.782  1.00  0.00    -0.163 OA 
ENDROOT
BRANCH   2   3
HETATM    3  C   UNL     1      -8.841   5.422  68.326  1.00  0.00    -0.104 C  
HETATM    4  O   UNL     1      -8.283   4.643  69.083  1.00  0.00    -0.079 OA 
BRANCH   3   5
HETATM    5  C   UNL     1      -8.277   6.722  67.872  1.00  0.00    -0.117 C  
HETATM    6  C   UNL     1      -7.134   6.775  67.145  1.00  0.00    -0.079 C  
HETATM    7  N   UNL     1      -6.673   7.995  66.683  1.00  0.00    -0.062 NA 
HETATM    8  C   UNL     1      -6.233   5.624  66.761  1.00  0.00    -0.034 C  
HETATM    9  C   UNL     1      -7.173   9.226  67.051  1.00  0.00    -0.087 C  
HETATM   10  C   UNL     1      -6.412  10.416  66.509  1.00  0.00    -0.089 C  
HETATM   11  C   UNL     1      -8.277   9.295  67.834  1.00  0.00    -0.115 C  
HETATM   12  C   UNL     1      -9.021   8.020  68.258  1.00  0.00    -0.132 C  
BRANCH  11  13
HETATM   13  C   UNL     1      -8.699  10.634  68.323  1.00  0.00    -0.135 C  
HETATM   14  O   UNL     1      -8.445  11.032  69.449  1.00  0.00    -0.008 OA 
BRANCH  13  15
HETATM   15  O   UNL     1      -9.297  11.365  67.353  1.00  0.00    -0.165 OA 
HETATM   16  C   UNL     1     -11.041  11.874  65.680  1.00  0.00    -0.310 C  
HETATM   17  C   UNL     1     -11.623  11.080  68.020  1.00  0.00    -0.326 C  
HETATM   18  C   UNL     1     -10.611  10.946  66.870  1.00  0.00    -0.261 C  
HETATM   19  C   UNL     1     -10.611   9.511  66.293  1.00  0.00    -0.018 C  
BRANCH  16  20
HETATM   20  N   UNL     1     -11.209  13.330  65.922  1.00  0.00    -0.288 NA 
HETATM   21  C   UNL     1     -12.629  13.679  66.026  1.00  0.00    -0.386 C  
BRANCH  20  22
HETATM   22  C   UNL     1     -10.575  13.725  67.199  1.00  0.00    -0.277 C  
BRANCH  22  23
HETATM   23  C   UNL     1     -11.519  14.215  68.299  1.00  0.00    -0.335 C  
HETATM   24  C   UNL     1     -10.872  14.821  69.571  1.00  0.00    -0.268 C  
HETATM   25  C   UNL     1     -11.978  14.922  70.636  1.00  0.00    -0.363 A  
HETATM   26  C   UNL     1     -10.084  16.097  69.266  1.00  0.00    -0.260 A  
HETATM   27  C   UNL     1     -11.840  14.256  71.863  1.00  0.00     0.122 A  
HETATM   28  C   UNL     1     -10.649  17.381  69.260  1.00  0.00    -0.084 A  
HETATM   29  C   UNL     1     -12.924  14.151  72.741  1.00  0.00    -0.516 A  
HETATM   30  C   UNL     1      -9.912  18.496  68.852  1.00  0.00    -0.383 A  
HETATM   31  C   UNL     1      -8.592  18.354  68.443  1.00  0.00    -0.345 A  
HETATM   32  C   UNL     1     -14.153  14.723  72.416  1.00  0.00    -0.548 A  
HETATM   33  C   UNL     1     -14.294  15.427  71.227  1.00  0.00    -0.402 A  
HETATM   34  C   UNL     1      -7.998  17.097  68.460  1.00  0.00    -0.259 A  
HETATM   35  C   UNL     1      -8.736  15.983  68.877  1.00  0.00    -0.236 A  
HETATM   36  C   UNL     1     -13.218  15.525  70.346  1.00  0.00    -0.051 A  
ENDBRANCH  22  23
ENDBRANCH  20  22
ENDBRANCH  16  20
ENDBRANCH  13  15
ENDBRANCH  11  13
BRANCH  12  37
HETATM   37  C   UNL     1      -9.364   8.055  69.750  1.00  0.00    -0.159 A  
HETATM   38  O   UNL     1     -13.205   8.938  71.033  1.00  0.00    -0.138 OA 
HETATM   39  C   UNL     1     -10.692   8.284  70.161  1.00  0.00    -0.239 A  
HETATM   40  O   UNL     1     -12.605   8.841  73.141  1.00  0.00    -0.087 OA 
HETATM   41  C   UNL     1      -8.692   7.984  72.085  1.00  0.00    -0.212 A  
HETATM   42  C   UNL     1     -10.996   8.418  71.521  1.00  0.00    -0.262 A  
HETATM   43  N   UNL     1     -12.368   8.753  71.927  1.00  0.00    -0.337 N  
HETATM   44  C   UNL     1      -9.999   8.264  72.487  1.00  0.00    -0.373 A  
HETATM   45  C   UNL     1      -8.376   7.885  70.727  1.00  0.00    -0.115 A  
ENDBRANCH  12  37
ENDBRANCH   3   5
ENDBRANCH   2   3
TORSDOF 8
ENDMDL
MODEL      117
REMARK 921   NORMALIZED FREE ENERGY PREDICTED BY IDOCK:   -4.70 KCAL/MOL
REMARK 922        TOTAL FREE ENERGY PREDICTED BY IDOCK:   -8.81 KCAL/MOL
REMARK 923 INTER-LIGAND FREE ENERGY PREDICTED BY IDOCK:   -8.57 KCAL/MOL
REMARK 924 INTRA-LIGAND FREE ENERGY PREDICTED BY IDOCK:   -0.24 KCAL/MOL
REMARK 927      BINDING AFFINITY PREDICTED BY RF-SCORE:    0.00 PKD
ROOT
HETATM    1  C   UNL     1      -7.796   5.527  72.796  1.00  0.00    -0.099 C  
HETATM    2  O   UNL     1      -7.791   5.263  71.389  1.00  0.00    -0.102 OA 
ENDROOT
BRANCH   2   3
HETATM    3  C   UNL     1      -9.037   5.228  70.844  1.00  0.00    -0.138 C  
HETATM    4  O   UNL     1      -9.663   4.202  70.628  1.00  0.00    -0.183 OA 
BRANCH   3   5
HETATM    5  C   UNL     1      -9.525   6.603  70.553  1.00  0.00    -0.171 C  
HETATM    6  C   UNL     1     -10.702   7.051  71.056  1.00  0.00    -0.233 C  
HETATM    7  N   UNL     1     -11.094   8.356  70.819  1.00  0.00    -0.254 NA 
HETATM    8  C   UNL     1     -11.710   6.274  71.871  1.00  0.00    -0.370 C  
HETATM    9  C   UNL     1     -10.480   9.226  69.943  1.00  0.00    -0.227 C  
HETATM   10  C   UNL     1     -11.179  10.556  69.764  1.00  0.00    -0.361 C  
HETATM   11  C   UNL     1      -9.330   8.858  69.328  1.00  0.00    -0.149 C  
HETATM   12  C   UNL     1      -8.662   7.513  69.650  1.00  0.00    -0.137 C  
BRANCH  11  13
HETATM   13  C   UNL     1      -8.779   9.764  68.288  1.00  0.00    -0.119 C  
HETATM   14  O   UNL     1      -8.897   9.541  67.093  1.00  0.00    -0.130 OA 
BRANCH  13  15
HETATM   15  O   UNL     1      -8.231  10.881  68.823  1.00  0.00    -0.136 OA 
HETATM   16  C   UNL     1      -6.381  12.344  69.553  1.00  0.00    -0.116 C  
HETATM   17  C   UNL     1      -6.348  11.166  67.304  1.00  0.00    -0.074 C  
HETATM   18  C   UNL     1      -6.779  11.041  68.775  1.00  0.00    -0.065 C  
HETATM   19  C   UNL     1      -6.023   9.893  69.482  1.00  0.00    -0.041 C  
BRANCH  16  20
HETATM   20  N   UNL     1      -6.890  13.656  69.076  1.00  0.00    -0.110 NA 
HETATM   21  C   UNL     1      -6.457  13.913  67.700  1.00  0.00    -0.147 C  
BRANCH  20  22
HETATM   22  C   UNL     1      -8.369  13.673  69.072  1.00  0.00     0.274 C  
BRANCH  22  23
HETATM   23  C   UNL     1      -9.042  13.550  67.703  1.00  0.00    -0.205 C  
HETATM   24  C   UNL     1     -10.179  14.554  67.378  1.00  0.00    -0.240 C  
HETATM   25  C   UNL     1     -10.902  14.029  66.127  1.00  0.00    -0.291 A  
HETATM   26  C   UNL     1      -9.677  16.000  67.335  1.00  0.00    -0.232 A  
HETATM   27  C   UNL     1     -12.272  13.735  66.174  1.00  0.00    -0.499 A  
HETATM   28  C   UNL     1      -9.163  16.613  66.183  1.00  0.00    -0.312 A  
HETATM   29  C   UNL     1     -12.890  13.048  65.123  1.00  0.00    -0.335 A  
HETATM   30  C   UNL     1      -8.603  17.893  66.231  1.00  0.00    -0.207 A  
HETATM   31  C   UNL     1      -8.547  18.591  67.431  1.00  0.00    -0.266 A  
HETATM   32  C   UNL     1     -12.152  12.662  64.004  1.00  0.00    -0.542 A  
HETATM   33  C   UNL     1     -10.805  12.987  63.919  1.00  0.00    -0.347 A  
HETATM   34  C   UNL     1      -9.070  18.017  68.585  1.00  0.00    -0.276 A  
HETATM   35  C   UNL     1      -9.637  16.739  68.533  1.00  0.00    -0.245 A  
HETATM   36  C   UNL     1     -10.186  13.663  64.969  1.00  0.00    -0.356 A  
ENDBRANCH  22  23
ENDBRANCH  20  22
ENDBRANCH  16  20
ENDBRANCH  13  15
ENDBRANCH  11  13
BRANCH  12  37
HETATM   37  C   UNL     1      -8.230   6.794  68.369  1.00  0.00    -0.119 A  
HETATM   38  O   UNL     1     -11.013   4.921  65.935  1.00  0.00    -0.248 OA 
HETATM   39  C   UNL     1      -9.201   6.228  67.519  1.00  0.00    -0.108 A  
HETATM   40  O   UNL     1      -9.450   4.187  64.582  1.00  0.00    -0.153 OA 
HETATM   41  C   UNL     1      -6.496   5.949  66.890  1.00  0.00    -0.050 A  
HETATM   42  C   UNL     1      -8.810   5.483  66.399  1.00  0.00    -0.126 A  
HETATM   43  N   UNL     1      -9.832   4.819  65.578  1.00  0.00    -0.167 N  
HETATM   44  C   UNL     1      -7.457   5.345  66.079  1.00  0.00    -0.082 A  
HETATM   45  C   UNL     1      -6.878   6.664  68.029  1.00  0.00    -0.077 A  
ENDBRANCH  12  37
ENDBRANCH   3   5
ENDBRANCH   2   3
TORSDOF 8
ENDMDL
MODEL      118
REMARK 921   NORMALIZED FREE ENERGY PREDICTED BY IDOCK:   -4.63 KCAL/MOL
REMARK 922        TOTAL FREE ENERGY PREDICTED BY IDOCK:   -8.70 KCAL/MOL
REMARK 923 INTER-LIGAND FREE ENERGY PREDICTED BY IDOCK:   -9.43 KCAL/MOL
REMARK 924 INTRA-LIGAND FREE ENERGY PREDICTED BY IDOCK:    0.73 KCAL/MOL
REMARK 927      BINDING AFFINITY PREDICTED BY RF-SCORE:    0.00 PKD
ROOT
HETATM    1  C   UNL     1      -9.278   5.505  65.842  1.00  0.00    -0.147 C  
HETATM    2  O   UNL     1      -9.374   5.671  67.260  1.00  0.00    -0.113 OA 
ENDROOT
BRANCH   2   3
HETATM    3  C   UNL     1      -8.177   5.930  67.853  1.00  0.00    -0.108 C  
HETATM    4  O   UNL     1      -7.599   5.155  68.599  1.00  0.00    -0.076 OA 
BRANCH   3   5
HETATM    5  C   UNL     1      -7.674   7.276  67.465  1.00  0.00    -0.111 C  
HETATM    6  C   UNL     1      -6.440   7.435  66.928  1.00  0.00    -0.056 C  
HETATM    7  N   UNL     1      -6.030   8.692  66.519  1.00  0.00    -0.051 NA 
HETATM    8  C   UNL     1      -5.383   6.376  66.718  1.00  0.00    -0.013 C  
HETATM    9  C   UNL     1      -6.699   9.871  66.774  1.00  0.00    -0.079 C  
HETATM   10  C   UNL     1      -5.977  11.126  66.334  1.00  0.00    -0.145 C  
HETATM   11  C   UNL     1      -7.915   9.836  67.370  1.00  0.00    -0.102 C  
HETATM   12  C   UNL     1      -8.592   8.497  67.698  1.00  0.00    -0.133 C  
BRANCH  11  13
HETATM   13  C   UNL     1      -8.536  11.130  67.755  1.00  0.00    -0.124 C  
HETATM   14  O   UNL     1      -8.621  11.498  68.917  1.00  0.00    -0.093 OA 
BRANCH  13  15
HETATM   15  O   UNL     1      -8.895  11.864  66.676  1.00  0.00    -0.189 OA 
HETATM   16  C   UNL     1     -10.235  12.401  64.672  1.00  0.00    -0.287 C  
HETATM   17  C   UNL     1     -11.317  11.661  66.847  1.00  0.00    -0.364 C  
HETATM   18  C   UNL     1     -10.093  11.478  65.934  1.00  0.00    -0.231 C  
HETATM   19  C   UNL     1     -10.020  10.036  65.382  1.00  0.00    -0.364 C  
BRANCH  16  20
HETATM   20  N   UNL     1     -10.401  13.865  64.861  1.00  0.00    -0.413 NA 
HETATM   21  C   UNL     1     -11.818  14.212  65.005  1.00  0.00    -0.389 C  
BRANCH  20  22
HETATM   22  C   UNL     1      -9.721  14.314  66.096  1.00  0.00    -0.303 C  
BRANCH  22  23
HETATM   23  C   UNL     1     -10.629  14.687  67.270  1.00  0.00    -0.284 C  
HETATM   24  C   UNL     1     -10.076  15.708  68.298  1.00  0.00    -0.218 C  
HETATM   25  C   UNL     1     -11.005  15.662  69.523  1.00  0.00    -0.281 A  
HETATM   26  C   UNL     1      -9.822  17.080  67.670  1.00  0.00    -0.257 A  
HETATM   27  C   UNL     1     -10.491  15.333  70.787  1.00  0.00     0.054 A  
HETATM   28  C   UNL     1     -10.792  18.091  67.583  1.00  0.00    -0.257 A  
HETATM   29  C   UNL     1     -11.352  15.066  71.857  1.00  0.00    -0.281 A  
HETATM   30  C   UNL     1     -10.543  19.277  66.888  1.00  0.00    -0.557 A  
HETATM   31  C   UNL     1      -9.318  19.483  66.265  1.00  0.00    -0.431 A  
HETATM   32  C   UNL     1     -12.733  15.142  71.687  1.00  0.00    -0.429 A  
HETATM   33  C   UNL     1     -13.258  15.513  70.455  1.00  0.00    -0.183 A  
HETATM   34  C   UNL     1      -8.330  18.509  66.354  1.00  0.00    -0.278 A  
HETATM   35  C   UNL     1      -8.579  17.325  67.058  1.00  0.00    -0.246 A  
HETATM   36  C   UNL     1     -12.403  15.770  69.386  1.00  0.00    -0.034 A  
ENDBRANCH  22  23
ENDBRANCH  20  22
ENDBRANCH  16  20
ENDBRANCH  13  15
ENDBRANCH  11  13
BRANCH  12  37
HETATM   37  C   UNL     1      -9.171   8.508  69.116  1.00  0.00    -0.150 A  
HETATM   38  O   UNL     1      -6.688   8.609  72.433  1.00  0.00    -0.145 OA 
HETATM   39  C   UNL     1      -8.311   8.617  70.226  1.00  0.00    -0.129 A  
HETATM   40  O   UNL     1      -8.392   8.485  73.808  1.00  0.00    -0.362 OA 
HETATM   41  C   UNL     1     -11.057   8.334  70.640  1.00  0.00    -0.269 A  
HETATM   42  C   UNL     1      -8.823   8.526  71.526  1.00  0.00    -0.199 A  
HETATM   43  N   UNL     1      -7.901   8.545  72.671  1.00  0.00    -0.072 N  
HETATM   44  C   UNL     1     -10.197   8.389  71.738  1.00  0.00    -0.323 A  
HETATM   45  C   UNL     1     -10.549   8.388  69.339  1.00  0.00    -0.204 A  
ENDBRANCH  12  37
ENDBRANCH   3   5
ENDBRANCH   2   3
TORSDOF 8
ENDMDL
MODEL      119
REMARK 921   NORMALIZED FREE ENERGY PREDICTED BY IDOCK:   -4.62 KCAL/MOL
REMARK 922        TOTAL FREE ENERGY PREDICTED BY IDOCK:   -8.70 KCAL/MOL
REMARK 923 INTER-LIGAND FREE ENERGY PREDICTED BY IDOCK:   -8.09 KCAL/MOL
REMARK 924 INTRA-LIGAND FREE ENERGY PREDICTED BY IDOCK:   -0.61 KCAL/MOL
REMARK 927      BINDING AFFINITY PREDICTED BY RF-SCORE:    0.00 PKD
ROOT
HETATM    1  C   UNL     1     -12.580  13.329  70.886  1.00  0.00    -0.306 C  
HETATM    2  O   UNL     1     -11.481  12.642  70.279  1.00  0.00    -0.063 OA 
ENDROOT
BRANCH   2   3
HETATM    3  C   UNL     1     -11.854  11.521  69.606  1.00  0.00    -0.354 C  
HETATM    4  O   UNL     1     -13.014  11.209  69.382  1.00  0.00    -0.010 OA 
BRANCH   3   5
HETATM    5  C   UNL     1     -10.663  10.737  69.181  1.00  0.00    -0.265 C  
HETATM    6  C   UNL     1     -10.114   9.800  69.994  1.00  0.00    -0.257 C  
HETATM    7  N   UNL     1      -9.047   9.044  69.541  1.00  0.00    -0.147 NA 
HETATM    8  C   UNL     1     -10.516   9.460  71.410  1.00  0.00    -0.358 C  
HETATM    9  C   UNL     1      -8.343   9.275  68.378  1.00  0.00    -0.119 C  
HETATM   10  C   UNL     1      -7.135   8.388  68.172  1.00  0.00    -0.085 C  
HETATM   11  C   UNL     1      -8.763  10.236  67.520  1.00  0.00    -0.125 C  
HETATM   12  C   UNL     1     -10.055  11.021  67.790  1.00  0.00    -0.201 C  
BRANCH  11  13
HETATM   13  C   UNL     1      -7.899  10.549  66.352  1.00  0.00    -0.138 C  
HETATM   14  O   UNL     1      -7.326  11.620  66.226  1.00  0.00     0.035 OA 
BRANCH  13  15
HETATM   15  O   UNL     1      -7.759   9.488  65.522  1.00  0.00    -0.101 OA 
HETATM   16  C   UNL     1      -7.688   8.343  63.335  1.00  0.00    -0.141 C  
HETATM   17  C   UNL     1      -6.492  10.547  63.732  1.00  0.00     0.049 C  
HETATM   18  C   UNL     1      -7.742   9.723  64.080  1.00  0.00    -0.134 C  
HETATM   19  C   UNL     1      -9.026  10.416  63.568  1.00  0.00    -0.247 C  
BRANCH  16  20
HETATM   20  N   UNL     1      -6.522   7.448  63.554  1.00  0.00    -0.052 NA 
HETATM   21  C   UNL     1      -5.736   7.892  64.709  1.00  0.00    -0.044 C  
BRANCH  20  22
HETATM   22  C   UNL     1      -6.969   6.068  63.843  1.00  0.00    -0.050 C  
BRANCH  22  23
HETATM   23  C   UNL     1      -7.669   5.852  65.187  1.00  0.00    -0.093 C  
HETATM   24  C   UNL     1      -9.147   5.385  65.151  1.00  0.00    -0.022 C  
HETATM   25  C   UNL     1      -9.711   5.561  66.570  1.00  0.00    -0.179 A  
HETATM   26  C   UNL     1      -9.300   4.003  64.509  1.00  0.00    -0.160 A  
HETATM   27  C   UNL     1     -10.822   6.390  66.790  1.00  0.00    -0.361 A  
HETATM   28  C   UNL     1      -9.211   2.798  65.222  1.00  0.00    -0.130 A  
HETATM   29  C   UNL     1     -11.203   6.738  68.091  1.00  0.00    -0.154 A  
HETATM   30  C   UNL     1      -9.234   1.564  64.565  1.00  0.00    -0.125 A  
HETATM   31  C   UNL     1      -9.349   1.506  63.182  1.00  0.00    -0.091 A  
HETATM   32  C   UNL     1     -10.493   6.251  69.188  1.00  0.00    -0.291 A  
HETATM   33  C   UNL     1      -9.420   5.392  68.990  1.00  0.00    -0.176 A  
HETATM   34  C   UNL     1      -9.462   2.684  62.452  1.00  0.00    -0.089 A  
HETATM   35  C   UNL     1      -9.447   3.918  63.112  1.00  0.00    -0.128 A  
HETATM   36  C   UNL     1      -9.033   5.051  67.695  1.00  0.00    -0.115 A  
ENDBRANCH  22  23
ENDBRANCH  20  22
ENDBRANCH  16  20
ENDBRANCH  13  15
ENDBRANCH  11  13
BRANCH  12  37
HETATM   37  C   UNL     1      -9.844  12.521  67.559  1.00  0.00    -0.198 A  
HETATM   38  O   UNL     1     -11.805  14.502  64.493  1.00  0.00    -0.430 OA 
HETATM   39  C   UNL     1     -10.577  13.188  66.558  1.00  0.00    -0.290 A  
HETATM   40  O   UNL     1     -10.784  16.388  64.954  1.00  0.00    -0.675 OA 
HETATM   41  C   UNL     1      -8.685  14.601  68.047  1.00  0.00    -0.167 A  
HETATM   42  C   UNL     1     -10.318  14.534  66.273  1.00  0.00    -0.294 A  
HETATM   43  N   UNL     1     -11.023  15.189  65.163  1.00  0.00    -0.392 N  
HETATM   44  C   UNL     1      -9.375  15.246  67.019  1.00  0.00    -0.238 A  
HETATM   45  C   UNL     1      -8.913  13.248  68.312  1.00  0.00    -0.176 A  
ENDBRANCH  12  37
ENDBRANCH   3   5
ENDBRANCH   2   3
TORSDOF 8
ENDMDL
MODEL      120
REMARK 921   NORMALIZED FREE ENERGY PREDICTED BY IDOCK:   -4.61 KCAL/MOL
REMARK 922        TOTAL FREE ENERGY PREDICTED BY IDOCK:   -8.68 KCAL/MOL
REMARK 923 INTER-LIGAND FREE ENERGY PREDICTED BY IDOCK:   -8.26 KCAL/MOL
REMARK 924 INTRA-LIGAND FREE ENERGY PREDICTED BY IDOCK:   -0.42 KCAL/MOL
REMARK 927      BINDING AFFINITY PREDICTED BY RF-SCORE:    0.00 PKD
ROOT
HETATM    1  C   UNL     1      -5.609   7.092  72.050  1.00  0.00    -0.037 C  
HETATM    2  O   UNL     1      -5.245   6.696  70.723  1.00  0.00    -0.018 OA 
ENDROOT
BRANCH   2   3
HETATM    3  C   UNL     1      -5.992   5.665  70.246  1.00  0.00    -0.025 C  
HETATM    4  O   UNL     1      -5.531   4.591  69.892  1.00  0.00    -0.007 OA 
BRANCH   3   5
HETATM    5  C   UNL     1      -7.435   6.025  70.220  1.00  0.00    -0.090 C  
HETATM    6  C   UNL     1      -8.303   5.512  71.127  1.00  0.00    -0.125 C  
HETATM    7  N   UNL     1      -9.625   5.919  71.114  1.00  0.00    -0.168 NA 
HETATM    8  C   UNL     1      -8.015   4.487  72.199  1.00  0.00    -0.100 C  
HETATM    9  C   UNL     1     -10.215   6.680  70.127  1.00  0.00    -0.187 C  
HETATM   10  C   UNL     1     -11.707   6.881  70.276  1.00  0.00    -0.344 C  
HETATM   11  C   UNL     1      -9.453   7.191  69.129  1.00  0.00    -0.147 C  
HETATM   12  C   UNL     1      -7.930   6.994  69.123  1.00  0.00    -0.119 C  
BRANCH  11  13
HETATM   13  C   UNL     1     -10.147   7.885  68.013  1.00  0.00    -0.192 C  
HETATM   14  O   UNL     1     -11.074   7.378  67.400  1.00  0.00    -0.185 OA 
BRANCH  13  15
HETATM   15  O   UNL     1      -9.691   9.147  67.835  1.00  0.00    -0.147 OA 
HETATM   16  C   UNL     1      -9.609  11.581  68.243  1.00  0.00    -0.189 C  
HETATM   17  C   UNL     1      -9.720   9.908  70.149  1.00  0.00    -0.255 C  
HETATM   18  C   UNL     1     -10.190  10.202  68.715  1.00  0.00    -0.186 C  
HETATM   19  C   UNL     1     -11.727  10.360  68.654  1.00  0.00    -0.076 C  
BRANCH  16  20
HETATM   20  N   UNL     1      -8.138  11.789  68.252  1.00  0.00    -0.147 NA 
HETATM   21  C   UNL     1      -7.444  10.613  67.719  1.00  0.00    -0.091 C  
BRANCH  20  22
HETATM   22  C   UNL     1      -7.765  12.933  67.393  1.00  0.00    -0.159 C  
BRANCH  22  23
HETATM   23  C   UNL     1      -8.437  14.269  67.718  1.00  0.00    -0.177 C  
HETATM   24  C   UNL     1      -9.106  15.031  66.545  1.00  0.00    -0.319 C  
HETATM   25  C   UNL     1      -9.402  16.456  67.042  1.00  0.00    -0.241 A  
HETATM   26  C   UNL     1     -10.275  14.249  65.941  1.00  0.00    -0.338 A  
HETATM   27  C   UNL     1      -8.848  17.563  66.382  1.00  0.00    -0.269 A  
HETATM   28  C   UNL     1     -11.596  14.337  66.406  1.00  0.00    -0.381 A  
HETATM   29  C   UNL     1      -8.921  18.840  66.951  1.00  0.00    -0.302 A  
HETATM   30  C   UNL     1     -12.600  13.507  65.899  1.00  0.00    -0.454 A  
HETATM   31  C   UNL     1     -12.308  12.572  64.915  1.00  0.00    -0.539 A  
HETATM   32  C   UNL     1      -9.561  19.031  68.175  1.00  0.00    -0.395 A  
HETATM   33  C   UNL     1     -10.156  17.953  68.819  1.00  0.00    -0.384 A  
HETATM   34  C   UNL     1     -11.013  12.478  64.418  1.00  0.00    -0.378 A  
HETATM   35  C   UNL     1     -10.011  13.315  64.921  1.00  0.00    -0.156 A  
HETATM   36  C   UNL     1     -10.077  16.680  68.258  1.00  0.00    -0.268 A  
ENDBRANCH  22  23
ENDBRANCH  20  22
ENDBRANCH  16  20
ENDBRANCH  13  15
ENDBRANCH  11  13
BRANCH  12  37
HETATM   37  C   UNL     1      -7.436   6.579  67.734  1.00  0.00    -0.097 A  
HETATM   38  O   UNL     1      -8.604   2.978  66.046  1.00  0.00    -0.106 OA 
HETATM   39  C   UNL     1      -7.904   5.386  67.149  1.00  0.00    -0.101 A  
HETATM   40  O   UNL     1      -7.344   3.309  64.281  1.00  0.00    -0.060 OA 
HETATM   41  C   UNL     1      -6.012   6.928  65.796  1.00  0.00    -0.035 A  
HETATM   42  C   UNL     1      -7.382   4.948  65.926  1.00  0.00    -0.077 A  
HETATM   43  N   UNL     1      -7.810   3.654  65.377  1.00  0.00    -0.085 N  
HETATM   44  C   UNL     1      -6.438   5.719  65.244  1.00  0.00    -0.042 A  
HETATM   45  C   UNL     1      -6.503   7.353  67.034  1.00  0.00    -0.060 A  
ENDBRANCH  12  37
ENDBRANCH   3   5
ENDBRANCH   2   3
TORSDOF 8
ENDMDL
MODEL      121
REMARK 921   NORMALIZED FREE ENERGY PREDICTED BY IDOCK:   -4.59 KCAL/MOL
REMARK 922        TOTAL FREE ENERGY PREDICTED BY IDOCK:   -8.65 KCAL/MOL
REMARK 923 INTER-LIGAND FREE ENERGY PREDICTED BY IDOCK:   -9.87 KCAL/MOL
REMARK 924 INTRA-LIGAND FREE ENERGY PREDICTED BY IDOCK:    1.22 KCAL/MOL
REMARK 927      BINDING AFFINITY PREDICTED BY RF-SCORE:    0.00 PKD
ROOT
HETATM    1  C   UNL     1     -11.053  17.347  65.227  1.00  0.00     0.325 C  
HETATM    2  O   UNL     1     -10.367  16.146  64.856  1.00  0.00    -0.563 OA 
ENDROOT
BRANCH   2   3
HETATM    3  C   UNL     1     -11.192  15.072  64.732  1.00  0.00    -0.386 C  
HETATM    4  O   UNL     1     -12.340  15.133  64.321  1.00  0.00    -0.562 OA 
BRANCH   3   5
HETATM    5  C   UNL     1     -10.504  13.824  65.160  1.00  0.00    -0.399 C  
HETATM    6  C   UNL     1     -10.907  12.611  64.709  1.00  0.00    -0.302 C  
HETATM    7  N   UNL     1     -10.204  11.477  65.075  1.00  0.00    -0.265 NA 
HETATM    8  C   UNL     1     -12.094  12.305  63.825  1.00  0.00    -0.624 C  
HETATM    9  C   UNL     1      -9.211  11.430  66.031  1.00  0.00    -0.214 C  
HETATM   10  C   UNL     1      -8.687  10.045  66.344  1.00  0.00    -0.140 C  
HETATM   11  C   UNL     1      -8.774  12.579  66.601  1.00  0.00    -0.101 C  
HETATM   12  C   UNL     1      -9.319  13.940  66.145  1.00  0.00    -0.124 C  
BRANCH  11  13
HETATM   13  C   UNL     1      -7.806  12.471  67.724  1.00  0.00    -0.151 C  
HETATM   14  O   UNL     1      -7.040  13.376  68.020  1.00  0.00    -0.093 OA 
BRANCH  13  15
HETATM   15  O   UNL     1      -7.950  11.314  68.411  1.00  0.00    -0.124 OA 
HETATM   16  C   UNL     1      -7.162   9.308  69.617  1.00  0.00    -0.063 C  
HETATM   17  C   UNL     1      -6.175  11.606  70.055  1.00  0.00    -0.140 C  
HETATM   18  C   UNL     1      -6.759  10.681  68.974  1.00  0.00    -0.066 C  
HETATM   19  C   UNL     1      -5.697  10.337  67.903  1.00  0.00    -0.041 C  
BRANCH  16  20
HETATM   20  N   UNL     1      -8.128   9.294  70.746  1.00  0.00    -0.194 NA 
HETATM   21  C   UNL     1      -9.506   9.381  70.252  1.00  0.00    -0.251 C  
BRANCH  20  22
HETATM   22  C   UNL     1      -8.025   8.030  71.508  1.00  0.00    -0.105 C  
BRANCH  22  23
HETATM   23  C   UNL     1      -8.420   6.755  70.760  1.00  0.00    -0.133 C  
HETATM   24  C   UNL     1      -9.496   5.851  71.416  1.00  0.00    -0.168 C  
HETATM   25  C   UNL     1      -9.475   4.508  70.668  1.00  0.00    -0.240 A  
HETATM   26  C   UNL     1     -10.849   6.558  71.537  1.00  0.00    -0.288 A  
HETATM   27  C   UNL     1      -9.210   3.318  71.362  1.00  0.00    -0.192 A  
HETATM   28  C   UNL     1     -11.828   6.545  70.532  1.00  0.00    -0.393 A  
HETATM   29  C   UNL     1      -8.964   2.129  70.666  1.00  0.00    -0.145 A  
HETATM   30  C   UNL     1     -12.992   7.311  70.644  1.00  0.00     0.136 A  
HETATM   31  C   UNL     1     -13.205   8.105  71.764  1.00  0.00    -0.365 A  
HETATM   32  C   UNL     1      -8.995   2.108  69.273  1.00  0.00    -0.161 A  
HETATM   33  C   UNL     1      -9.302   3.266  68.571  1.00  0.00    -0.237 A  
HETATM   34  C   UNL     1     -12.263   8.119  72.786  1.00  0.00    -0.158 A  
HETATM   35  C   UNL     1     -11.102   7.346  72.675  1.00  0.00    -0.378 A  
HETATM   36  C   UNL     1      -9.539   4.453  69.262  1.00  0.00    -0.261 A  
ENDBRANCH  22  23
ENDBRANCH  20  22
ENDBRANCH  16  20
ENDBRANCH  13  15
ENDBRANCH  11  13
BRANCH  12  37
HETATM   37  C   UNL     1      -9.665  14.824  67.347  1.00  0.00    -0.214 A  
HETATM   38  O   UNL     1     -12.856  13.896  69.825  1.00  0.00    -0.062 OA 
HETATM   39  C   UNL     1     -10.707  14.449  68.218  1.00  0.00    -0.246 A  
HETATM   40  O   UNL     1     -12.549  15.706  71.025  1.00  0.00    -0.425 OA 
HETATM   41  C   UNL     1      -9.349  16.848  68.655  1.00  0.00    -0.268 A  
HETATM   42  C   UNL     1     -11.097  15.300  69.259  1.00  0.00    -0.274 A  
HETATM   43  N   UNL     1     -12.247  14.939  70.099  1.00  0.00    -0.321 N  
HETATM   44  C   UNL     1     -10.417  16.500  69.484  1.00  0.00    -0.298 A  
HETATM   45  C   UNL     1      -8.979  16.019  67.592  1.00  0.00    -0.193 A  
ENDBRANCH  12  37
ENDBRANCH   3   5
ENDBRANCH   2   3
TORSDOF 8
ENDMDL
MODEL      122
REMARK 921   NORMALIZED FREE ENERGY PREDICTED BY IDOCK:   -4.57 KCAL/MOL
REMARK 922        TOTAL FREE ENERGY PREDICTED BY IDOCK:   -8.62 KCAL/MOL
REMARK 923 INTER-LIGAND FREE ENERGY PREDICTED BY IDOCK:   -7.01 KCAL/MOL
REMARK 924 INTRA-LIGAND FREE ENERGY PREDICTED BY IDOCK:   -1.61 KCAL/MOL
REMARK 927      BINDING AFFINITY PREDICTED BY RF-SCORE:    0.00 PKD
ROOT
HETATM    1  C   UNL     1     -10.437   5.353  70.930  1.00  0.00    -0.237 C  
HETATM    2  O   UNL     1      -9.408   6.298  71.241  1.00  0.00    -0.156 OA 
ENDROOT
BRANCH   2   3
HETATM    3  C   UNL     1      -8.191   5.950  70.744  1.00  0.00    -0.124 C  
HETATM    4  O   UNL     1      -7.681   4.849  70.886  1.00  0.00    -0.074 OA 
BRANCH   3   5
HETATM    5  C   UNL     1      -7.575   7.086  70.006  1.00  0.00    -0.099 C  
HETATM    6  C   UNL     1      -7.279   8.252  70.634  1.00  0.00    -0.049 C  
HETATM    7  N   UNL     1      -6.648   9.263  69.933  1.00  0.00    -0.046 NA 
HETATM    8  C   UNL     1      -7.575   8.626  72.067  1.00  0.00    -0.084 C  
HETATM    9  C   UNL     1      -6.443   9.281  68.569  1.00  0.00    -0.053 C  
HETATM   10  C   UNL     1      -5.847  10.561  68.026  1.00  0.00    -0.040 C  
HETATM   11  C   UNL     1      -6.766   8.193  67.829  1.00  0.00    -0.065 C  
HETATM   12  C   UNL     1      -7.288   6.913  68.498  1.00  0.00    -0.090 C  
BRANCH  11  13
HETATM   13  C   UNL     1      -6.663   8.305  66.351  1.00  0.00    -0.062 C  
HETATM   14  O   UNL     1      -5.927   7.590  65.687  1.00  0.00    -0.037 OA 
BRANCH  13  15
HETATM   15  O   UNL     1      -7.536   9.208  65.846  1.00  0.00    -0.092 OA 
HETATM   16  C   UNL     1      -8.377  10.830  64.185  1.00  0.00     0.066 C  
HETATM   17  C   UNL     1      -7.460   8.564  63.498  1.00  0.00    -0.112 C  
HETATM   18  C   UNL     1      -7.310   9.723  64.497  1.00  0.00    -0.135 C  
HETATM   19  C   UNL     1      -5.937  10.419  64.341  1.00  0.00    -0.105 C  
BRANCH  16  20
HETATM   20  N   UNL     1      -9.817  10.466  64.180  1.00  0.00    -0.328 NA 
HETATM   21  C   UNL     1     -10.142   9.619  65.331  1.00  0.00    -0.023 C  
BRANCH  20  22
HETATM   22  C   UNL     1     -10.663  11.675  64.283  1.00  0.00    -0.341 C  
BRANCH  22  23
HETATM   23  C   UNL     1     -10.012  12.903  64.923  1.00  0.00    -0.151 C  
HETATM   24  C   UNL     1     -10.648  13.444  66.230  1.00  0.00    -0.292 C  
HETATM   25  C   UNL     1     -10.044  14.835  66.484  1.00  0.00    -0.281 A  
HETATM   26  C   UNL     1     -10.564  12.431  67.375  1.00  0.00    -0.237 A  
HETATM   27  C   UNL     1     -10.877  15.961  66.566  1.00  0.00    -0.198 A  
HETATM   28  C   UNL     1      -9.476  12.336  68.255  1.00  0.00    -0.209 A  
HETATM   29  C   UNL     1     -10.332  17.250  66.569  1.00  0.00    -0.308 A  
HETATM   30  C   UNL     1      -9.396  11.312  69.202  1.00  0.00     0.082 A  
HETATM   31  C   UNL     1     -10.404  10.360  69.295  1.00  0.00    -0.250 A  
HETATM   32  C   UNL     1      -8.951  17.432  66.506  1.00  0.00    -0.285 A  
HETATM   33  C   UNL     1      -8.110  16.327  66.472  1.00  0.00    -0.337 A  
HETATM   34  C   UNL     1     -11.506  10.443  68.451  1.00  0.00    -0.227 A  
HETATM   35  C   UNL     1     -11.588  11.474  67.508  1.00  0.00    -0.322 A  
HETATM   36  C   UNL     1      -8.651  15.043  66.461  1.00  0.00    -0.179 A  
ENDBRANCH  22  23
ENDBRANCH  20  22
ENDBRANCH  16  20
ENDBRANCH  13  15
ENDBRANCH  11  13
BRANCH  12  37
HETATM   37  C   UNL     1      -8.503   6.359  67.750  1.00  0.00    -0.117 A  
HETATM   38  O   UNL     1      -8.152   3.062  65.262  1.00  0.00    -0.085 OA 
HETATM   39  C   UNL     1      -8.376   5.193  66.968  1.00  0.00    -0.107 A  
HETATM   40  O   UNL     1     -10.260   3.188  64.670  1.00  0.00    -0.060 OA 
HETATM   41  C   UNL     1     -10.830   6.520  67.065  1.00  0.00    -0.465 A  
HETATM   42  C   UNL     1      -9.455   4.737  66.201  1.00  0.00    -0.163 A  
HETATM   43  N   UNL     1      -9.277   3.577  65.317  1.00  0.00    -0.147 N  
HETATM   44  C   UNL     1     -10.686   5.396  66.250  1.00  0.00    -0.234 A  
HETATM   45  C   UNL     1      -9.746   7.001  67.805  1.00  0.00    -0.156 A  
ENDBRANCH  12  37
ENDBRANCH   3   5
ENDBRANCH   2   3
TORSDOF 8
ENDMDL
MODEL      123
REMARK 921   NORMALIZED FREE ENERGY PREDICTED BY IDOCK:   -4.57 KCAL/MOL
REMARK 922        TOTAL FREE ENERGY PREDICTED BY IDOCK:   -8.62 KCAL/MOL
REMARK 923 INTER-LIGAND FREE ENERGY PREDICTED BY IDOCK:   -8.05 KCAL/MOL
REMARK 924 INTRA-LIGAND FREE ENERGY PREDICTED BY IDOCK:   -0.57 KCAL/MOL
REMARK 927      BINDING AFFINITY PREDICTED BY RF-SCORE:    0.00 PKD
ROOT
HETATM    1  C   UNL     1      -5.237   5.572  71.758  1.00  0.00    -0.009 C  
HETATM    2  O   UNL     1      -5.588   6.351  70.609  1.00  0.00    -0.018 OA 
ENDROOT
BRANCH   2   3
HETATM    3  C   UNL     1      -6.506   7.319  70.876  1.00  0.00    -0.043 C  
HETATM    4  O   UNL     1      -7.369   7.228  71.735  1.00  0.00    -0.078 OA 
BRANCH   3   5
HETATM    5  C   UNL     1      -6.311   8.494  69.983  1.00  0.00    -0.034 C  
HETATM    6  C   UNL     1      -5.768   9.645  70.449  1.00  0.00    -0.048 C  
HETATM    7  N   UNL     1      -5.540  10.695  69.577  1.00  0.00    -0.038 NA 
HETATM    8  C   UNL     1      -5.369   9.967  71.871  1.00  0.00     0.003 C  
HETATM    9  C   UNL     1      -5.990  10.761  68.275  1.00  0.00    -0.046 C  
HETATM   10  C   UNL     1      -5.724  12.072  67.569  1.00  0.00    -0.107 C  
HETATM   11  C   UNL     1      -6.610   9.689  67.725  1.00  0.00    -0.065 C  
HETATM   12  C   UNL     1      -6.753   8.375  68.508  1.00  0.00    -0.063 C  
BRANCH  11  13
HETATM   13  C   UNL     1      -7.204   9.850  66.372  1.00  0.00    -0.100 C  
HETATM   14  O   UNL     1      -7.091   9.002  65.500  1.00  0.00    -0.079 OA 
BRANCH  13  15
HETATM   15  O   UNL     1      -7.943  10.980  66.271  1.00  0.00    -0.159 OA 
HETATM   16  C   UNL     1      -9.809  12.376  65.454  1.00  0.00    -0.183 C  
HETATM   17  C   UNL     1     -10.172   9.999  66.268  1.00  0.00    -0.285 C  
HETATM   18  C   UNL     1      -9.200  10.932  65.527  1.00  0.00    -0.209 C  
HETATM   19  C   UNL     1      -9.013  10.489  64.058  1.00  0.00    -0.235 C  
BRANCH  16  20
HETATM   20  N   UNL     1     -10.178  13.071  66.714  1.00  0.00    -0.243 NA 
HETATM   21  C   UNL     1      -8.982  13.395  67.498  1.00  0.00    -0.207 C  
BRANCH  20  22
HETATM   22  C   UNL     1     -10.862  14.350  66.426  1.00  0.00    -0.314 C  
BRANCH  22  23
HETATM   23  C   UNL     1     -10.129  15.621  66.858  1.00  0.00    -0.265 C  
HETATM   24  C   UNL     1     -10.913  16.629  67.738  1.00  0.00    -0.234 C  
HETATM   25  C   UNL     1     -10.105  17.937  67.756  1.00  0.00    -0.350 A  
HETATM   26  C   UNL     1     -11.300  16.032  69.094  1.00  0.00    -0.352 A  
HETATM   27  C   UNL     1     -10.682  19.130  67.294  1.00  0.00    -0.585 A  
HETATM   28  C   UNL     1     -10.479  16.081  70.230  1.00  0.00    -0.115 A  
HETATM   29  C   UNL     1      -9.895  20.269  67.092  1.00  0.00    -0.606 A  
HETATM   30  C   UNL     1     -10.827  15.411  71.406  1.00  0.00    -0.044 A  
HETATM   31  C   UNL     1     -12.006  14.679  71.475  1.00  0.00    -0.400 A  
HETATM   32  C   UNL     1      -8.529  20.239  67.365  1.00  0.00    -0.405 A  
HETATM   33  C   UNL     1      -7.950  19.081  67.869  1.00  0.00    -0.307 A  
HETATM   34  C   UNL     1     -12.851  14.632  70.371  1.00  0.00    -0.321 A  
HETATM   35  C   UNL     1     -12.503  15.310  69.198  1.00  0.00     0.026 A  
HETATM   36  C   UNL     1      -8.730  17.943  68.062  1.00  0.00    -0.256 A  
ENDBRANCH  22  23
ENDBRANCH  20  22
ENDBRANCH  16  20
ENDBRANCH  13  15
ENDBRANCH  11  13
BRANCH  12  37
HETATM   37  C   UNL     1      -8.172   7.814  68.384  1.00  0.00    -0.124 A  
HETATM   38  O   UNL     1      -9.084   4.932  65.548  1.00  0.00    -0.147 OA 
HETATM   39  C   UNL     1      -8.443   6.782  67.463  1.00  0.00    -0.121 A  
HETATM   40  O   UNL     1     -11.204   4.936  66.114  1.00  0.00     0.057 OA 
HETATM   41  C   UNL     1     -10.527   7.844  68.986  1.00  0.00    -0.210 A  
HETATM   42  C   UNL     1      -9.755   6.334  67.272  1.00  0.00    -0.129 A  
HETATM   43  N   UNL     1     -10.033   5.325  66.240  1.00  0.00    -0.183 N  
HETATM   44  C   UNL     1     -10.800   6.859  68.036  1.00  0.00    -0.266 A  
HETATM   45  C   UNL     1      -9.224   8.322  69.156  1.00  0.00    -0.151 A  
ENDBRANCH  12  37
ENDBRANCH   3   5
ENDBRANCH   2   3
TORSDOF 8
ENDMDL
MODEL      124
REMARK 921   NORMALIZED FREE ENERGY PREDICTED BY IDOCK:   -4.53 KCAL/MOL
REMARK 922        TOTAL FREE ENERGY PREDICTED BY IDOCK:   -8.56 KCAL/MOL
REMARK 923 INTER-LIGAND FREE ENERGY PREDICTED BY IDOCK:   -9.42 KCAL/MOL
REMARK 924 INTRA-LIGAND FREE ENERGY PREDICTED BY IDOCK:    0.86 KCAL/MOL
REMARK 927      BINDING AFFINITY PREDICTED BY RF-SCORE:    0.00 PKD
ROOT
HETATM    1  C   UNL     1     -12.821  14.054  65.579  1.00  0.00    -0.419 C  
HETATM    2  O   UNL     1     -11.892  13.743  64.534  1.00  0.00    -0.380 OA 
ENDROOT
BRANCH   2   3
HETATM    3  C   UNL     1     -10.599  13.715  64.955  1.00  0.00    -0.408 C  
HETATM    4  O   UNL     1      -9.893  14.705  65.067  1.00  0.00    -0.264 OA 
BRANCH   3   5
HETATM    5  C   UNL     1     -10.172  12.322  65.259  1.00  0.00    -0.305 C  
HETATM    6  C   UNL     1     -10.288  11.336  64.336  1.00  0.00    -0.329 C  
HETATM    7  N   UNL     1      -9.821  10.067  64.630  1.00  0.00    -0.288 NA 
HETATM    8  C   UNL     1     -10.908  11.429  62.961  1.00  0.00    -0.048 C  
HETATM    9  C   UNL     1      -9.399   9.641  65.871  1.00  0.00    -0.218 C  
HETATM   10  C   UNL     1      -9.058   8.170  65.964  1.00  0.00    -0.218 C  
HETATM   11  C   UNL     1      -9.308  10.530  66.890  1.00  0.00    -0.181 C  
HETATM   12  C   UNL     1      -9.598  12.021  66.661  1.00  0.00    -0.225 C  
BRANCH  11  13
HETATM   13  C   UNL     1      -8.986  10.005  68.242  1.00  0.00    -0.119 C  
HETATM   14  O   UNL     1      -9.708  10.196  69.210  1.00  0.00    -0.201 OA 
BRANCH  13  15
HETATM   15  O   UNL     1      -7.875   9.232  68.238  1.00  0.00    -0.096 OA 
HETATM   16  C   UNL     1      -5.516   8.692  68.729  1.00  0.00    -0.036 C  
HETATM   17  C   UNL     1      -7.045   9.719  70.476  1.00  0.00    -0.130 C  
HETATM   18  C   UNL     1      -6.701   9.690  68.978  1.00  0.00    -0.050 C  
HETATM   19  C   UNL     1      -6.186  11.067  68.499  1.00  0.00    -0.042 C  
BRANCH  16  20
HETATM   20  N   UNL     1      -5.661   7.275  69.153  1.00  0.00    -0.018 NA 
HETATM   21  C   UNL     1      -5.787   7.179  70.610  1.00  0.00    -0.027 C  
BRANCH  20  22
HETATM   22  C   UNL     1      -6.887   6.680  68.576  1.00  0.00    -0.070 C  
BRANCH  22  23
HETATM   23  C   UNL     1      -7.981   6.288  69.571  1.00  0.00    -0.108 C  
HETATM   24  C   UNL     1      -9.356   5.873  68.988  1.00  0.00    -0.138 C  
HETATM   25  C   UNL     1     -10.356   5.855  70.156  1.00  0.00    -0.305 A  
HETATM   26  C   UNL     1      -9.261   4.605  68.134  1.00  0.00    -0.162 A  
HETATM   27  C   UNL     1     -11.495   6.672  70.122  1.00  0.00    -0.444 A  
HETATM   28  C   UNL     1      -9.383   3.306  68.651  1.00  0.00    -0.234 A  
HETATM   29  C   UNL     1     -12.287   6.836  71.264  1.00  0.00    -0.395 A  
HETATM   30  C   UNL     1      -9.163   2.183  67.849  1.00  0.00    -0.233 A  
HETATM   31  C   UNL     1      -8.820   2.332  66.511  1.00  0.00    -0.133 A  
HETATM   32  C   UNL     1     -11.963   6.175  72.448  1.00  0.00    -0.240 A  
HETATM   33  C   UNL     1     -10.865   5.324  72.485  1.00  0.00    -0.301 A  
HETATM   34  C   UNL     1      -8.715   3.606  65.966  1.00  0.00    -0.120 A  
HETATM   35  C   UNL     1      -8.943   4.729  66.769  1.00  0.00    -0.111 A  
HETATM   36  C   UNL     1     -10.070   5.166  71.352  1.00  0.00    -0.265 A  
ENDBRANCH  22  23
ENDBRANCH  20  22
ENDBRANCH  16  20
ENDBRANCH  13  15
ENDBRANCH  11  13
BRANCH  12  37
HETATM   37  C   UNL     1     -10.491  12.583  67.772  1.00  0.00    -0.230 A  
HETATM   38  O   UNL     1      -9.452  16.051  69.790  1.00  0.00    -0.174 OA 
HETATM   39  C   UNL     1     -10.156  13.802  68.393  1.00  0.00    -0.241 A  
HETATM   40  O   UNL     1     -11.193  15.893  71.114  1.00  0.00    -0.362 OA 
HETATM   41  C   UNL     1     -12.400  12.388  69.264  1.00  0.00     0.088 A  
HETATM   42  C   UNL     1     -10.909  14.272  69.476  1.00  0.00    -0.115 A  
HETATM   43  N   UNL     1     -10.490  15.495  70.174  1.00  0.00    -0.313 N  
HETATM   44  C   UNL     1     -12.035  13.569  69.912  1.00  0.00    -0.416 A  
HETATM   45  C   UNL     1     -11.631  11.896  68.205  1.00  0.00    -0.390 A  
ENDBRANCH  12  37
ENDBRANCH   3   5
ENDBRANCH   2   3
TORSDOF 8
ENDMDL
MODEL      125
REMARK 921   NORMALIZED FREE ENERGY PREDICTED BY IDOCK:   -4.50 KCAL/MOL
REMARK 922        TOTAL FREE ENERGY PREDICTED BY IDOCK:   -8.52 KCAL/MOL
REMARK 923 INTER-LIGAND FREE ENERGY PREDICTED BY IDOCK:   -8.55 KCAL/MOL
REMARK 924 INTRA-LIGAND FREE ENERGY PREDICTED BY IDOCK:    0.03 KCAL/MOL
REMARK 927      BINDING AFFINITY PREDICTED BY RF-SCORE:    0.00 PKD
ROOT
HETATM    1  C   UNL     1     -12.418  15.298  66.555  1.00  0.00     1.022 C  
HETATM    2  O   UNL     1     -12.373  14.383  65.455  1.00  0.00    -0.392 OA 
ENDROOT
BRANCH   2   3
HETATM    3  C   UNL     1     -11.175  14.377  64.811  1.00  0.00    -0.387 C  
HETATM    4  O   UNL     1     -10.688  15.351  64.258  1.00  0.00    -0.025 OA 
BRANCH   3   5
HETATM    5  C   UNL     1     -10.545  13.030  64.876  1.00  0.00    -0.355 C  
HETATM    6  C   UNL     1     -11.153  11.945  64.335  1.00  0.00    -0.336 C  
HETATM    7  N   UNL     1     -10.509  10.721  64.356  1.00  0.00    -0.343 NA 
HETATM    8  C   UNL     1     -12.518  11.880  63.691  1.00  0.00    -0.583 C  
HETATM    9  C   UNL     1      -9.354  10.440  65.054  1.00  0.00    -0.229 C  
HETATM   10  C   UNL     1      -8.921   8.990  65.023  1.00  0.00    -0.198 C  
HETATM   11  C   UNL     1      -8.696  11.438  65.692  1.00  0.00    -0.016 C  
HETATM   12  C   UNL     1      -9.181  12.892  65.587  1.00  0.00     0.302 C  
BRANCH  11  13
HETATM   13  C   UNL     1      -7.538  11.070  66.548  1.00  0.00    -0.146 C  
HETATM   14  O   UNL     1      -6.599  11.827  66.744  1.00  0.00    -0.132 OA 
BRANCH  13  15
HETATM   15  O   UNL     1      -7.704   9.863  67.138  1.00  0.00    -0.092 OA 
HETATM   16  C   UNL     1      -7.998   8.317  69.041  1.00  0.00    -0.112 C  
HETATM   17  C   UNL     1      -9.315  10.480  68.858  1.00  0.00    -0.192 C  
HETATM   18  C   UNL     1      -7.958   9.815  68.577  1.00  0.00    -0.089 C  
HETATM   19  C   UNL     1      -6.832  10.473  69.409  1.00  0.00    -0.088 C  
BRANCH  16  20
HETATM   20  N   UNL     1      -9.033   7.412  68.476  1.00  0.00    -0.129 NA 
HETATM   21  C   UNL     1      -8.647   6.009  68.651  1.00  0.00    -0.112 C  
BRANCH  20  22
HETATM   22  C   UNL     1     -10.324   7.592  69.175  1.00  0.00    -0.213 C  
BRANCH  22  23
HETATM   23  C   UNL     1     -10.572   6.684  70.382  1.00  0.00    -0.266 C  
HETATM   24  C   UNL     1     -10.617   7.356  71.779  1.00  0.00    -0.228 C  
HETATM   25  C   UNL     1     -10.541   6.230  72.824  1.00  0.00    -0.252 A  
HETATM   26  C   UNL     1     -11.779   8.345  71.906  1.00  0.00    -0.398 A  
HETATM   27  C   UNL     1      -9.497   6.207  73.761  1.00  0.00    -0.152 A  
HETATM   28  C   UNL     1     -13.067   7.985  72.328  1.00  0.00    -0.149 A  
HETATM   29  C   UNL     1      -9.286   5.080  74.563  1.00  0.00    -0.133 A  
HETATM   30  C   UNL     1     -14.121   8.903  72.306  1.00  0.00    -0.512 A  
HETATM   31  C   UNL     1     -13.910  10.203  71.865  1.00  0.00    -0.066 A  
HETATM   32  C   UNL     1     -10.123   3.970  74.453  1.00  0.00    -0.225 A  
HETATM   33  C   UNL     1     -11.190   3.995  73.564  1.00  0.00    -0.325 A  
HETATM   34  C   UNL     1     -12.638  10.595  71.462  1.00  0.00    -0.517 A  
HETATM   35  C   UNL     1     -11.583   9.676  71.493  1.00  0.00    -0.451 A  
HETATM   36  C   UNL     1     -11.396   5.113  72.758  1.00  0.00    -0.311 A  
ENDBRANCH  22  23
ENDBRANCH  20  22
ENDBRANCH  16  20
ENDBRANCH  13  15
ENDBRANCH  11  13
BRANCH  12  37
HETATM   37  C   UNL     1      -9.186  13.569  66.961  1.00  0.00    -0.248 A  
HETATM   38  O   UNL     1     -12.471  13.272  69.471  1.00  0.00    -0.138 OA 
HETATM   39  C   UNL     1     -10.283  13.394  67.827  1.00  0.00    -0.235 A  
HETATM   40  O   UNL     1     -11.544  14.583  70.966  1.00  0.00    -0.279 OA 
HETATM   41  C   UNL     1      -8.174  15.051  68.601  1.00  0.00    -0.156 A  
HETATM   42  C   UNL     1     -10.342  14.090  69.041  1.00  0.00    -0.125 A  
HETATM   43  N   UNL     1     -11.536  13.970  69.888  1.00  0.00    -0.268 N  
HETATM   44  C   UNL     1      -9.287  14.917  69.434  1.00  0.00    -0.054 A  
HETATM   45  C   UNL     1      -8.126  14.387  67.372  1.00  0.00    -0.217 A  
ENDBRANCH  12  37
ENDBRANCH   3   5
ENDBRANCH   2   3
TORSDOF 8
ENDMDL
MODEL      126
REMARK 921   NORMALIZED FREE ENERGY PREDICTED BY IDOCK:   -4.48 KCAL/MOL
REMARK 922        TOTAL FREE ENERGY PREDICTED BY IDOCK:   -8.48 KCAL/MOL
REMARK 923 INTER-LIGAND FREE ENERGY PREDICTED BY IDOCK:   -7.97 KCAL/MOL
REMARK 924 INTRA-LIGAND FREE ENERGY PREDICTED BY IDOCK:   -0.51 KCAL/MOL
REMARK 927      BINDING AFFINITY PREDICTED BY RF-SCORE:    0.00 PKD
ROOT
HETATM    1  C   UNL     1      -8.271  10.908  62.880  1.00  0.00    -0.026 C  
HETATM    2  O   UNL     1      -7.469   9.875  63.463  1.00  0.00    -0.126 OA 
ENDROOT
BRANCH   2   3
HETATM    3  C   UNL     1      -7.249  10.052  64.794  1.00  0.00    -0.136 C  
HETATM    4  O   UNL     1      -6.368  10.761  65.255  1.00  0.00    -0.074 OA 
BRANCH   3   5
HETATM    5  C   UNL     1      -8.225   9.270  65.600  1.00  0.00    -0.119 C  
HETATM    6  C   UNL     1      -8.529   7.987  65.283  1.00  0.00    -0.117 C  
HETATM    7  N   UNL     1      -9.391   7.269  66.093  1.00  0.00    -0.102 NA 
HETATM    8  C   UNL     1      -8.043   7.193  64.093  1.00  0.00    -0.026 C  
HETATM    9  C   UNL     1     -10.141   7.796  67.123  1.00  0.00    -0.258 C  
HETATM   10  C   UNL     1     -11.107   6.830  67.773  1.00  0.00    -0.285 C  
HETATM   11  C   UNL     1      -9.969   9.091  67.483  1.00  0.00    -0.262 C  
HETATM   12  C   UNL     1      -8.898   9.960  66.808  1.00  0.00    -0.147 C  
BRANCH  11  13
HETATM   13  C   UNL     1     -10.895   9.657  68.499  1.00  0.00    -0.161 C  
HETATM   14  O   UNL     1     -11.904  10.276  68.197  1.00  0.00    -0.238 OA 
BRANCH  13  15
HETATM   15  O   UNL     1     -10.532   9.324  69.761  1.00  0.00    -0.204 OA 
HETATM   16  C   UNL     1     -10.858   9.066  72.195  1.00  0.00    -0.167 C  
HETATM   17  C   UNL     1     -12.620   8.327  70.523  1.00  0.00     0.499 C  
HETATM   18  C   UNL     1     -11.540   9.381  70.817  1.00  0.00    -0.298 C  
HETATM   19  C   UNL     1     -12.164  10.786  70.979  1.00  0.00    -0.485 C  
BRANCH  16  20
HETATM   20  N   UNL     1     -10.216   7.741  72.399  1.00  0.00    -0.226 NA 
HETATM   21  C   UNL     1     -11.136   6.658  72.039  1.00  0.00    -0.255 C  
BRANCH  20  22
HETATM   22  C   UNL     1      -9.025   7.598  71.534  1.00  0.00    -0.131 C  
BRANCH  22  23
HETATM   23  C   UNL     1      -9.078   6.482  70.489  1.00  0.00    -0.152 C  
HETATM   24  C   UNL     1      -7.794   5.635  70.289  1.00  0.00    -0.098 C  
HETATM   25  C   UNL     1      -7.982   4.830  68.992  1.00  0.00    -0.075 A  
HETATM   26  C   UNL     1      -7.421   4.847  71.547  1.00  0.00    -0.082 A  
HETATM   27  C   UNL     1      -7.076   4.980  67.931  1.00  0.00    -0.062 A  
HETATM   28  C   UNL     1      -7.907   3.564  71.837  1.00  0.00    -0.062 A  
HETATM   29  C   UNL     1      -7.357   4.435  66.673  1.00  0.00    -0.081 A  
HETATM   30  C   UNL     1      -7.633   2.943  73.059  1.00  0.00    -0.050 A  
HETATM   31  C   UNL     1      -6.864   3.590  74.018  1.00  0.00    -0.045 A  
HETATM   32  C   UNL     1      -8.535   3.718  66.463  1.00  0.00    -0.106 A  
HETATM   33  C   UNL     1      -9.420   3.519  67.515  1.00  0.00    -0.233 A  
HETATM   34  C   UNL     1      -6.350   4.853  73.750  1.00  0.00    -0.060 A  
HETATM   35  C   UNL     1      -6.619   5.469  72.523  1.00  0.00    -0.066 A  
HETATM   36  C   UNL     1      -9.146   4.070  68.765  1.00  0.00    -0.190 A  
ENDBRANCH  22  23
ENDBRANCH  20  22
ENDBRANCH  16  20
ENDBRANCH  13  15
ENDBRANCH  11  13
BRANCH  12  37
HETATM   37  C   UNL     1      -9.460  11.335  66.436  1.00  0.00    -0.221 A  
HETATM   38  O   UNL     1     -12.317  11.733  63.460  1.00  0.00    -0.509 OA 
HETATM   39  C   UNL     1     -10.484  11.438  65.473  1.00  0.00    -0.322 A  
HETATM   40  O   UNL     1     -12.322  13.918  63.650  1.00  0.00    -0.696 OA 
HETATM   41  C   UNL     1      -9.439  13.758  66.621  1.00  0.00    -0.289 A  
HETATM   42  C   UNL     1     -10.933  12.696  65.054  1.00  0.00    -0.289 A  
HETATM   43  N   UNL     1     -11.932  12.788  63.980  1.00  0.00    -0.410 N  
HETATM   44  C   UNL     1     -10.415  13.860  65.628  1.00  0.00    -0.320 A  
HETATM   45  C   UNL     1      -8.961  12.506  67.018  1.00  0.00    -0.211 A  
ENDBRANCH  12  37
ENDBRANCH   3   5
ENDBRANCH   2   3
TORSDOF 8
ENDMDL
MODEL      127
REMARK 921   NORMALIZED FREE ENERGY PREDICTED BY IDOCK:   -4.43 KCAL/MOL
REMARK 922        TOTAL FREE ENERGY PREDICTED BY IDOCK:   -8.42 KCAL/MOL
REMARK 923 INTER-LIGAND FREE ENERGY PREDICTED BY IDOCK:   -9.00 KCAL/MOL
REMARK 924 INTRA-LIGAND FREE ENERGY PREDICTED BY IDOCK:    0.57 KCAL/MOL
REMARK 927      BINDING AFFINITY PREDICTED BY RF-SCORE:    0.00 PKD
ROOT
HETATM    1  C   UNL     1     -12.269  13.760  69.399  1.00  0.00    -0.278 C  
HETATM    2  O   UNL     1     -11.019  13.091  69.203  1.00  0.00    -0.222 OA 
ENDROOT
BRANCH   2   3
HETATM    3  C   UNL     1     -10.032  13.915  68.757  1.00  0.00    -0.135 C  
HETATM    4  O   UNL     1     -10.042  15.129  68.886  1.00  0.00    -0.221 OA 
BRANCH   3   5
HETATM    5  C   UNL     1      -8.948  13.136  68.100  1.00  0.00    -0.195 C  
HETATM    6  C   UNL     1      -7.644  13.360  68.398  1.00  0.00    -0.133 C  
HETATM    7  N   UNL     1      -6.666  12.572  67.817  1.00  0.00    -0.107 NA 
HETATM    8  C   UNL     1      -7.078  14.420  69.313  1.00  0.00    -0.124 C  
HETATM    9  C   UNL     1      -6.872  11.671  66.794  1.00  0.00    -0.086 C  
HETATM   10  C   UNL     1      -5.618  11.028  66.242  1.00  0.00    -0.139 C  
HETATM   11  C   UNL     1      -8.133  11.417  66.367  1.00  0.00    -0.106 C  
HETATM   12  C   UNL     1      -9.342  12.065  67.058  1.00  0.00    -0.191 C  
BRANCH  11  13
HETATM   13  C   UNL     1      -8.300  10.550  65.172  1.00  0.00    -0.150 C  
HETATM   14  O   UNL     1      -8.123  10.959  64.034  1.00  0.00     0.089 OA 
BRANCH  13  15
HETATM   15  O   UNL     1      -8.572   9.267  65.507  1.00  0.00    -0.134 OA 
HETATM   16  C   UNL     1      -8.533   6.815  65.215  1.00  0.00    -0.061 C  
HETATM   17  C   UNL     1      -6.456   8.236  64.878  1.00  0.00    -0.056 C  
HETATM   18  C   UNL     1      -7.984   8.195  64.707  1.00  0.00    -0.147 C  
HETATM   19  C   UNL     1      -8.379   8.270  63.214  1.00  0.00    -0.041 C  
BRANCH  16  20
HETATM   20  N   UNL     1      -8.256   6.397  66.614  1.00  0.00    -0.110 NA 
HETATM   21  C   UNL     1      -6.849   6.625  66.955  1.00  0.00    -0.066 C  
BRANCH  20  22
HETATM   22  C   UNL     1      -9.064   7.189  67.567  1.00  0.00    -0.123 C  
BRANCH  22  23
HETATM   23  C   UNL     1      -8.531   7.273  68.998  1.00  0.00    -0.129 C  
HETATM   24  C   UNL     1      -9.147   6.307  70.043  1.00  0.00    -0.150 C  
HETATM   25  C   UNL     1      -8.705   6.801  71.431  1.00  0.00    -0.131 A  
HETATM   26  C   UNL     1      -8.869   4.839  69.707  1.00  0.00    -0.128 A  
HETATM   27  C   UNL     1      -9.663   7.160  72.391  1.00  0.00    -0.173 A  
HETATM   28  C   UNL     1      -7.724   4.146  70.129  1.00  0.00    -0.049 A  
HETATM   29  C   UNL     1      -9.282   7.820  73.564  1.00  0.00    -0.350 A  
HETATM   30  C   UNL     1      -7.461   2.846  69.689  1.00  0.00    -0.044 A  
HETATM   31  C   UNL     1      -8.336   2.208  68.819  1.00  0.00    -0.079 A  
HETATM   32  C   UNL     1      -7.940   8.115  73.803  1.00  0.00    -0.266 A  
HETATM   33  C   UNL     1      -6.973   7.725  72.885  1.00  0.00    -0.087 A  
HETATM   34  C   UNL     1      -9.490   2.862  68.403  1.00  0.00    -0.207 A  
HETATM   35  C   UNL     1      -9.756   4.160  68.851  1.00  0.00    -0.176 A  
HETATM   36  C   UNL     1      -7.352   7.075  71.712  1.00  0.00    -0.086 A  
ENDBRANCH  22  23
ENDBRANCH  20  22
ENDBRANCH  16  20
ENDBRANCH  13  15
ENDBRANCH  11  13
BRANCH  12  37
HETATM   37  C   UNL     1     -10.333  12.615  66.028  1.00  0.00    -0.287 A  
HETATM   38  O   UNL     1     -10.425  16.654  65.104  1.00  0.00    -0.647 OA 
HETATM   39  C   UNL     1     -10.296  13.979  65.676  1.00  0.00    -0.342 A  
HETATM   40  O   UNL     1     -12.124  16.384  63.744  1.00  0.00    -0.927 OA 
HETATM   41  C   UNL     1     -12.240  12.321  64.549  1.00  0.00    -0.469 A  
HETATM   42  C   UNL     1     -11.262  14.510  64.812  1.00  0.00    -0.390 A  
HETATM   43  N   UNL     1     -11.268  15.952  64.531  1.00  0.00    -0.410 N  
HETATM   44  C   UNL     1     -12.234  13.683  64.243  1.00  0.00    -0.445 A  
HETATM   45  C   UNL     1     -11.300  11.792  65.438  1.00  0.00    -0.284 A  
ENDBRANCH  12  37
ENDBRANCH   3   5
ENDBRANCH   2   3
TORSDOF 8
ENDMDL
MODEL      128
REMARK 921   NORMALIZED FREE ENERGY PREDICTED BY IDOCK:   -4.41 KCAL/MOL
REMARK 922        TOTAL FREE ENERGY PREDICTED BY IDOCK:   -8.39 KCAL/MOL
REMARK 923 INTER-LIGAND FREE ENERGY PREDICTED BY IDOCK:  -10.06 KCAL/MOL
REMARK 924 INTRA-LIGAND FREE ENERGY PREDICTED BY IDOCK:    1.68 KCAL/MOL
REMARK 927      BINDING AFFINITY PREDICTED BY RF-SCORE:    0.00 PKD
ROOT
HETATM    1  C   UNL     1     -10.606  18.103  65.634  1.00  0.00    -0.094 C  
HETATM    2  O   UNL     1     -10.667  16.766  66.143  1.00  0.00    -0.240 OA 
ENDROOT
BRANCH   2   3
HETATM    3  C   UNL     1     -10.883  15.833  65.178  1.00  0.00    -0.428 C  
HETATM    4  O   UNL     1     -11.058  16.094  63.997  1.00  0.00    -0.554 OA 
BRANCH   3   5
HETATM    5  C   UNL     1     -10.873  14.461  65.756  1.00  0.00    -0.308 C  
HETATM    6  C   UNL     1     -11.997  13.703  65.782  1.00  0.00    -0.395 C  
HETATM    7  N   UNL     1     -11.936  12.409  66.267  1.00  0.00    -0.607 NA 
HETATM    8  C   UNL     1     -13.387  14.103  65.347  1.00  0.00     0.283 C  
HETATM    9  C   UNL     1     -10.855  11.851  66.916  1.00  0.00    -0.263 C  
HETATM   10  C   UNL     1     -11.085  10.461  67.467  1.00  0.00    -0.336 C  
HETATM   11  C   UNL     1      -9.697  12.547  67.010  1.00  0.00    -0.213 C  
HETATM   12  C   UNL     1      -9.548  13.920  66.338  1.00  0.00    -0.292 C  
BRANCH  11  13
HETATM   13  C   UNL     1      -8.605  11.971  67.838  1.00  0.00    -0.165 C  
HETATM   14  O   UNL     1      -7.870  12.660  68.527  1.00  0.00    -0.137 OA 
BRANCH  13  15
HETATM   15  O   UNL     1      -8.598  10.617  67.800  1.00  0.00    -0.121 OA 
HETATM   16  C   UNL     1      -7.930   8.399  66.945  1.00  0.00    -0.099 C  
HETATM   17  C   UNL     1      -6.234  10.246  67.348  1.00  0.00    -0.058 C  
HETATM   18  C   UNL     1      -7.671   9.946  66.892  1.00  0.00    -0.098 C  
HETATM   19  C   UNL     1      -7.882  10.348  65.413  1.00  0.00    -0.143 C  
BRANCH  16  20
HETATM   20  N   UNL     1      -7.739   7.677  68.229  1.00  0.00    -0.117 NA 
HETATM   21  C   UNL     1      -7.429   8.616  69.311  1.00  0.00    -0.082 C  
BRANCH  20  22
HETATM   22  C   UNL     1      -8.976   6.967  68.619  1.00  0.00    -0.129 C  
BRANCH  22  23
HETATM   23  C   UNL     1      -9.960   7.751  69.489  1.00  0.00    -0.187 C  
HETATM   24  C   UNL     1     -10.465   7.064  70.785  1.00  0.00    -0.231 C  
HETATM   25  C   UNL     1     -11.663   7.883  71.293  1.00  0.00    -0.313 A  
HETATM   26  C   UNL     1      -9.331   6.802  71.779  1.00  0.00    -0.147 A  
HETATM   27  C   UNL     1     -12.919   7.277  71.445  1.00  0.00    -0.420 A  
HETATM   28  C   UNL     1      -8.912   7.728  72.746  1.00  0.00    -0.236 A  
HETATM   29  C   UNL     1     -14.059   8.053  71.685  1.00  0.00    -0.516 A  
HETATM   30  C   UNL     1      -7.790   7.485  73.544  1.00  0.00    -0.147 A  
HETATM   31  C   UNL     1      -7.063   6.311  73.395  1.00  0.00    -0.083 A  
HETATM   32  C   UNL     1     -13.958   9.439  71.794  1.00  0.00    -0.277 A  
HETATM   33  C   UNL     1     -12.715  10.051  71.694  1.00  0.00    -0.535 A  
HETATM   34  C   UNL     1      -7.468   5.365  72.461  1.00  0.00    -0.096 A  
HETATM   35  C   UNL     1      -8.596   5.606  71.669  1.00  0.00    -0.132 A  
HETATM   36  C   UNL     1     -11.580   9.281  71.446  1.00  0.00    -0.437 A  
ENDBRANCH  22  23
ENDBRANCH  20  22
ENDBRANCH  16  20
ENDBRANCH  13  15
ENDBRANCH  11  13
BRANCH  12  37
HETATM   37  C   UNL     1      -8.893  14.928  67.287  1.00  0.00    -0.216 A  
HETATM   38  O   UNL     1      -5.208  16.606  66.400  1.00  0.00    -0.339 OA 
HETATM   39  C   UNL     1      -7.676  15.541  66.930  1.00  0.00    -0.200 A  
HETATM   40  O   UNL     1      -5.163  17.701  68.300  1.00  0.00    -0.144 OA 
HETATM   41  C   UNL     1      -8.826  16.113  69.409  1.00  0.00    -0.111 A  
HETATM   42  C   UNL     1      -7.019  16.385  67.834  1.00  0.00    -0.139 A  
HETATM   43  N   UNL     1      -5.705  16.940  67.484  1.00  0.00    -0.135 N  
HETATM   44  C   UNL     1      -7.594  16.677  69.074  1.00  0.00    -0.226 A  
HETATM   45  C   UNL     1      -9.468  15.241  68.525  1.00  0.00    -0.200 A  
ENDBRANCH  12  37
ENDBRANCH   3   5
ENDBRANCH   2   3
TORSDOF 8
ENDMDL
MODEL      129
REMARK 921   NORMALIZED FREE ENERGY PREDICTED BY IDOCK:   -4.39 KCAL/MOL
REMARK 922        TOTAL FREE ENERGY PREDICTED BY IDOCK:   -8.36 KCAL/MOL
REMARK 923 INTER-LIGAND FREE ENERGY PREDICTED BY IDOCK:   -8.43 KCAL/MOL
REMARK 924 INTRA-LIGAND FREE ENERGY PREDICTED BY IDOCK:    0.07 KCAL/MOL
REMARK 927      BINDING AFFINITY PREDICTED BY RF-SCORE:    0.00 PKD
ROOT
HETATM    1  C   UNL     1     -10.034   2.154  71.139  1.00  0.00     0.067 C  
HETATM    2  O   UNL     1      -9.267   3.194  70.523  1.00  0.00    -0.111 OA 
ENDROOT
BRANCH   2   3
HETATM    3  C   UNL     1      -8.782   4.103  71.411  1.00  0.00    -0.106 C  
HETATM    4  O   UNL     1      -7.927   3.857  72.247  1.00  0.00    -0.077 OA 
BRANCH   3   5
HETATM    5  C   UNL     1      -9.434   5.427  71.220  1.00  0.00    -0.191 C  
HETATM    6  C   UNL     1     -10.457   5.827  72.016  1.00  0.00    -0.218 C  
HETATM    7  N   UNL     1     -10.995   7.091  71.853  1.00  0.00    -0.229 NA 
HETATM    8  C   UNL     1     -11.140   5.033  73.105  1.00  0.00    -0.395 C  
HETATM    9  C   UNL     1     -10.712   7.949  70.812  1.00  0.00    -0.223 C  
HETATM   10  C   UNL     1     -11.531   9.222  70.789  1.00  0.00    -0.351 C  
HETATM   11  C   UNL     1      -9.752   7.621  69.914  1.00  0.00    -0.175 C  
HETATM   12  C   UNL     1      -8.923   6.340  70.083  1.00  0.00    -0.149 C  
BRANCH  11  13
HETATM   13  C   UNL     1      -9.577   8.504  68.731  1.00  0.00    -0.149 C  
HETATM   14  O   UNL     1     -10.051   8.237  67.637  1.00  0.00    -0.180 OA 
BRANCH  13  15
HETATM   15  O   UNL     1      -8.927   9.650  69.042  1.00  0.00    -0.136 OA 
HETATM   16  C   UNL     1      -6.948  11.097  69.339  1.00  0.00    -0.124 C  
HETATM   17  C   UNL     1      -7.243   9.639  67.282  1.00  0.00    -0.087 C  
HETATM   18  C   UNL     1      -7.488   9.727  68.797  1.00  0.00    -0.075 C  
HETATM   19  C   UNL     1      -6.690   8.641  69.555  1.00  0.00    -0.040 C  
BRANCH  16  20
HETATM   20  N   UNL     1      -7.467  12.361  68.757  1.00  0.00    -0.092 NA 
HETATM   21  C   UNL     1      -6.985  12.537  67.384  1.00  0.00    -0.147 C  
BRANCH  20  22
HETATM   22  C   UNL     1      -8.945  12.341  68.694  1.00  0.00     0.020 C  
BRANCH  22  23
HETATM   23  C   UNL     1      -9.595  13.344  67.738  1.00  0.00    -0.213 C  
HETATM   24  C   UNL     1     -11.144  13.366  67.678  1.00  0.00    -0.288 C  
HETATM   25  C   UNL     1     -11.536  14.189  66.440  1.00  0.00    -0.380 A  
HETATM   26  C   UNL     1     -11.767  13.780  69.014  1.00  0.00    -0.372 A  
HETATM   27  C   UNL     1     -12.311  13.610  65.424  1.00  0.00    -0.510 A  
HETATM   28  C   UNL     1     -12.023  15.111  69.376  1.00  0.00    -0.337 A  
HETATM   29  C   UNL     1     -12.482  14.265  64.199  1.00  0.00    -0.256 A  
HETATM   30  C   UNL     1     -12.477  15.440  70.657  1.00  0.00    -0.478 A  
HETATM   31  C   UNL     1     -12.687  14.446  71.604  1.00  0.00    -0.419 A  
HETATM   32  C   UNL     1     -11.899  15.513  63.979  1.00  0.00     0.031 A  
HETATM   33  C   UNL     1     -11.169  16.122  64.992  1.00  0.00    -0.225 A  
HETATM   34  C   UNL     1     -12.464  13.117  71.266  1.00  0.00    -0.327 A  
HETATM   35  C   UNL     1     -12.017  12.789  69.981  1.00  0.00    -0.371 A  
HETATM   36  C   UNL     1     -10.990  15.467  66.209  1.00  0.00    -0.242 A  
ENDBRANCH  22  23
ENDBRANCH  20  22
ENDBRANCH  16  20
ENDBRANCH  13  15
ENDBRANCH  11  13
BRANCH  12  37
HETATM   37  C   UNL     1      -8.807   5.582  68.757  1.00  0.00    -0.109 A  
HETATM   38  O   UNL     1      -5.181   5.306  66.769  1.00  0.00    -0.007 OA 
HETATM   39  C   UNL     1      -7.551   5.438  68.137  1.00  0.00    -0.081 A  
HETATM   40  O   UNL     1      -6.093   4.219  65.096  1.00  0.00    -0.022 OA 
HETATM   41  C   UNL     1      -9.825   4.410  66.886  1.00  0.00    -0.235 A  
HETATM   42  C   UNL     1      -7.451   4.836  66.877  1.00  0.00    -0.086 A  
HETATM   43  N   UNL     1      -6.147   4.780  66.201  1.00  0.00    -0.026 N  
HETATM   44  C   UNL     1      -8.586   4.316  66.250  1.00  0.00    -0.113 A  
HETATM   45  C   UNL     1      -9.936   5.042  68.128  1.00  0.00    -0.190 A  
ENDBRANCH  12  37
ENDBRANCH   3   5
ENDBRANCH   2   3
TORSDOF 8
ENDMDL
MODEL      130
REMARK 921   NORMALIZED FREE ENERGY PREDICTED BY IDOCK:   -4.39 KCAL/MOL
REMARK 922        TOTAL FREE ENERGY PREDICTED BY IDOCK:   -8.35 KCAL/MOL
REMARK 923 INTER-LIGAND FREE ENERGY PREDICTED BY IDOCK:   -7.24 KCAL/MOL
REMARK 924 INTRA-LIGAND FREE ENERGY PREDICTED BY IDOCK:   -1.10 KCAL/MOL
REMARK 927      BINDING AFFINITY PREDICTED BY RF-SCORE:    0.00 PKD
ROOT
HETATM    1  C   UNL     1      -9.566   7.740  73.427  1.00  0.00    -0.290 C  
HETATM    2  O   UNL     1      -9.097   7.878  72.082  1.00  0.00    -0.128 OA 
ENDROOT
BRANCH   2   3
HETATM    3  C   UNL     1     -10.000   8.470  71.256  1.00  0.00    -0.221 C  
HETATM    4  O   UNL     1     -10.829   9.290  71.621  1.00  0.00    -0.357 OA 
BRANCH   3   5
HETATM    5  C   UNL     1      -9.837   7.987  69.858  1.00  0.00    -0.186 C  
HETATM    6  C   UNL     1     -10.305   6.772  69.477  1.00  0.00    -0.202 C  
HETATM    7  N   UNL     1     -10.195   6.382  68.154  1.00  0.00    -0.152 NA 
HETATM    8  C   UNL     1     -10.951   5.720  70.348  1.00  0.00    -0.333 C  
HETATM    9  C   UNL     1      -9.471   7.045  67.186  1.00  0.00    -0.145 C  
HETATM   10  C   UNL     1      -9.399   6.344  65.846  1.00  0.00     0.017 C  
HETATM   11  C   UNL     1      -8.900   8.239  67.475  1.00  0.00    -0.138 C  
HETATM   12  C   UNL     1      -9.110   8.899  68.846  1.00  0.00    -0.140 C  
BRANCH  11  13
HETATM   13  C   UNL     1      -8.013   8.850  66.451  1.00  0.00    -0.103 C  
HETATM   14  O   UNL     1      -7.221   8.195  65.792  1.00  0.00    -0.066 OA 
BRANCH  13  15
HETATM   15  O   UNL     1      -8.261  10.171  66.285  1.00  0.00    -0.121 OA 
HETATM   16  C   UNL     1      -9.447  12.134  65.370  1.00  0.00    -0.021 C  
HETATM   17  C   UNL     1     -10.697  10.120  66.280  1.00  0.00    -0.047 C  
HETATM   18  C   UNL     1      -9.439  10.572  65.520  1.00  0.00    -0.216 C  
HETATM   19  C   UNL     1      -9.435  10.021  64.075  1.00  0.00    -0.299 C  
BRANCH  16  20
HETATM   20  N   UNL     1      -9.523  12.978  66.591  1.00  0.00    -0.253 NA 
HETATM   21  C   UNL     1      -8.220  13.579  66.889  1.00  0.00     0.067 C  
BRANCH  20  22
HETATM   22  C   UNL     1     -10.477  14.092  66.399  1.00  0.00    -0.283 C  
BRANCH  22  23
HETATM   23  C   UNL     1     -11.265  14.529  67.635  1.00  0.00    -0.335 C  
HETATM   24  C   UNL     1     -10.531  15.426  68.665  1.00  0.00    -0.237 C  
HETATM   25  C   UNL     1     -11.391  15.448  69.939  1.00  0.00    -0.318 A  
HETATM   26  C   UNL     1     -10.134  16.781  68.071  1.00  0.00    -0.284 A  
HETATM   27  C   UNL     1     -10.858  15.003  71.158  1.00  0.00     0.012 A  
HETATM   28  C   UNL     1     -10.968  17.909  68.075  1.00  0.00    -0.059 A  
HETATM   29  C   UNL     1     -11.688  14.804  72.267  1.00  0.00    -0.213 A  
HETATM   30  C   UNL     1     -10.605  19.082  67.408  1.00  0.00    -0.559 A  
HETATM   31  C   UNL     1      -9.399  19.156  66.724  1.00  0.00    -0.364 A  
HETATM   32  C   UNL     1     -13.055  15.063  72.180  1.00  0.00    -0.443 A  
HETATM   33  C   UNL     1     -13.592  15.549  70.995  1.00  0.00    -0.377 A  
HETATM   34  C   UNL     1      -8.542  18.061  66.721  1.00  0.00    -0.270 A  
HETATM   35  C   UNL     1      -8.904  16.890  67.396  1.00  0.00    -0.212 A  
HETATM   36  C   UNL     1     -12.768  15.739  69.887  1.00  0.00     0.125 A  
ENDBRANCH  22  23
ENDBRANCH  20  22
ENDBRANCH  16  20
ENDBRANCH  13  15
ENDBRANCH  11  13
BRANCH  12  37
HETATM   37  C   UNL     1      -7.787   9.428  69.408  1.00  0.00    -0.087 A  
HETATM   38  O   UNL     1      -7.212  13.483  70.044  1.00  0.00     0.437 OA 
HETATM   39  C   UNL     1      -7.640  10.802  69.686  1.00  0.00    -0.052 A  
HETATM   40  O   UNL     1      -5.139  13.167  70.688  1.00  0.00    -0.100 OA 
HETATM   41  C   UNL     1      -5.479   9.082  70.087  1.00  0.00    -0.027 A  
HETATM   42  C   UNL     1      -6.404  11.309  70.104  1.00  0.00    -0.120 A  
HETATM   43  N   UNL     1      -6.242  12.756  70.296  1.00  0.00    -0.055 N  
HETATM   44  C   UNL     1      -5.321  10.451  70.310  1.00  0.00    -0.051 A  
HETATM   45  C   UNL     1      -6.700   8.575  69.635  1.00  0.00    -0.040 A  
ENDBRANCH  12  37
ENDBRANCH   3   5
ENDBRANCH   2   3
TORSDOF 8
ENDMDL
MODEL      131
REMARK 921   NORMALIZED FREE ENERGY PREDICTED BY IDOCK:   -4.37 KCAL/MOL
REMARK 922        TOTAL FREE ENERGY PREDICTED BY IDOCK:   -8.32 KCAL/MOL
REMARK 923 INTER-LIGAND FREE ENERGY PREDICTED BY IDOCK:   -8.68 KCAL/MOL
REMARK 924 INTRA-LIGAND FREE ENERGY PREDICTED BY IDOCK:    0.36 KCAL/MOL
REMARK 927      BINDING AFFINITY PREDICTED BY RF-SCORE:    0.00 PKD
ROOT
HETATM    1  C   UNL     1      -5.677   4.619  70.682  1.00  0.00    -0.016 C  
HETATM    2  O   UNL     1      -6.802   5.337  70.164  1.00  0.00    -0.045 OA 
ENDROOT
BRANCH   2   3
HETATM    3  C   UNL     1      -6.998   6.538  70.772  1.00  0.00    -0.068 C  
HETATM    4  O   UNL     1      -7.297   6.672  71.948  1.00  0.00    -0.084 OA 
BRANCH   3   5
HETATM    5  C   UNL     1      -6.796   7.657  69.811  1.00  0.00    -0.047 C  
HETATM    6  C   UNL     1      -5.928   8.664  70.079  1.00  0.00    -0.027 C  
HETATM    7  N   UNL     1      -5.716   9.652  69.135  1.00  0.00    -0.035 NA 
HETATM    8  C   UNL     1      -5.130   8.879  71.344  1.00  0.00    -0.034 C  
HETATM    9  C   UNL     1      -6.455   9.826  67.983  1.00  0.00    -0.056 C  
HETATM   10  C   UNL     1      -6.110  11.061  67.180  1.00  0.00    -0.074 C  
HETATM   11  C   UNL     1      -7.399   8.914  67.648  1.00  0.00    -0.085 C  
HETATM   12  C   UNL     1      -7.607   7.650  68.496  1.00  0.00    -0.110 C  
BRANCH  11  13
HETATM   13  C   UNL     1      -8.267   9.211  66.479  1.00  0.00    -0.111 C  
HETATM   14  O   UNL     1      -8.674   8.341  65.725  1.00  0.00    -0.155 OA 
BRANCH  13  15
HETATM   15  O   UNL     1      -8.612  10.519  66.420  1.00  0.00    -0.136 OA 
HETATM   16  C   UNL     1      -9.991  12.501  66.936  1.00  0.00    -0.224 C  
HETATM   17  C   UNL     1      -9.285  10.856  68.737  1.00  0.00    -0.187 C  
HETATM   18  C   UNL     1      -9.706  10.994  67.265  1.00  0.00    -0.166 C  
HETATM   19  C   UNL     1     -11.038  10.255  66.995  1.00  0.00    -0.104 C  
BRANCH  16  20
HETATM   20  N   UNL     1      -8.920  13.506  67.161  1.00  0.00    -0.219 NA 
HETATM   21  C   UNL     1      -9.166  14.714  66.367  1.00  0.00    -0.249 C  
BRANCH  20  22
HETATM   22  C   UNL     1      -8.882  13.924  68.579  1.00  0.00    -0.137 C  
BRANCH  22  23
HETATM   23  C   UNL     1     -10.218  14.343  69.195  1.00  0.00    -0.136 C  
HETATM   24  C   UNL     1     -10.265  15.710  69.926  1.00  0.00    -0.297 C  
HETATM   25  C   UNL     1     -11.577  15.750  70.726  1.00  0.00    -0.429 A  
HETATM   26  C   UNL     1      -9.993  16.881  68.978  1.00  0.00    -0.265 A  
HETATM   27  C   UNL     1     -11.550  15.919  72.119  1.00  0.00    -0.515 A  
HETATM   28  C   UNL     1     -10.992  17.537  68.242  1.00  0.00    -0.103 A  
HETATM   29  C   UNL     1     -12.709  15.731  72.881  1.00  0.00    -0.572 A  
HETATM   30  C   UNL     1     -10.671  18.516  67.297  1.00  0.00    -0.417 A  
HETATM   31  C   UNL     1      -9.346  18.864  67.068  1.00  0.00    -0.329 A  
HETATM   32  C   UNL     1     -13.911  15.390  72.263  1.00  0.00    -0.661 A  
HETATM   33  C   UNL     1     -13.967  15.265  70.880  1.00  0.00    -0.250 A  
HETATM   34  C   UNL     1      -8.337  18.248  67.799  1.00  0.00    -0.261 A  
HETATM   35  C   UNL     1      -8.661  17.273  68.750  1.00  0.00    -0.230 A  
HETATM   36  C   UNL     1     -12.812  15.444  70.121  1.00  0.00    -0.196 A  
ENDBRANCH  22  23
ENDBRANCH  20  22
ENDBRANCH  16  20
ENDBRANCH  13  15
ENDBRANCH  11  13
BRANCH  12  37
HETATM   37  C   UNL     1      -9.097   7.400  68.751  1.00  0.00    -0.131 A  
HETATM   38  O   UNL     1     -11.042   9.187  71.944  1.00  0.00    -0.364 OA 
HETATM   39  C   UNL     1      -9.754   8.075  69.798  1.00  0.00    -0.176 A  
HETATM   40  O   UNL     1     -12.918   8.149  71.482  1.00  0.00    -0.318 OA 
HETATM   41  C   UNL     1     -11.166   6.222  68.261  1.00  0.00    -0.251 A  
HETATM   42  C   UNL     1     -11.088   7.778  70.102  1.00  0.00    -0.209 A  
HETATM   43  N   UNL     1     -11.730   8.421  71.257  1.00  0.00    -0.280 N  
HETATM   44  C   UNL     1     -11.799   6.854  69.332  1.00  0.00     0.204 A  
HETATM   45  C   UNL     1      -9.823   6.489  67.975  1.00  0.00    -0.129 A  
ENDBRANCH  12  37
ENDBRANCH   3   5
ENDBRANCH   2   3
TORSDOF 8
ENDMDL
MODEL      132
REMARK 921   NORMALIZED FREE ENERGY PREDICTED BY IDOCK:   -4.36 KCAL/MOL
REMARK 922        TOTAL FREE ENERGY PREDICTED BY IDOCK:   -8.31 KCAL/MOL
REMARK 923 INTER-LIGAND FREE ENERGY PREDICTED BY IDOCK:   -8.34 KCAL/MOL
REMARK 924 INTRA-LIGAND FREE ENERGY PREDICTED BY IDOCK:    0.03 KCAL/MOL
REMARK 927      BINDING AFFINITY PREDICTED BY RF-SCORE:    0.00 PKD
ROOT
HETATM    1  C   UNL     1      -5.433   3.045  69.818  1.00  0.00    -0.016 C  
HETATM    2  O   UNL     1      -6.261   4.068  69.256  1.00  0.00    -0.026 OA 
ENDROOT
BRANCH   2   3
HETATM    3  C   UNL     1      -6.207   5.241  69.942  1.00  0.00    -0.026 C  
HETATM    4  O   UNL     1      -5.230   5.972  69.976  1.00  0.00    -0.011 OA 
BRANCH   3   5
HETATM    5  C   UNL     1      -7.496   5.507  70.637  1.00  0.00    -0.084 C  
HETATM    6  C   UNL     1      -7.731   5.031  71.885  1.00  0.00    -0.107 C  
HETATM    7  N   UNL     1      -8.914   5.353  72.527  1.00  0.00    -0.134 NA 
HETATM    8  C   UNL     1      -6.839   4.134  72.712  1.00  0.00    -0.048 C  
HETATM    9  C   UNL     1      -9.994   5.978  71.941  1.00  0.00    -0.169 C  
HETATM   10  C   UNL     1     -11.220   6.100  72.820  1.00  0.00    -0.278 C  
HETATM   11  C   UNL     1      -9.895   6.436  70.670  1.00  0.00    -0.206 C  
HETATM   12  C   UNL     1      -8.572   6.334  69.898  1.00  0.00    -0.134 C  
BRANCH  11  13
HETATM   13  C   UNL     1     -11.123   6.975  70.029  1.00  0.00    -0.278 C  
HETATM   14  O   UNL     1     -12.161   6.334  69.955  1.00  0.00    -0.118 OA 
BRANCH  13  15
HETATM   15  O   UNL     1     -10.971   8.261  69.637  1.00  0.00    -0.199 OA 
HETATM   16  C   UNL     1     -11.046  10.715  69.909  1.00  0.00    -0.298 C  
HETATM   17  C   UNL     1     -10.064   9.199  71.694  1.00  0.00    -0.346 C  
HETATM   18  C   UNL     1     -11.161   9.322  70.623  1.00  0.00    -0.276 C  
HETATM   19  C   UNL     1     -12.569   9.303  71.264  1.00  0.00    -0.377 C  
BRANCH  16  20
HETATM   20  N   UNL     1      -9.770  11.084  69.245  1.00  0.00    -0.083 NA 
HETATM   21  C   UNL     1      -9.127   9.903  68.662  1.00  0.00    -0.132 C  
BRANCH  20  22
HETATM   22  C   UNL     1     -10.012  12.033  68.136  1.00  0.00    -0.203 C  
BRANCH  22  23
HETATM   23  C   UNL     1      -9.294  13.381  68.231  1.00  0.00    -0.205 C  
HETATM   24  C   UNL     1     -10.178  14.654  68.264  1.00  0.00    -0.227 C  
HETATM   25  C   UNL     1      -9.248  15.855  68.024  1.00  0.00    -0.192 A  
HETATM   26  C   UNL     1     -11.071  14.705  69.507  1.00  0.00    -0.294 A  
HETATM   27  C   UNL     1      -9.467  16.711  66.934  1.00  0.00    -0.248 A  
HETATM   28  C   UNL     1     -10.675  15.265  70.730  1.00  0.00    -0.174 A  
HETATM   29  C   UNL     1      -8.508  17.664  66.573  1.00  0.00    -0.294 A  
HETATM   30  C   UNL     1     -11.483  15.172  71.867  1.00  0.00    -0.457 A  
HETATM   31  C   UNL     1     -12.707  14.519  71.806  1.00  0.00    -0.415 A  
HETATM   32  C   UNL     1      -7.327  17.787  67.304  1.00  0.00    -0.206 A  
HETATM   33  C   UNL     1      -7.115  16.980  68.415  1.00  0.00    -0.188 A  
HETATM   34  C   UNL     1     -13.136  13.973  70.601  1.00  0.00    -0.178 A  
HETATM   35  C   UNL     1     -12.329  14.075  69.463  1.00  0.00    -0.275 A  
HETATM   36  C   UNL     1      -8.065  16.025  68.771  1.00  0.00    -0.212 A  
ENDBRANCH  22  23
ENDBRANCH  20  22
ENDBRANCH  16  20
ENDBRANCH  13  15
ENDBRANCH  11  13
BRANCH  12  37
HETATM   37  C   UNL     1      -8.804   5.818  68.475  1.00  0.00    -0.110 A  
HETATM   38  O   UNL     1      -7.335   7.880  65.194  1.00  0.00    -0.066 OA 
HETATM   39  C   UNL     1      -8.233   6.495  67.379  1.00  0.00    -0.121 A  
HETATM   40  O   UNL     1      -8.256   6.464  63.795  1.00  0.00    -0.074 OA 
HETATM   41  C   UNL     1      -9.855   4.269  66.924  1.00  0.00    -0.224 A  
HETATM   42  C   UNL     1      -8.523   6.090  66.071  1.00  0.00    -0.139 A  
HETATM   43  N   UNL     1      -7.997   6.865  64.939  1.00  0.00    -0.122 N  
HETATM   44  C   UNL     1      -9.331   4.974  65.839  1.00  0.00    -0.165 A  
HETATM   45  C   UNL     1      -9.598   4.690  68.231  1.00  0.00    -0.207 A  
ENDBRANCH  12  37
ENDBRANCH   3   5
ENDBRANCH   2   3
TORSDOF 8
ENDMDL
MODEL      133
REMARK 921   NORMALIZED FREE ENERGY PREDICTED BY IDOCK:   -4.32 KCAL/MOL
REMARK 922        TOTAL FREE ENERGY PREDICTED BY IDOCK:   -8.25 KCAL/MOL
REMARK 923 INTER-LIGAND FREE ENERGY PREDICTED BY IDOCK:   -9.10 KCAL/MOL
REMARK 924 INTRA-LIGAND FREE ENERGY PREDICTED BY IDOCK:    0.85 KCAL/MOL
REMARK 927      BINDING AFFINITY PREDICTED BY RF-SCORE:    0.00 PKD
ROOT
HETATM    1  C   UNL     1      -5.125   5.862  70.724  1.00  0.00    -0.012 C  
HETATM    2  O   UNL     1      -5.541   6.731  69.664  1.00  0.00    -0.014 OA 
ENDROOT
BRANCH   2   3
HETATM    3  C   UNL     1      -6.697   7.393  69.935  1.00  0.00    -0.047 C  
HETATM    4  O   UNL     1      -7.581   6.963  70.660  1.00  0.00    -0.090 OA 
BRANCH   3   5
HETATM    5  C   UNL     1      -6.732   8.705  69.233  1.00  0.00    -0.050 C  
HETATM    6  C   UNL     1      -6.445   9.858  69.886  1.00  0.00    -0.069 C  
HETATM    7  N   UNL     1      -6.423  11.052  69.187  1.00  0.00    -0.059 NA 
HETATM    8  C   UNL     1      -6.146  10.033  71.356  1.00  0.00     0.139 C  
HETATM    9  C   UNL     1      -6.855  11.223  67.888  1.00  0.00    -0.068 C  
HETATM   10  C   UNL     1      -6.851  12.653  67.394  1.00  0.00    -0.141 C  
HETATM   11  C   UNL     1      -7.231  10.144  67.159  1.00  0.00    -0.090 C  
HETATM   12  C   UNL     1      -7.115   8.726  67.736  1.00  0.00    -0.083 C  
BRANCH  11  13
HETATM   13  C   UNL     1      -7.823  10.386  65.817  1.00  0.00    -0.150 C  
HETATM   14  O   UNL     1      -7.792   9.552  64.926  1.00  0.00    -0.110 OA 
BRANCH  13  15
HETATM   15  O   UNL     1      -8.461  11.578  65.749  1.00  0.00    -0.036 OA 
HETATM   16  C   UNL     1     -10.384  13.074  65.347  1.00  0.00    -0.300 C  
HETATM   17  C   UNL     1     -10.613  10.930  66.687  1.00  0.00    -0.305 C  
HETATM   18  C   UNL     1      -9.900  11.589  65.496  1.00  0.00    -0.234 C  
HETATM   19  C   UNL     1     -10.282  10.898  64.166  1.00  0.00    -0.424 C  
BRANCH  16  20
HETATM   20  N   UNL     1     -10.227  14.005  66.495  1.00  0.00    -0.273 NA 
HETATM   21  C   UNL     1     -11.250  15.054  66.456  1.00  0.00    -0.312 C  
BRANCH  20  22
HETATM   22  C   UNL     1     -10.396  13.287  67.777  1.00  0.00    -0.233 C  
BRANCH  22  23
HETATM   23  C   UNL     1     -11.348  13.927  68.790  1.00  0.00    -0.310 C  
HETATM   24  C   UNL     1     -10.722  14.853  69.865  1.00  0.00    -0.198 C  
HETATM   25  C   UNL     1     -11.800  15.095  70.936  1.00  0.00    -0.373 A  
HETATM   26  C   UNL     1     -10.066  16.092  69.249  1.00  0.00    -0.249 A  
HETATM   27  C   UNL     1     -11.563  14.732  72.270  1.00  0.00    -0.113 A  
HETATM   28  C   UNL     1     -10.749  17.290  68.991  1.00  0.00    -0.158 A  
HETATM   29  C   UNL     1     -12.605  14.734  73.204  1.00  0.00    -0.531 A  
HETATM   30  C   UNL     1     -10.132  18.345  68.312  1.00  0.00    -0.410 A  
HETATM   31  C   UNL     1      -8.817  18.227  67.878  1.00  0.00    -0.278 A  
HETATM   32  C   UNL     1     -13.891  15.114  72.823  1.00  0.00    -0.508 A  
HETATM   33  C   UNL     1     -14.134  15.521  71.518  1.00  0.00    -0.502 A  
HETATM   34  C   UNL     1      -8.109  17.060  68.140  1.00  0.00    -0.212 A  
HETATM   35  C   UNL     1      -8.726  16.009  68.827  1.00  0.00    -0.223 A  
HETATM   36  C   UNL     1     -13.099  15.511  70.584  1.00  0.00    -0.361 A  
ENDBRANCH  22  23
ENDBRANCH  20  22
ENDBRANCH  16  20
ENDBRANCH  13  15
ENDBRANCH  11  13
BRANCH  12  37
HETATM   37  C   UNL     1      -8.386   7.916  67.464  1.00  0.00    -0.124 A  
HETATM   38  O   UNL     1      -8.338   4.676  64.880  1.00  0.00    -0.118 OA 
HETATM   39  C   UNL     1      -8.330   6.775  66.641  1.00  0.00    -0.118 A  
HETATM   40  O   UNL     1     -10.497   4.361  65.113  1.00  0.00    -0.236 OA 
HETATM   41  C   UNL     1     -10.784   7.589  67.693  1.00  0.00    -0.266 A  
HETATM   42  C   UNL     1      -9.504   6.089  66.306  1.00  0.00    -0.127 A  
HETATM   43  N   UNL     1      -9.441   4.959  65.369  1.00  0.00    -0.151 N  
HETATM   44  C   UNL     1     -10.733   6.490  66.834  1.00  0.00    -0.403 A  
HETATM   45  C   UNL     1      -9.621   8.300  68.002  1.00  0.00    -0.171 A  
ENDBRANCH  12  37
ENDBRANCH   3   5
ENDBRANCH   2   3
TORSDOF 8
ENDMDL
MODEL      134
REMARK 921   NORMALIZED FREE ENERGY PREDICTED BY IDOCK:   -4.30 KCAL/MOL
REMARK 922        TOTAL FREE ENERGY PREDICTED BY IDOCK:   -8.23 KCAL/MOL
REMARK 923 INTER-LIGAND FREE ENERGY PREDICTED BY IDOCK:   -8.50 KCAL/MOL
REMARK 924 INTRA-LIGAND FREE ENERGY PREDICTED BY IDOCK:    0.27 KCAL/MOL
REMARK 927      BINDING AFFINITY PREDICTED BY RF-SCORE:    0.00 PKD
ROOT
HETATM    1  C   UNL     1     -13.007  10.176  72.272  1.00  0.00    -0.222 C  
HETATM    2  O   UNL     1     -11.896   9.304  72.040  1.00  0.00    -0.363 OA 
ENDROOT
BRANCH   2   3
HETATM    3  C   UNL     1     -11.280   9.524  70.848  1.00  0.00    -0.341 C  
HETATM    4  O   UNL     1     -11.076  10.632  70.375  1.00  0.00    -0.285 OA 
BRANCH   3   5
HETATM    5  C   UNL     1     -10.891   8.238  70.207  1.00  0.00    -0.241 C  
HETATM    6  C   UNL     1     -11.678   7.139  70.308  1.00  0.00    -0.182 C  
HETATM    7  N   UNL     1     -11.318   5.979  69.645  1.00  0.00    -0.374 NA 
HETATM    8  C   UNL     1     -12.955   6.990  71.101  1.00  0.00    -0.293 C  
HETATM    9  C   UNL     1     -10.109   5.761  69.019  1.00  0.00    -0.191 C  
HETATM   10  C   UNL     1      -9.908   4.361  68.481  1.00  0.00    -0.140 C  
HETATM   11  C   UNL     1      -9.214   6.773  68.919  1.00  0.00    -0.131 C  
HETATM   12  C   UNL     1      -9.558   8.180  69.428  1.00  0.00    -0.167 C  
BRANCH  11  13
HETATM   13  C   UNL     1      -7.871   6.459  68.366  1.00  0.00    -0.105 C  
HETATM   14  O   UNL     1      -7.377   5.344  68.434  1.00  0.00    -0.070 OA 
BRANCH  13  15
HETATM   15  O   UNL     1      -7.329   7.515  67.714  1.00  0.00    -0.096 OA 
HETATM   16  C   UNL     1      -6.842   8.931  65.751  1.00  0.00    -0.072 C  
HETATM   17  C   UNL     1      -9.177   8.052  66.222  1.00  0.00    -0.237 C  
HETATM   18  C   UNL     1      -7.677   7.727  66.311  1.00  0.00    -0.089 C  
HETATM   19  C   UNL     1      -7.315   6.522  65.412  1.00  0.00    -0.076 C  
BRANCH  16  20
HETATM   20  N   UNL     1      -7.016  10.276  66.358  1.00  0.00    -0.104 NA 
HETATM   21  C   UNL     1      -5.999  11.207  65.858  1.00  0.00    -0.021 C  
BRANCH  20  22
HETATM   22  C   UNL     1      -8.333  10.846  66.001  1.00  0.00    -0.165 C  
BRANCH  22  23
HETATM   23  C   UNL     1      -8.782  12.067  66.806  1.00  0.00    -0.192 C  
HETATM   24  C   UNL     1      -9.227  13.320  66.008  1.00  0.00     0.084 C  
HETATM   25  C   UNL     1      -9.304  14.488  67.006  1.00  0.00    -0.249 A  
HETATM   26  C   UNL     1     -10.471  13.050  65.157  1.00  0.00    -0.335 A  
HETATM   27  C   UNL     1      -8.522  15.636  66.810  1.00  0.00    -0.307 A  
HETATM   28  C   UNL     1     -11.785  13.205  65.625  1.00  0.00    -0.402 A  
HETATM   29  C   UNL     1      -8.409  16.600  67.818  1.00  0.00    -0.184 A  
HETATM   30  C   UNL     1     -12.881  12.825  64.846  1.00  0.00    -0.357 A  
HETATM   31  C   UNL     1     -12.690  12.284  63.581  1.00  0.00    -0.526 A  
HETATM   32  C   UNL     1      -9.088  16.441  69.025  1.00  0.00    -0.252 A  
HETATM   33  C   UNL     1      -9.904  15.333  69.218  1.00  0.00    -0.255 A  
HETATM   34  C   UNL     1     -11.401  12.140  63.083  1.00  0.00    -0.263 A  
HETATM   35  C   UNL     1     -10.305  12.529  63.861  1.00  0.00    -0.436 A  
HETATM   36  C   UNL     1     -10.010  14.368  68.219  1.00  0.00    -0.232 A  
ENDBRANCH  22  23
ENDBRANCH  20  22
ENDBRANCH  16  20
ENDBRANCH  13  15
ENDBRANCH  11  13
BRANCH  12  37
HETATM   37  C   UNL     1      -8.401   8.768  70.241  1.00  0.00    -0.139 A  
HETATM   38  O   UNL     1      -6.586  12.317  69.104  1.00  0.00    -0.095 OA 
HETATM   39  C   UNL     1      -7.848  10.012  69.879  1.00  0.00    -0.185 A  
HETATM   40  O   UNL     1      -5.125  12.182  70.735  1.00  0.00    -0.106 OA 
HETATM   41  C   UNL     1      -6.759   8.600  72.026  1.00  0.00    -0.078 A  
HETATM   42  C   UNL     1      -6.726  10.509  70.553  1.00  0.00     0.034 A  
HETATM   43  N   UNL     1      -6.104  11.761  70.100  1.00  0.00    -0.159 N  
HETATM   44  C   UNL     1      -6.181   9.807  71.630  1.00  0.00     0.203 A  
HETATM   45  C   UNL     1      -7.857   8.081  71.333  1.00  0.00    -0.099 A  
ENDBRANCH  12  37
ENDBRANCH   3   5
ENDBRANCH   2   3
TORSDOF 8
ENDMDL
MODEL      135
REMARK 921   NORMALIZED FREE ENERGY PREDICTED BY IDOCK:   -4.29 KCAL/MOL
REMARK 922        TOTAL FREE ENERGY PREDICTED BY IDOCK:   -8.21 KCAL/MOL
REMARK 923 INTER-LIGAND FREE ENERGY PREDICTED BY IDOCK:   -7.63 KCAL/MOL
REMARK 924 INTRA-LIGAND FREE ENERGY PREDICTED BY IDOCK:   -0.58 KCAL/MOL
REMARK 927      BINDING AFFINITY PREDICTED BY RF-SCORE:    0.00 PKD
ROOT
HETATM    1  C   UNL     1      -6.195  18.477  65.902  1.00  0.00    -0.225 C  
HETATM    2  O   UNL     1      -7.372  19.265  66.107  1.00  0.00    -0.248 OA 
ENDROOT
BRANCH   2   3
HETATM    3  C   UNL     1      -8.270  18.683  66.946  1.00  0.00    -0.261 C  
HETATM    4  O   UNL     1      -8.257  18.808  68.160  1.00  0.00    -0.285 OA 
BRANCH   3   5
HETATM    5  C   UNL     1      -9.264  17.881  66.182  1.00  0.00    -0.135 C  
HETATM    6  C   UNL     1     -10.389  18.450  65.682  1.00  0.00    -0.039 C  
HETATM    7  N   UNL     1     -11.259  17.689  64.921  1.00  0.00    -0.574 NA 
HETATM    8  C   UNL     1     -10.860  19.873  65.865  1.00  0.00    -0.339 C  
HETATM    9  C   UNL     1     -11.192  16.321  64.764  1.00  0.00    -0.259 C  
HETATM   10  C   UNL     1     -12.338  15.707  63.989  1.00  0.00     0.235 C  
HETATM   11  C   UNL     1     -10.143  15.636  65.281  1.00  0.00    -0.305 C  
HETATM   12  C   UNL     1      -8.990  16.374  65.978  1.00  0.00    -0.307 C  
BRANCH  11  13
HETATM   13  C   UNL     1     -10.182  14.152  65.213  1.00  0.00    -0.375 C  
HETATM   14  O   UNL     1      -9.869  13.533  64.208  1.00  0.00    -0.162 OA 
BRANCH  13  15
HETATM   15  O   UNL     1     -10.506  13.596  66.404  1.00  0.00    -0.280 OA 
HETATM   16  C   UNL     1     -11.973  12.421  68.006  1.00  0.00    -0.203 C  
HETATM   17  C   UNL     1     -11.707  11.631  65.608  1.00  0.00     0.032 C  
HETATM   18  C   UNL     1     -11.770  12.870  66.516  1.00  0.00    -0.393 C  
HETATM   19  C   UNL     1     -12.999  13.745  66.179  1.00  0.00     0.013 C  
BRANCH  16  20
HETATM   20  N   UNL     1     -10.986  11.498  68.625  1.00  0.00    -0.207 NA 
HETATM   21  C   UNL     1     -11.270  11.316  70.052  1.00  0.00    -0.132 C  
BRANCH  20  22
HETATM   22  C   UNL     1     -11.057  10.160  67.999  1.00  0.00    -0.240 C  
BRANCH  22  23
HETATM   23  C   UNL     1     -10.363   9.024  68.753  1.00  0.00    -0.236 C  
HETATM   24  C   UNL     1      -9.608   7.967  67.906  1.00  0.00    -0.178 C  
HETATM   25  C   UNL     1      -9.295   6.783  68.835  1.00  0.00    -0.129 A  
HETATM   26  C   UNL     1      -8.432   8.577  67.138  1.00  0.00    -0.118 A  
HETATM   27  C   UNL     1      -9.778   5.501  68.532  1.00  0.00    -0.175 A  
HETATM   28  C   UNL     1      -7.136   8.699  67.663  1.00  0.00    -0.080 A  
HETATM   29  C   UNL     1      -9.697   4.469  69.474  1.00  0.00    -0.282 A  
HETATM   30  C   UNL     1      -6.132   9.376  66.966  1.00  0.00    -0.064 A  
HETATM   31  C   UNL     1      -6.399   9.945  65.726  1.00  0.00    -0.084 A  
HETATM   32  C   UNL     1      -9.119   4.697  70.722  1.00  0.00    -0.181 A  
HETATM   33  C   UNL     1      -8.594   5.948  71.021  1.00  0.00    -0.131 A  
HETATM   34  C   UNL     1      -7.667   9.820  65.171  1.00  0.00    -0.124 A  
HETATM   35  C   UNL     1      -8.669   9.135  65.867  1.00  0.00    -0.184 A  
HETATM   36  C   UNL     1      -8.681   6.979  70.088  1.00  0.00    -0.141 A  
ENDBRANCH  22  23
ENDBRANCH  20  22
ENDBRANCH  16  20
ENDBRANCH  13  15
ENDBRANCH  11  13
BRANCH  12  37
HETATM   37  C   UNL     1      -8.612  15.684  67.292  1.00  0.00    -0.213 A  
HETATM   38  O   UNL     1      -5.180  13.377  67.574  1.00  0.00    -0.299 OA 
HETATM   39  C   UNL     1      -7.403  14.966  67.385  1.00  0.00    -0.222 A  
HETATM   40  O   UNL     1      -5.629  12.824  69.648  1.00  0.00    -0.082 OA 
HETATM   41  C   UNL     1      -9.129  15.041  69.578  1.00  0.00    -0.064 A  
HETATM   42  C   UNL     1      -7.097  14.249  68.548  1.00  0.00    -0.105 A  
HETATM   43  N   UNL     1      -5.879  13.428  68.594  1.00  0.00    -0.079 N  
HETATM   44  C   UNL     1      -7.956  14.287  69.650  1.00  0.00     0.433 A  
HETATM   45  C   UNL     1      -9.457  15.730  68.407  1.00  0.00    -0.196 A  
ENDBRANCH  12  37
ENDBRANCH   3   5
ENDBRANCH   2   3
TORSDOF 8
ENDMDL
MODEL      136
REMARK 921   NORMALIZED FREE ENERGY PREDICTED BY IDOCK:   -4.28 KCAL/MOL
REMARK 922        TOTAL FREE ENERGY PREDICTED BY IDOCK:   -8.20 KCAL/MOL
REMARK 923 INTER-LIGAND FREE ENERGY PREDICTED BY IDOCK:   -7.80 KCAL/MOL
REMARK 924 INTRA-LIGAND FREE ENERGY PREDICTED BY IDOCK:   -0.40 KCAL/MOL
REMARK 927      BINDING AFFINITY PREDICTED BY RF-SCORE:    0.00 PKD
ROOT
HETATM    1  C   UNL     1     -10.325  19.561  66.965  1.00  0.00    -0.453 C  
HETATM    2  O   UNL     1     -10.234  18.187  67.355  1.00  0.00    -0.338 OA 
ENDROOT
BRANCH   2   3
HETATM    3  C   UNL     1      -9.820  17.369  66.350  1.00  0.00    -0.302 C  
HETATM    4  O   UNL     1     -10.336  17.326  65.244  1.00  0.00    -0.626 OA 
BRANCH   3   5
HETATM    5  C   UNL     1      -8.659  16.545  66.782  1.00  0.00    -0.263 C  
HETATM    6  C   UNL     1      -7.391  16.892  66.449  1.00  0.00    -0.267 C  
HETATM    7  N   UNL     1      -6.331  16.139  66.923  1.00  0.00    -0.303 NA 
HETATM    8  C   UNL     1      -6.950  18.038  65.570  1.00  0.00    -0.045 C  
HETATM    9  C   UNL     1      -6.441  14.927  67.571  1.00  0.00    -0.077 C  
HETATM   10  C   UNL     1      -5.127  14.239  67.873  1.00  0.00    -0.048 C  
HETATM   11  C   UNL     1      -7.666  14.449  67.895  1.00  0.00    -0.152 C  
HETATM   12  C   UNL     1      -8.931  15.273  67.615  1.00  0.00    -0.182 C  
BRANCH  11  13
HETATM   13  C   UNL     1      -7.748  13.078  68.463  1.00  0.00    -0.111 C  
HETATM   14  O   UNL     1      -7.602  12.851  69.654  1.00  0.00     0.552 OA 
BRANCH  13  15
HETATM   15  O   UNL     1      -8.089  12.159  67.529  1.00  0.00    -0.143 OA 
HETATM   16  C   UNL     1      -7.735  10.183  66.091  1.00  0.00    -0.113 C  
HETATM   17  C   UNL     1      -7.117  10.174  68.553  1.00  0.00    -0.074 C  
HETATM   18  C   UNL     1      -7.183  11.039  67.284  1.00  0.00    -0.102 C  
HETATM   19  C   UNL     1      -5.771  11.493  66.846  1.00  0.00    -0.131 C  
BRANCH  16  20
HETATM   20  N   UNL     1      -9.064   9.531  66.222  1.00  0.00    -0.155 NA 
HETATM   21  C   UNL     1      -9.569   9.114  64.910  1.00  0.00     0.269 C  
BRANCH  20  22
HETATM   22  C   UNL     1      -8.969   8.311  67.053  1.00  0.00    -0.140 C  
BRANCH  22  23
HETATM   23  C   UNL     1      -9.348   6.996  66.369  1.00  0.00    -0.182 C  
HETATM   24  C   UNL     1      -8.463   5.759  66.668  1.00  0.00    -0.113 C  
HETATM   25  C   UNL     1      -8.830   4.681  65.635  1.00  0.00    -0.131 A  
HETATM   26  C   UNL     1      -8.517   5.354  68.144  1.00  0.00    -0.097 A  
HETATM   27  C   UNL     1      -7.849   4.166  64.774  1.00  0.00    -0.085 A  
HETATM   28  C   UNL     1      -9.470   4.474  68.677  1.00  0.00    -0.220 A  
HETATM   29  C   UNL     1      -8.209   3.360  63.688  1.00  0.00    -0.089 A  
HETATM   30  C   UNL     1      -9.550   4.237  70.052  1.00  0.00    -0.274 A  
HETATM   31  C   UNL     1      -8.677   4.873  70.926  1.00  0.00    -0.140 A  
HETATM   32  C   UNL     1      -9.547   3.044  63.457  1.00  0.00    -0.101 A  
HETATM   33  C   UNL     1     -10.526   3.505  64.327  1.00  0.00    -0.180 A  
HETATM   34  C   UNL     1      -7.708   5.734  70.424  1.00  0.00    -0.095 A  
HETATM   35  C   UNL     1      -7.624   5.963  69.046  1.00  0.00    -0.090 A  
HETATM   36  C   UNL     1     -10.171   4.315  65.405  1.00  0.00    -0.235 A  
ENDBRANCH  22  23
ENDBRANCH  20  22
ENDBRANCH  16  20
ENDBRANCH  13  15
ENDBRANCH  11  13
BRANCH  12  37
HETATM   37  C   UNL     1     -10.024  14.405  66.983  1.00  0.00    -0.257 A  
HETATM   38  O   UNL     1      -9.385  12.469  63.375  1.00  0.00     0.097 OA 
HETATM   39  C   UNL     1      -9.759  13.697  65.794  1.00  0.00    -0.162 A  
HETATM   40  O   UNL     1     -11.435  11.689  63.343  1.00  0.00    -0.393 OA 
HETATM   41  C   UNL     1     -12.306  13.571  66.929  1.00  0.00    -0.289 A  
HETATM   42  C   UNL     1     -10.781  12.983  65.156  1.00  0.00    -0.306 A  
HETATM   43  N   UNL     1     -10.513  12.330  63.867  1.00  0.00    -0.394 N  
HETATM   44  C   UNL     1     -12.056  12.914  65.723  1.00  0.00    -0.513 A  
HETATM   45  C   UNL     1     -11.300  14.315  67.552  1.00  0.00    -0.346 A  
ENDBRANCH  12  37
ENDBRANCH   3   5
ENDBRANCH   2   3
TORSDOF 8
ENDMDL
MODEL      137
REMARK 921   NORMALIZED FREE ENERGY PREDICTED BY IDOCK:   -4.24 KCAL/MOL
REMARK 922        TOTAL FREE ENERGY PREDICTED BY IDOCK:   -8.13 KCAL/MOL
REMARK 923 INTER-LIGAND FREE ENERGY PREDICTED BY IDOCK:   -6.80 KCAL/MOL
REMARK 924 INTRA-LIGAND FREE ENERGY PREDICTED BY IDOCK:   -1.32 KCAL/MOL
REMARK 927      BINDING AFFINITY PREDICTED BY RF-SCORE:    0.00 PKD
ROOT
HETATM    1  C   UNL     1      -6.671   8.833  64.322  1.00  0.00    -0.075 C  
HETATM    2  O   UNL     1      -7.593   9.858  64.706  1.00  0.00    -0.128 OA 
ENDROOT
BRANCH   2   3
HETATM    3  C   UNL     1      -8.659   9.386  65.407  1.00  0.00    -0.156 C  
HETATM    4  O   UNL     1      -8.826   8.211  65.694  1.00  0.00    -0.168 OA 
BRANCH   3   5
HETATM    5  C   UNL     1      -9.583  10.494  65.774  1.00  0.00    -0.260 C  
HETATM    6  C   UNL     1     -10.350  11.107  64.838  1.00  0.00    -0.313 C  
HETATM    7  N   UNL     1     -11.245  12.088  65.224  1.00  0.00    -0.325 NA 
HETATM    8  C   UNL     1     -10.349  10.867  63.346  1.00  0.00    -0.299 C  
HETATM    9  C   UNL     1     -11.314  12.654  66.480  1.00  0.00    -0.326 C  
HETATM   10  C   UNL     1     -12.292  13.801  66.614  1.00  0.00    -0.403 C  
HETATM   11  C   UNL     1     -10.542  12.165  67.480  1.00  0.00    -0.240 C  
HETATM   12  C   UNL     1      -9.644  10.939  67.252  1.00  0.00    -0.184 C  
BRANCH  11  13
HETATM   13  C   UNL     1     -10.542  12.892  68.776  1.00  0.00    -0.190 C  
HETATM   14  O   UNL     1     -10.371  14.099  68.851  1.00  0.00    -0.236 OA 
BRANCH  13  15
HETATM   15  O   UNL     1     -10.840  12.079  69.816  1.00  0.00     0.072 OA 
HETATM   16  C   UNL     1     -12.313  11.057  71.515  1.00  0.00    -0.194 C  
HETATM   17  C   UNL     1     -13.029  11.293  69.090  1.00  0.00     1.373 C  
HETATM   18  C   UNL     1     -12.236  11.955  70.230  1.00  0.00    -0.271 C  
HETATM   19  C   UNL     1     -12.867  13.307  70.635  1.00  0.00    -0.127 C  
BRANCH  16  20
HETATM   20  N   UNL     1     -11.846   9.649  71.443  1.00  0.00    -0.379 NA 
HETATM   21  C   UNL     1     -12.881   8.787  70.864  1.00  0.00     0.122 C  
BRANCH  20  22
HETATM   22  C   UNL     1     -10.656   9.536  70.571  1.00  0.00    -0.297 C  
BRANCH  22  23
HETATM   23  C   UNL     1     -10.525   8.238  69.772  1.00  0.00    -0.220 C  
HETATM   24  C   UNL     1      -9.477   7.205  70.261  1.00  0.00    -0.162 C  
HETATM   25  C   UNL     1      -9.301   6.172  69.136  1.00  0.00    -0.132 A  
HETATM   26  C   UNL     1      -9.806   6.665  71.655  1.00  0.00    -0.177 A  
HETATM   27  C   UNL     1      -8.040   5.969  68.554  1.00  0.00    -0.107 A  
HETATM   28  C   UNL     1     -10.626   5.549  71.886  1.00  0.00    -0.293 A  
HETATM   29  C   UNL     1      -7.909   5.207  67.388  1.00  0.00    -0.096 A  
HETATM   30  C   UNL     1     -10.994   5.176  73.181  1.00  0.00    -0.368 A  
HETATM   31  C   UNL     1     -10.550   5.906  74.276  1.00  0.00    -0.112 A  
HETATM   32  C   UNL     1      -9.029   4.624  66.797  1.00  0.00    -0.112 A  
HETATM   33  C   UNL     1     -10.278   4.775  67.386  1.00  0.00    -0.132 A  
HETATM   34  C   UNL     1      -9.718   7.003  74.079  1.00  0.00    -0.332 A  
HETATM   35  C   UNL     1      -9.344   7.370  72.782  1.00  0.00    -0.201 A  
HETATM   36  C   UNL     1     -10.412   5.541  68.542  1.00  0.00    -0.234 A  
ENDBRANCH  22  23
ENDBRANCH  20  22
ENDBRANCH  16  20
ENDBRANCH  13  15
ENDBRANCH  11  13
BRANCH  12  37
HETATM   37  C   UNL     1      -8.246  11.168  67.833  1.00  0.00    -0.121 A  
HETATM   38  O   UNL     1      -7.143   9.480  71.455  1.00  0.00    -0.323 OA 
HETATM   39  C   UNL     1      -7.868  10.524  69.028  1.00  0.00    -0.129 A  
HETATM   40  O   UNL     1      -5.178  10.454  71.398  1.00  0.00    -0.085 OA 
HETATM   41  C   UNL     1      -6.083  12.276  67.788  1.00  0.00    -0.102 A  
HETATM   42  C   UNL     1      -6.631  10.805  69.620  1.00  0.00    -0.114 A  
HETATM   43  N   UNL     1      -6.292  10.200  70.915  1.00  0.00    -0.048 N  
HETATM   44  C   UNL     1      -5.733  11.678  69.000  1.00  0.00    -0.051 A  
HETATM   45  C   UNL     1      -7.332  12.027  67.212  1.00  0.00    -0.151 A  
ENDBRANCH  12  37
ENDBRANCH   3   5
ENDBRANCH   2   3
TORSDOF 8
ENDMDL
MODEL      138
REMARK 921   NORMALIZED FREE ENERGY PREDICTED BY IDOCK:   -4.22 KCAL/MOL
REMARK 922        TOTAL FREE ENERGY PREDICTED BY IDOCK:   -8.11 KCAL/MOL
REMARK 923 INTER-LIGAND FREE ENERGY PREDICTED BY IDOCK:   -6.25 KCAL/MOL
REMARK 924 INTRA-LIGAND FREE ENERGY PREDICTED BY IDOCK:   -1.86 KCAL/MOL
REMARK 927      BINDING AFFINITY PREDICTED BY RF-SCORE:    0.00 PKD
ROOT
HETATM    1  C   UNL     1      -9.849  18.583  67.404  1.00  0.00    -0.312 C  
HETATM    2  O   UNL     1     -10.466  17.584  66.586  1.00  0.00    -0.323 OA 
ENDROOT
BRANCH   2   3
HETATM    3  C   UNL     1      -9.571  16.809  65.916  1.00  0.00    -0.178 C  
HETATM    4  O   UNL     1      -8.455  17.180  65.585  1.00  0.00    -0.460 OA 
BRANCH   3   5
HETATM    5  C   UNL     1     -10.134  15.458  65.650  1.00  0.00    -0.406 C  
HETATM    6  C   UNL     1     -11.103  15.273  64.720  1.00  0.00    -0.394 C  
HETATM    7  N   UNL     1     -11.558  13.994  64.452  1.00  0.00    -0.384 NA 
HETATM    8  C   UNL     1     -11.807  16.330  63.901  1.00  0.00     0.844 C  
HETATM    9  C   UNL     1     -11.248  12.869  65.185  1.00  0.00    -0.288 C  
HETATM   10  C   UNL     1     -11.977  11.610  64.768  1.00  0.00     0.011 C  
HETATM   11  C   UNL     1     -10.339  12.950  66.187  1.00  0.00    -0.286 C  
HETATM   12  C   UNL     1      -9.596  14.264  66.470  1.00  0.00    -0.313 C  
BRANCH  11  13
HETATM   13  C   UNL     1     -10.140  11.751  67.042  1.00  0.00    -0.209 C  
HETATM   14  O   UNL     1     -10.938  11.420  67.906  1.00  0.00    -0.208 OA 
BRANCH  13  15
HETATM   15  O   UNL     1      -9.042  11.046  66.683  1.00  0.00    -0.159 OA 
HETATM   16  C   UNL     1      -7.117   9.544  67.058  1.00  0.00    -0.086 C  
HETATM   17  C   UNL     1      -9.420   9.027  67.993  1.00  0.00    -0.157 C  
HETATM   18  C   UNL     1      -8.428  10.155  67.666  1.00  0.00    -0.118 C  
HETATM   19  C   UNL     1      -7.981  10.893  68.950  1.00  0.00    -0.146 C  
BRANCH  16  20
HETATM   20  N   UNL     1      -7.210   8.702  65.838  1.00  0.00    -0.076 NA 
HETATM   21  C   UNL     1      -6.203   9.105  64.851  1.00  0.00    -0.066 C  
BRANCH  20  22
HETATM   22  C   UNL     1      -6.950   7.282  66.160  1.00  0.00    -0.065 C  
BRANCH  22  23
HETATM   23  C   UNL     1      -7.940   6.267  65.586  1.00  0.00    -0.115 C  
HETATM   24  C   UNL     1      -8.055   4.900  66.310  1.00  0.00    -0.107 C  
HETATM   25  C   UNL     1      -8.835   3.959  65.377  1.00  0.00    -0.123 A  
HETATM   26  C   UNL     1      -8.577   5.048  67.742  1.00  0.00    -0.103 A  
HETATM   27  C   UNL     1      -8.253   2.763  64.933  1.00  0.00    -0.087 A  
HETATM   28  C   UNL     1      -9.939   5.045  68.080  1.00  0.00    -0.190 A  
HETATM   29  C   UNL     1      -8.852   2.015  63.913  1.00  0.00    -0.092 A  
HETATM   30  C   UNL     1     -10.362   5.309  69.386  1.00  0.00    -0.313 A  
HETATM   31  C   UNL     1      -9.434   5.578  70.384  1.00  0.00    -0.209 A  
HETATM   32  C   UNL     1     -10.048   2.441  63.336  1.00  0.00    -0.134 A  
HETATM   33  C   UNL     1     -10.663   3.598  63.796  1.00  0.00    -0.271 A  
HETATM   34  C   UNL     1      -8.077   5.565  70.083  1.00  0.00    -0.098 A  
HETATM   35  C   UNL     1      -7.655   5.293  68.776  1.00  0.00    -0.082 A  
HETATM   36  C   UNL     1     -10.063   4.349  64.805  1.00  0.00    -0.102 A  
ENDBRANCH  22  23
ENDBRANCH  20  22
ENDBRANCH  16  20
ENDBRANCH  13  15
ENDBRANCH  11  13
BRANCH  12  37
HETATM   37  C   UNL     1      -9.573  14.570  67.970  1.00  0.00    -0.217 A  
HETATM   38  O   UNL     1     -13.014  15.750  69.957  1.00  0.00    -0.184 OA 
HETATM   39  C   UNL     1     -10.769  14.898  68.639  1.00  0.00    -0.250 A  
HETATM   40  O   UNL     1     -11.926  16.016  71.843  1.00  0.00    -0.447 OA 
HETATM   41  C   UNL     1      -8.361  14.901  70.051  1.00  0.00     0.476 A  
HETATM   42  C   UNL     1     -10.742  15.277  69.987  1.00  0.00    -0.279 A  
HETATM   43  N   UNL     1     -11.984  15.708  70.643  1.00  0.00    -0.371 N  
HETATM   44  C   UNL     1      -9.539  15.276  70.698  1.00  0.00     0.991 A  
HETATM   45  C   UNL     1      -8.376  14.555  68.696  1.00  0.00    -0.164 A  
ENDBRANCH  12  37
ENDBRANCH   3   5
ENDBRANCH   2   3
TORSDOF 8
ENDMDL
MODEL      139
REMARK 921   NORMALIZED FREE ENERGY PREDICTED BY IDOCK:   -4.21 KCAL/MOL
REMARK 922        TOTAL FREE ENERGY PREDICTED BY IDOCK:   -8.09 KCAL/MOL
REMARK 923 INTER-LIGAND FREE ENERGY PREDICTED BY IDOCK:   -7.81 KCAL/MOL
REMARK 924 INTRA-LIGAND FREE ENERGY PREDICTED BY IDOCK:   -0.28 KCAL/MOL
REMARK 927      BINDING AFFINITY PREDICTED BY RF-SCORE:    0.00 PKD
ROOT
HETATM    1  C   UNL     1      -8.954   6.466  73.386  1.00  0.00    -0.124 C  
HETATM    2  O   UNL     1      -8.548   5.802  72.184  1.00  0.00    -0.128 OA 
ENDROOT
BRANCH   2   3
HETATM    3  C   UNL     1      -9.571   5.600  71.310  1.00  0.00    -0.160 C  
HETATM    4  O   UNL     1     -10.019   4.502  71.019  1.00  0.00    -0.193 OA 
BRANCH   3   5
HETATM    5  C   UNL     1     -10.064   6.894  70.765  1.00  0.00    -0.208 C  
HETATM    6  C   UNL     1     -11.307   7.351  71.059  1.00  0.00    -0.275 C  
HETATM    7  N   UNL     1     -11.709   8.588  70.589  1.00  0.00    -0.205 NA 
HETATM    8  C   UNL     1     -12.381   6.649  71.857  1.00  0.00    -0.364 C  
HETATM    9  C   UNL     1     -11.021   9.354  69.671  1.00  0.00    -0.197 C  
HETATM   10  C   UNL     1     -11.734  10.609  69.218  1.00  0.00    -0.336 C  
HETATM   11  C   UNL     1      -9.794   8.959  69.254  1.00  0.00    -0.176 C  
HETATM   12  C   UNL     1      -9.127   7.708  69.844  1.00  0.00    -0.147 C  
BRANCH  11  13
HETATM   13  C   UNL     1      -9.149   9.734  68.162  1.00  0.00    -0.125 C  
HETATM   14  O   UNL     1      -9.205   9.390  66.991  1.00  0.00    -0.138 OA 
BRANCH  13  15
HETATM   15  O   UNL     1      -8.593  10.883  68.612  1.00  0.00    -0.140 OA 
HETATM   16  C   UNL     1      -6.748  12.329  69.390  1.00  0.00    -0.043 C  
HETATM   17  C   UNL     1      -6.510  10.837  67.350  1.00  0.00    -0.063 C  
HETATM   18  C   UNL     1      -7.140  10.952  68.748  1.00  0.00    -0.083 C  
HETATM   19  C   UNL     1      -6.573   9.876  69.704  1.00  0.00    -0.056 C  
BRANCH  16  20
HETATM   20  N   UNL     1      -7.089  13.585  68.673  1.00  0.00    -0.102 NA 
HETATM   21  C   UNL     1      -7.065  13.377  67.222  1.00  0.00     0.022 C  
BRANCH  20  22
HETATM   22  C   UNL     1      -8.455  14.032  69.020  1.00  0.00     0.148 C  
BRANCH  22  23
HETATM   23  C   UNL     1      -9.424  14.216  67.851  1.00  0.00    -0.211 C  
HETATM   24  C   UNL     1     -10.804  13.515  67.954  1.00  0.00    -0.262 C  
HETATM   25  C   UNL     1     -11.443  13.567  66.556  1.00  0.00    -0.365 A  
HETATM   26  C   UNL     1     -11.638  14.053  69.120  1.00  0.00    -0.356 A  
HETATM   27  C   UNL     1     -11.793  12.380  65.896  1.00  0.00    -0.467 A  
HETATM   28  C   UNL     1     -12.500  15.156  69.019  1.00  0.00     0.076 A  
HETATM   29  C   UNL     1     -12.160  12.398  64.546  1.00  0.00    -0.492 A  
HETATM   30  C   UNL     1     -13.141  15.680  70.144  1.00  0.00     0.219 A  
HETATM   31  C   UNL     1     -12.938  15.113  71.396  1.00  0.00    -0.476 A  
HETATM   32  C   UNL     1     -12.199  13.601  63.843  1.00  0.00    -0.429 A  
HETATM   33  C   UNL     1     -11.901  14.792  64.493  1.00  0.00    -0.428 A  
HETATM   34  C   UNL     1     -12.108  14.006  71.523  1.00  0.00    -0.179 A  
HETATM   35  C   UNL     1     -11.473  13.477  70.393  1.00  0.00     0.067 A  
HETATM   36  C   UNL     1     -11.527  14.774  65.835  1.00  0.00    -0.319 A  
ENDBRANCH  22  23
ENDBRANCH  20  22
ENDBRANCH  16  20
ENDBRANCH  13  15
ENDBRANCH  11  13
BRANCH  12  37
HETATM   37  C   UNL     1      -8.521   6.836  68.741  1.00  0.00    -0.124 A  
HETATM   38  O   UNL     1     -10.939   4.835  66.034  1.00  0.00    -0.213 OA 
HETATM   39  C   UNL     1      -9.358   6.225  67.787  1.00  0.00    -0.113 A  
HETATM   40  O   UNL     1      -9.210   3.890  65.071  1.00  0.00    -0.133 OA 
HETATM   41  C   UNL     1      -6.607   5.760  67.696  1.00  0.00    -0.053 A  
HETATM   42  C   UNL     1      -8.823   5.346  66.838  1.00  0.00    -0.111 A  
HETATM   43  N   UNL     1      -9.722   4.643  65.912  1.00  0.00    -0.182 N  
HETATM   44  C   UNL     1      -7.446   5.114  66.786  1.00  0.00    -0.087 A  
HETATM   45  C   UNL     1      -7.140   6.610  68.670  1.00  0.00    -0.083 A  
ENDBRANCH  12  37
ENDBRANCH   3   5
ENDBRANCH   2   3
TORSDOF 8
ENDMDL
MODEL      140
REMARK 921   NORMALIZED FREE ENERGY PREDICTED BY IDOCK:   -4.20 KCAL/MOL
REMARK 922        TOTAL FREE ENERGY PREDICTED BY IDOCK:   -8.07 KCAL/MOL
REMARK 923 INTER-LIGAND FREE ENERGY PREDICTED BY IDOCK:   -6.98 KCAL/MOL
REMARK 924 INTRA-LIGAND FREE ENERGY PREDICTED BY IDOCK:   -1.09 KCAL/MOL
REMARK 927      BINDING AFFINITY PREDICTED BY RF-SCORE:    0.00 PKD
ROOT
HETATM    1  C   UNL     1     -14.346   8.163  72.194  1.00  0.00    -0.372 C  
HETATM    2  O   UNL     1     -13.031   8.610  71.845  1.00  0.00    -0.333 OA 
ENDROOT
BRANCH   2   3
HETATM    3  C   UNL     1     -12.300   7.670  71.188  1.00  0.00    -0.267 C  
HETATM    4  O   UNL     1     -12.784   6.767  70.523  1.00  0.00    -0.137 OA 
BRANCH   3   5
HETATM    5  C   UNL     1     -10.843   7.897  71.388  1.00  0.00    -0.259 C  
HETATM    6  C   UNL     1     -10.225   7.512  72.532  1.00  0.00    -0.232 C  
HETATM    7  N   UNL     1      -8.857   7.679  72.658  1.00  0.00    -0.137 NA 
HETATM    8  C   UNL     1     -10.859   6.909  73.764  1.00  0.00    -0.088 C  
HETATM    9  C   UNL     1      -8.057   8.385  71.785  1.00  0.00    -0.148 C  
HETATM   10  C   UNL     1      -6.613   8.532  72.215  1.00  0.00    -0.091 C  
HETATM   11  C   UNL     1      -8.585   8.875  70.638  1.00  0.00    -0.224 C  
HETATM   12  C   UNL     1     -10.047   8.593  70.262  1.00  0.00    -0.206 C  
BRANCH  11  13
HETATM   13  C   UNL     1      -7.726   9.749  69.797  1.00  0.00    -0.143 C  
HETATM   14  O   UNL     1      -7.119  10.707  70.250  1.00  0.00    -0.230 OA 
BRANCH  13  15
HETATM   15  O   UNL     1      -7.635   9.299  68.523  1.00  0.00    -0.083 OA 
HETATM   16  C   UNL     1      -6.580   8.109  66.634  1.00  0.00    -0.056 C  
HETATM   17  C   UNL     1      -6.725   7.080  68.951  1.00  0.00    -0.060 C  
HETATM   18  C   UNL     1      -6.540   8.395  68.176  1.00  0.00    -0.061 C  
HETATM   19  C   UNL     1      -5.146   9.008  68.444  1.00  0.00    -0.031 C  
BRANCH  16  20
HETATM   20  N   UNL     1      -7.775   7.445  66.052  1.00  0.00    -0.091 NA 
HETATM   21  C   UNL     1      -8.519   8.373  65.196  1.00  0.00    -0.160 C  
BRANCH  20  22
HETATM   22  C   UNL     1      -7.377   6.301  65.202  1.00  0.00    -0.077 C  
BRANCH  22  23
HETATM   23  C   UNL     1      -6.897   5.048  65.937  1.00  0.00    -0.061 C  
HETATM   24  C   UNL     1      -7.979   4.146  66.585  1.00  0.00    -0.098 C  
HETATM   25  C   UNL     1      -7.251   3.169  67.522  1.00  0.00    -0.054 A  
HETATM   26  C   UNL     1      -8.923   3.538  65.544  1.00  0.00    -0.141 A  
HETATM   27  C   UNL     1      -7.560   3.139  68.890  1.00  0.00    -0.048 A  
HETATM   28  C   UNL     1      -8.679   2.323  64.885  1.00  0.00    -0.111 A  
HETATM   29  C   UNL     1      -6.756   2.426  69.786  1.00  0.00    -0.033 A  
HETATM   30  C   UNL     1      -9.510   1.878  63.854  1.00  0.00    -0.123 A  
HETATM   31  C   UNL     1     -10.606   2.634  63.459  1.00  0.00    -0.199 A  
HETATM   32  C   UNL     1      -5.645   1.719  69.327  1.00  0.00    -0.017 A  
HETATM   33  C   UNL     1      -5.352   1.698  67.970  1.00  0.00    -0.013 A  
HETATM   34  C   UNL     1     -10.885   3.831  64.108  1.00  0.00    -0.179 A  
HETATM   35  C   UNL     1     -10.056   4.272  65.146  1.00  0.00    -0.221 A  
HETATM   36  C   UNL     1      -6.146   2.415  67.077  1.00  0.00    -0.024 A  
ENDBRANCH  22  23
ENDBRANCH  20  22
ENDBRANCH  16  20
ENDBRANCH  13  15
ENDBRANCH  11  13
BRANCH  12  37
HETATM   37  C   UNL     1     -10.746   9.867  69.778  1.00  0.00    -0.298 A  
HETATM   38  O   UNL     1     -12.864  12.266  72.411  1.00  0.00    -0.100 OA 
HETATM   39  C   UNL     1     -11.397  10.706  70.704  1.00  0.00    -0.288 A  
HETATM   40  O   UNL     1     -13.490  13.616  70.799  1.00  0.00     0.005 OA 
HETATM   41  C   UNL     1     -11.469  11.342  67.986  1.00  0.00    -0.377 A  
HETATM   42  C   UNL     1     -12.123  11.817  70.258  1.00  0.00    -0.342 A  
HETATM   43  N   UNL     1     -12.876  12.626  71.227  1.00  0.00    -0.319 N  
HETATM   44  C   UNL     1     -12.158  12.142  68.900  1.00  0.00    -0.187 A  
HETATM   45  C   UNL     1     -10.772  10.211  68.421  1.00  0.00    -0.266 A  
ENDBRANCH  12  37
ENDBRANCH   3   5
ENDBRANCH   2   3
TORSDOF 8
ENDMDL
MODEL      141
REMARK 921   NORMALIZED FREE ENERGY PREDICTED BY IDOCK:   -4.18 KCAL/MOL
REMARK 922        TOTAL FREE ENERGY PREDICTED BY IDOCK:   -8.04 KCAL/MOL
REMARK 923 INTER-LIGAND FREE ENERGY PREDICTED BY IDOCK:   -7.12 KCAL/MOL
REMARK 924 INTRA-LIGAND FREE ENERGY PREDICTED BY IDOCK:   -0.92 KCAL/MOL
REMARK 927      BINDING AFFINITY PREDICTED BY RF-SCORE:    0.00 PKD
ROOT
HETATM    1  C   UNL     1      -8.387  15.696  68.394  1.00  0.00    -0.162 C  
HETATM    2  O   UNL     1      -9.110  14.793  67.551  1.00  0.00    -0.179 OA 
ENDROOT
BRANCH   2   3
HETATM    3  C   UNL     1     -10.448  15.034  67.527  1.00  0.00    -0.256 C  
HETATM    4  O   UNL     1     -11.012  15.693  66.667  1.00  0.00    -0.299 OA 
BRANCH   3   5
HETATM    5  C   UNL     1     -11.123  14.386  68.685  1.00  0.00    -0.269 C  
HETATM    6  C   UNL     1     -11.396  15.081  69.817  1.00  0.00    -0.283 C  
HETATM    7  N   UNL     1     -12.083  14.465  70.848  1.00  0.00    -0.327 NA 
HETATM    8  C   UNL     1     -11.017  16.509  70.134  1.00  0.00    -0.215 C  
HETATM    9  C   UNL     1     -12.371  13.119  70.921  1.00  0.00    -0.307 C  
HETATM   10  C   UNL     1     -13.017  12.670  72.213  1.00  0.00    -0.246 C  
HETATM   11  C   UNL     1     -12.080  12.313  69.871  1.00  0.00    -0.319 C  
HETATM   12  C   UNL     1     -11.501  12.892  68.572  1.00  0.00    -0.345 C  
BRANCH  11  13
HETATM   13  C   UNL     1     -12.275  10.850  70.045  1.00  0.00    -0.347 C  
HETATM   14  O   UNL     1     -13.284  10.273  69.670  1.00  0.00     0.201 OA 
BRANCH  13  15
HETATM   15  O   UNL     1     -11.181  10.249  70.569  1.00  0.00    -0.300 OA 
HETATM   16  C   UNL     1      -9.957   8.477  71.778  1.00  0.00    -0.275 C  
HETATM   17  C   UNL     1     -11.692   7.935  70.005  1.00  0.00     0.251 C  
HETATM   18  C   UNL     1     -11.322   8.909  71.136  1.00  0.00    -0.291 C  
HETATM   19  C   UNL     1     -12.355   8.847  72.285  1.00  0.00    -0.430 C  
BRANCH  16  20
HETATM   20  N   UNL     1      -8.754   8.363  70.913  1.00  0.00    -0.143 NA 
HETATM   21  C   UNL     1      -7.593   8.991  71.553  1.00  0.00     0.009 C  
BRANCH  20  22
HETATM   22  C   UNL     1      -8.405   6.944  70.686  1.00  0.00    -0.128 C  
BRANCH  22  23
HETATM   23  C   UNL     1      -8.524   6.440  69.247  1.00  0.00    -0.126 C  
HETATM   24  C   UNL     1      -7.298   5.702  68.649  1.00  0.00    -0.079 C  
HETATM   25  C   UNL     1      -7.529   5.598  67.132  1.00  0.00    -0.084 A  
HETATM   26  C   UNL     1      -6.988   4.401  69.395  1.00  0.00    -0.050 A  
HETATM   27  C   UNL     1      -6.607   6.163  66.238  1.00  0.00    -0.048 A  
HETATM   28  C   UNL     1      -7.561   3.162  69.074  1.00  0.00    -0.048 A  
HETATM   29  C   UNL     1      -6.914   6.276  64.877  1.00  0.00    -0.052 A  
HETATM   30  C   UNL     1      -7.338   2.032  69.866  1.00  0.00    -0.036 A  
HETATM   31  C   UNL     1      -6.535   2.115  70.997  1.00  0.00    -0.023 A  
HETATM   32  C   UNL     1      -8.135   5.812  64.389  1.00  0.00    -0.133 A  
HETATM   33  C   UNL     1      -9.040   5.207  65.252  1.00  0.00    -0.126 A  
HETATM   34  C   UNL     1      -5.936   3.325  71.327  1.00  0.00    -0.014 A  
HETATM   35  C   UNL     1      -6.154   4.453  70.528  1.00  0.00    -0.018 A  
HETATM   36  C   UNL     1      -8.739   5.102  66.609  1.00  0.00    -0.109 A  
ENDBRANCH  22  23
ENDBRANCH  20  22
ENDBRANCH  16  20
ENDBRANCH  13  15
ENDBRANCH  11  13
BRANCH  12  37
HETATM   37  C   UNL     1     -10.326  12.047  68.070  1.00  0.00    -0.206 A  
HETATM   38  O   UNL     1     -10.337  10.438  64.250  1.00  0.00    -0.282 OA 
HETATM   39  C   UNL     1     -10.318  11.573  66.744  1.00  0.00    -0.262 A  
HETATM   40  O   UNL     1      -8.426   9.418  64.591  1.00  0.00    -0.146 OA 
HETATM   41  C   UNL     1      -8.226  10.886  68.460  1.00  0.00    -0.140 A  
HETATM   42  C   UNL     1      -9.299  10.717  66.307  1.00  0.00    -0.171 A  
HETATM   43  N   UNL     1      -9.357  10.154  64.951  1.00  0.00    -0.230 N  
HETATM   44  C   UNL     1      -8.248  10.374  67.162  1.00  0.00    -0.122 A  
HETATM   45  C   UNL     1      -9.259  11.712  68.913  1.00  0.00     0.045 A  
ENDBRANCH  12  37
ENDBRANCH   3   5
ENDBRANCH   2   3
TORSDOF 8
ENDMDL
MODEL      142
REMARK 921   NORMALIZED FREE ENERGY PREDICTED BY IDOCK:   -4.17 KCAL/MOL
REMARK 922        TOTAL FREE ENERGY PREDICTED BY IDOCK:   -8.03 KCAL/MOL
REMARK 923 INTER-LIGAND FREE ENERGY PREDICTED BY IDOCK:   -8.15 KCAL/MOL
REMARK 924 INTRA-LIGAND FREE ENERGY PREDICTED BY IDOCK:    0.12 KCAL/MOL
REMARK 927      BINDING AFFINITY PREDICTED BY RF-SCORE:    0.00 PKD
ROOT
HETATM    1  C   UNL     1      -8.703   2.204  65.952  1.00  0.00    -0.120 C  
HETATM    2  O   UNL     1      -9.657   3.141  66.463  1.00  0.00    -0.103 OA 
ENDROOT
BRANCH   2   3
HETATM    3  C   UNL     1      -9.904   4.175  65.614  1.00  0.00    -0.205 C  
HETATM    4  O   UNL     1     -10.859   4.227  64.855  1.00  0.00    -0.252 OA 
BRANCH   3   5
HETATM    5  C   UNL     1      -8.857   5.225  65.741  1.00  0.00    -0.149 C  
HETATM    6  C   UNL     1      -7.819   5.290  64.870  1.00  0.00    -0.095 C  
HETATM    7  N   UNL     1      -6.900   6.318  64.978  1.00  0.00    -0.049 NA 
HETATM    8  C   UNL     1      -7.500   4.332  63.746  1.00  0.00    -0.055 C  
HETATM    9  C   UNL     1      -6.824   7.212  66.025  1.00  0.00    -0.057 C  
HETATM   10  C   UNL     1      -5.647   8.161  65.974  1.00  0.00    -0.036 C  
HETATM   11  C   UNL     1      -7.773   7.194  66.993  1.00  0.00    -0.107 C  
HETATM   12  C   UNL     1      -8.973   6.240  66.900  1.00  0.00    -0.120 C  
BRANCH  11  13
HETATM   13  C   UNL     1      -7.576   8.075  68.174  1.00  0.00    -0.109 C  
HETATM   14  O   UNL     1      -7.250   7.642  69.269  1.00  0.00    -0.077 OA 
BRANCH  13  15
HETATM   15  O   UNL     1      -7.709   9.385  67.860  1.00  0.00    -0.087 OA 
HETATM   16  C   UNL     1      -8.889  11.550  67.719  1.00  0.00    -0.153 C  
HETATM   17  C   UNL     1      -8.919  10.144  69.833  1.00  0.00    -0.103 C  
HETATM   18  C   UNL     1      -8.912  10.091  68.296  1.00  0.00    -0.119 C  
HETATM   19  C   UNL     1     -10.213   9.455  67.755  1.00  0.00    -0.273 C  
BRANCH  16  20
HETATM   20  N   UNL     1      -7.787  12.466  68.112  1.00  0.00    -0.137 NA 
HETATM   21  C   UNL     1      -6.497  11.772  68.077  1.00  0.00    -0.056 C  
BRANCH  20  22
HETATM   22  C   UNL     1      -7.689  13.602  67.169  1.00  0.00     0.033 C  
BRANCH  22  23
HETATM   23  C   UNL     1      -8.416  14.884  67.578  1.00  0.00    -0.198 C  
HETATM   24  C   UNL     1      -9.301  15.571  66.506  1.00  0.00    -0.311 C  
HETATM   25  C   UNL     1      -9.641  16.975  67.033  1.00  0.00    -0.257 A  
HETATM   26  C   UNL     1     -10.476  14.688  66.075  1.00  0.00    -0.313 A  
HETATM   27  C   UNL     1      -9.277  18.113  66.298  1.00  0.00    -0.213 A  
HETATM   28  C   UNL     1     -11.722  14.677  66.720  1.00  0.00    -0.355 A  
HETATM   29  C   UNL     1      -9.373  19.388  66.865  1.00  0.00    -0.394 A  
HETATM   30  C   UNL     1     -12.715  13.761  66.363  1.00  0.00    -0.172 A  
HETATM   31  C   UNL     1     -12.487  12.837  65.352  1.00  0.00    -0.478 A  
HETATM   32  C   UNL     1      -9.851  19.547  68.165  1.00  0.00    -0.506 A  
HETATM   33  C   UNL     1     -10.261  18.436  68.891  1.00  0.00    -0.284 A  
HETATM   34  C   UNL     1     -11.270  12.839  64.680  1.00  0.00    -0.356 A  
HETATM   35  C   UNL     1     -10.280  13.762  65.034  1.00  0.00    -0.370 A  
HETATM   36  C   UNL     1     -10.157  17.164  68.331  1.00  0.00    -0.314 A  
ENDBRANCH  22  23
ENDBRANCH  20  22
ENDBRANCH  16  20
ENDBRANCH  13  15
ENDBRANCH  11  13
BRANCH  12  37
HETATM   37  C   UNL     1      -9.226   5.544  68.240  1.00  0.00    -0.118 A  
HETATM   38  O   UNL     1      -6.624   2.650  69.664  1.00  0.00    -0.032 OA 
HETATM   39  C   UNL     1      -8.290   4.617  68.739  1.00  0.00    -0.085 A  
HETATM   40  O   UNL     1      -7.882   2.274  71.421  1.00  0.00    -0.040 OA 
HETATM   41  C   UNL     1     -10.638   5.102  70.169  1.00  0.00    -0.225 A  
HETATM   42  C   UNL     1      -8.562   3.903  69.912  1.00  0.00    -0.065 A  
HETATM   43  N   UNL     1      -7.619   2.871  70.367  1.00  0.00    -0.043 N  
HETATM   44  C   UNL     1      -9.734   4.145  70.633  1.00  0.00    -0.273 A  
HETATM   45  C   UNL     1     -10.389   5.792  68.979  1.00  0.00    -0.313 A  
ENDBRANCH  12  37
ENDBRANCH   3   5
ENDBRANCH   2   3
TORSDOF 8
ENDMDL
MODEL      143
REMARK 921   NORMALIZED FREE ENERGY PREDICTED BY IDOCK:   -4.15 KCAL/MOL
REMARK 922        TOTAL FREE ENERGY PREDICTED BY IDOCK:   -8.01 KCAL/MOL
REMARK 923 INTER-LIGAND FREE ENERGY PREDICTED BY IDOCK:   -8.35 KCAL/MOL
REMARK 924 INTRA-LIGAND FREE ENERGY PREDICTED BY IDOCK:    0.34 KCAL/MOL
REMARK 927      BINDING AFFINITY PREDICTED BY RF-SCORE:    0.00 PKD
ROOT
HETATM    1  C   UNL     1      -5.955   3.024  69.309  1.00  0.00    -0.024 C  
HETATM    2  O   UNL     1      -6.241   4.397  69.021  1.00  0.00    -0.029 OA 
ENDROOT
BRANCH   2   3
HETATM    3  C   UNL     1      -6.152   5.204  70.112  1.00  0.00    -0.018 C  
HETATM    4  O   UNL     1      -5.135   5.789  70.452  1.00  0.00    -0.008 OA 
BRANCH   3   5
HETATM    5  C   UNL     1      -7.456   5.276  70.825  1.00  0.00    -0.075 C  
HETATM    6  C   UNL     1      -7.663   4.596  71.979  1.00  0.00    -0.091 C  
HETATM    7  N   UNL     1      -8.865   4.738  72.649  1.00  0.00    -0.114 NA 
HETATM    8  C   UNL     1      -6.718   3.638  72.666  1.00  0.00    -0.033 C  
HETATM    9  C   UNL     1      -9.982   5.379  72.156  1.00  0.00    -0.181 C  
HETATM   10  C   UNL     1     -11.215   5.284  73.028  1.00  0.00    -0.387 C  
HETATM   11  C   UNL     1      -9.910   6.037  70.974  1.00  0.00    -0.220 C  
HETATM   12  C   UNL     1      -8.581   6.141  70.211  1.00  0.00    -0.140 C  
BRANCH  11  13
HETATM   13  C   UNL     1     -11.168   6.592  70.410  1.00  0.00    -0.344 C  
HETATM   14  O   UNL     1     -12.221   5.972  70.418  1.00  0.00     0.356 OA 
BRANCH  13  15
HETATM   15  O   UNL     1     -11.018   7.870  69.988  1.00  0.00    -0.249 OA 
HETATM   16  C   UNL     1     -10.972  10.326  70.240  1.00  0.00    -0.309 C  
HETATM   17  C   UNL     1      -9.839   8.787  71.912  1.00  0.00    -0.395 C  
HETATM   18  C   UNL     1     -11.050   8.943  70.979  1.00  0.00    -0.276 C  
HETATM   19  C   UNL     1     -12.371   8.981  71.783  1.00  0.00    -0.438 C  
BRANCH  16  20
HETATM   20  N   UNL     1      -9.771  10.643  69.424  1.00  0.00    -0.167 NA 
HETATM   21  C   UNL     1      -8.579   9.999  69.983  1.00  0.00    -0.090 C  
BRANCH  20  22
HETATM   22  C   UNL     1      -9.928  10.135  68.044  1.00  0.00    -0.148 C  
BRANCH  22  23
HETATM   23  C   UNL     1     -10.556  11.099  67.036  1.00  0.00    -0.295 C  
HETATM   24  C   UNL     1      -9.605  11.784  66.021  1.00  0.00    -0.248 C  
HETATM   25  C   UNL     1     -10.396  12.925  65.360  1.00  0.00    -0.310 A  
HETATM   26  C   UNL     1      -8.933  10.774  65.087  1.00  0.00    -0.215 A  
HETATM   27  C   UNL     1      -9.938  14.248  65.453  1.00  0.00    -0.334 A  
HETATM   28  C   UNL     1      -9.490  10.341  63.874  1.00  0.00    -0.356 A  
HETATM   29  C   UNL     1     -10.755  15.313  65.058  1.00  0.00    -0.461 A  
HETATM   30  C   UNL     1      -8.892   9.324  63.124  1.00  0.00    -0.163 A  
HETATM   31  C   UNL     1      -7.723   8.719  63.567  1.00  0.00    -0.132 A  
HETATM   32  C   UNL     1     -12.031  15.072  64.550  1.00  0.00    -0.379 A  
HETATM   33  C   UNL     1     -12.482  13.767  64.406  1.00  0.00    -0.317 A  
HETATM   34  C   UNL     1      -7.136   9.143  64.753  1.00  0.00    -0.096 A  
HETATM   35  C   UNL     1      -7.732  10.166  65.499  1.00  0.00    -0.145 A  
HETATM   36  C   UNL     1     -11.673  12.705  64.807  1.00  0.00    -0.402 A  
ENDBRANCH  22  23
ENDBRANCH  20  22
ENDBRANCH  16  20
ENDBRANCH  13  15
ENDBRANCH  11  13
BRANCH  12  37
HETATM   37  C   UNL     1      -8.777   5.842  68.722  1.00  0.00    -0.108 A  
HETATM   38  O   UNL     1      -9.467   1.975  67.398  1.00  0.00    -0.097 OA 
HETATM   39  C   UNL     1      -9.084   4.532  68.303  1.00  0.00    -0.158 A  
HETATM   40  O   UNL     1      -9.479   2.613  65.300  1.00  0.00    -0.117 OA 
HETATM   41  C   UNL     1      -8.753   6.543  66.395  1.00  0.00    -0.142 A  
HETATM   42  C   UNL     1      -9.165   4.230  66.938  1.00  0.00    -0.148 A  
HETATM   43  N   UNL     1      -9.390   2.840  66.516  1.00  0.00    -0.077 N  
HETATM   44  C   UNL     1      -9.005   5.234  65.980  1.00  0.00    -0.144 A  
HETATM   45  C   UNL     1      -8.635   6.844  67.755  1.00  0.00    -0.122 A  
ENDBRANCH  12  37
ENDBRANCH   3   5
ENDBRANCH   2   3
TORSDOF 8
ENDMDL
MODEL      144
REMARK 921   NORMALIZED FREE ENERGY PREDICTED BY IDOCK:   -4.12 KCAL/MOL
REMARK 922        TOTAL FREE ENERGY PREDICTED BY IDOCK:   -7.96 KCAL/MOL
REMARK 923 INTER-LIGAND FREE ENERGY PREDICTED BY IDOCK:   -8.31 KCAL/MOL
REMARK 924 INTRA-LIGAND FREE ENERGY PREDICTED BY IDOCK:    0.34 KCAL/MOL
REMARK 927      BINDING AFFINITY PREDICTED BY RF-SCORE:    0.00 PKD
ROOT
HETATM    1  C   UNL     1      -5.598   4.426  67.631  1.00  0.00    -0.017 C  
HETATM    2  O   UNL     1      -6.677   4.656  68.544  1.00  0.00    -0.047 OA 
ENDROOT
BRANCH   2   3
HETATM    3  C   UNL     1      -6.286   4.661  69.847  1.00  0.00    -0.027 C  
HETATM    4  O   UNL     1      -5.157   4.393  70.226  1.00  0.00     0.000 OA 
BRANCH   3   5
HETATM    5  C   UNL     1      -7.417   5.040  70.737  1.00  0.00    -0.069 C  
HETATM    6  C   UNL     1      -8.343   4.126  71.121  1.00  0.00    -0.084 C  
HETATM    7  N   UNL     1      -9.344   4.496  72.002  1.00  0.00    -0.135 NA 
HETATM    8  C   UNL     1      -8.450   2.684  70.684  1.00  0.00    -0.092 C  
HETATM    9  C   UNL     1      -9.615   5.788  72.402  1.00  0.00    -0.149 C  
HETATM   10  C   UNL     1     -10.846   5.946  73.268  1.00  0.00    -0.291 C  
HETATM   11  C   UNL     1      -8.793   6.795  72.021  1.00  0.00    -0.134 C  
HETATM   12  C   UNL     1      -7.521   6.507  71.209  1.00  0.00    -0.089 C  
BRANCH  11  13
HETATM   13  C   UNL     1      -9.198   8.185  72.354  1.00  0.00    -0.226 C  
HETATM   14  O   UNL     1      -9.125   8.638  73.486  1.00  0.00    -0.162 OA 
BRANCH  13  15
HETATM   15  O   UNL     1      -9.556   8.889  71.254  1.00  0.00    -0.227 OA 
HETATM   16  C   UNL     1     -11.069   9.588  69.431  1.00  0.00    -0.110 C  
HETATM   17  C   UNL     1     -11.873   9.373  71.830  1.00  0.00    -0.452 C  
HETATM   18  C   UNL     1     -10.930   8.780  70.769  1.00  0.00    -0.247 C  
HETATM   19  C   UNL     1     -11.331   7.329  70.417  1.00  0.00    -0.299 C  
BRANCH  16  20
HETATM   20  N   UNL     1     -10.819  11.053  69.441  1.00  0.00    -0.238 NA 
HETATM   21  C   UNL     1      -9.410  11.341  69.159  1.00  0.00     0.102 C  
BRANCH  20  22
HETATM   22  C   UNL     1     -11.615  11.726  68.391  1.00  0.00    -0.318 C  
BRANCH  22  23
HETATM   23  C   UNL     1     -11.371  13.226  68.216  1.00  0.00    -0.335 C  
HETATM   24  C   UNL     1     -10.413  13.662  67.078  1.00  0.00    -0.270 C  
HETATM   25  C   UNL     1     -10.074  15.143  67.314  1.00  0.00    -0.235 A  
HETATM   26  C   UNL     1     -10.950  13.284  65.695  1.00  0.00    -0.292 A  
HETATM   27  C   UNL     1      -8.742  15.543  67.494  1.00  0.00    -0.183 A  
HETATM   28  C   UNL     1     -11.800  14.105  64.937  1.00  0.00    -0.407 A  
HETATM   29  C   UNL     1      -8.440  16.837  67.932  1.00  0.00    -0.200 A  
HETATM   30  C   UNL     1     -12.361  13.657  63.738  1.00  0.00    -0.357 A  
HETATM   31  C   UNL     1     -12.083  12.380  63.266  1.00  0.00    -0.519 A  
HETATM   32  C   UNL     1      -9.461  17.753  68.180  1.00  0.00    -0.282 A  
HETATM   33  C   UNL     1     -10.784  17.389  67.962  1.00  0.00    -0.359 A  
HETATM   34  C   UNL     1     -11.226  11.554  63.984  1.00  0.00    -0.414 A  
HETATM   35  C   UNL     1     -10.659  12.007  65.181  1.00  0.00    -0.330 A  
HETATM   36  C   UNL     1     -11.087  16.098  67.534  1.00  0.00    -0.175 A  
ENDBRANCH  22  23
ENDBRANCH  20  22
ENDBRANCH  16  20
ENDBRANCH  13  15
ENDBRANCH  11  13
BRANCH  12  37
HETATM   37  C   UNL     1      -7.380   7.489  70.042  1.00  0.00    -0.081 A  
HETATM   38  O   UNL     1      -5.192  10.985  70.452  1.00  0.00    -0.063 OA 
HETATM   39  C   UNL     1      -6.571   8.634  70.181  1.00  0.00    -0.038 A  
HETATM   40  O   UNL     1      -5.702  11.633  68.419  1.00  0.00    -0.046 OA 
HETATM   41  C   UNL     1      -7.975   8.225  67.803  1.00  0.00    -0.122 A  
HETATM   42  C   UNL     1      -6.517   9.587  69.157  1.00  0.00    -0.045 A  
HETATM   43  N   UNL     1      -5.745  10.822  69.356  1.00  0.00    -0.038 N  
HETATM   44  C   UNL     1      -7.215   9.384  67.964  1.00  0.00    -0.078 A  
HETATM   45  C   UNL     1      -8.062   7.286  68.836  1.00  0.00    -0.128 A  
ENDBRANCH  12  37
ENDBRANCH   3   5
ENDBRANCH   2   3
TORSDOF 8
ENDMDL
MODEL      145
REMARK 921   NORMALIZED FREE ENERGY PREDICTED BY IDOCK:   -4.02 KCAL/MOL
REMARK 922        TOTAL FREE ENERGY PREDICTED BY IDOCK:   -7.81 KCAL/MOL
REMARK 923 INTER-LIGAND FREE ENERGY PREDICTED BY IDOCK:   -6.32 KCAL/MOL
REMARK 924 INTRA-LIGAND FREE ENERGY PREDICTED BY IDOCK:   -1.49 KCAL/MOL
REMARK 927      BINDING AFFINITY PREDICTED BY RF-SCORE:    0.00 PKD
ROOT
HETATM    1  C   UNL     1     -10.390   3.070  63.826  1.00  0.00    -0.199 C  
HETATM    2  O   UNL     1      -9.998   3.747  65.025  1.00  0.00    -0.183 OA 
ENDROOT
BRANCH   2   3
HETATM    3  C   UNL     1      -8.663   3.997  65.089  1.00  0.00    -0.120 C  
HETATM    4  O   UNL     1      -7.818   3.154  65.352  1.00  0.00    -0.080 OA 
BRANCH   3   5
HETATM    5  C   UNL     1      -8.377   5.427  64.793  1.00  0.00    -0.145 C  
HETATM    6  C   UNL     1      -7.879   5.808  63.591  1.00  0.00    -0.106 C  
HETATM    7  N   UNL     1      -7.687   7.153  63.327  1.00  0.00    -0.112 NA 
HETATM    8  C   UNL     1      -7.463   4.919  62.442  1.00  0.00    -0.043 C  
HETATM    9  C   UNL     1      -7.783   8.169  64.254  1.00  0.00    -0.128 C  
HETATM   10  C   UNL     1      -7.398   9.541  63.745  1.00  0.00    -0.113 C  
HETATM   11  C   UNL     1      -8.208   7.892  65.511  1.00  0.00    -0.140 C  
HETATM   12  C   UNL     1      -8.654   6.474  65.895  1.00  0.00    -0.153 C  
BRANCH  11  13
HETATM   13  C   UNL     1      -8.161   8.986  66.515  1.00  0.00    -0.114 C  
HETATM   14  O   UNL     1      -7.200   9.165  67.248  1.00  0.00    -0.082 OA 
BRANCH  13  15
HETATM   15  O   UNL     1      -9.250   9.788  66.446  1.00  0.00    -0.149 OA 
HETATM   16  C   UNL     1     -11.305  10.860  67.298  1.00  0.00    -0.151 C  
HETATM   17  C   UNL     1      -9.184  10.739  68.688  1.00  0.00    -0.184 C  
HETATM   18  C   UNL     1     -10.045   9.995  67.654  1.00  0.00    -0.190 C  
HETATM   19  C   UNL     1     -10.604   8.677  68.241  1.00  0.00    -0.181 C  
BRANCH  16  20
HETATM   20  N   UNL     1     -11.113  12.235  66.769  1.00  0.00    -0.279 NA 
HETATM   21  C   UNL     1     -12.073  12.519  65.698  1.00  0.00    -0.400 C  
BRANCH  20  22
HETATM   22  C   UNL     1     -11.344  13.240  67.830  1.00  0.00    -0.295 C  
BRANCH  22  23
HETATM   23  C   UNL     1     -10.098  13.931  68.389  1.00  0.00    -0.237 C  
HETATM   24  C   UNL     1      -9.120  14.566  67.368  1.00  0.00    -0.201 C  
HETATM   25  C   UNL     1      -7.821  14.888  68.126  1.00  0.00    -0.122 A  
HETATM   26  C   UNL     1      -9.768  15.711  66.583  1.00  0.00    -0.266 A  
HETATM   27  C   UNL     1      -6.605  14.321  67.716  1.00  0.00    -0.189 A  
HETATM   28  C   UNL     1      -9.773  17.046  67.013  1.00  0.00    -0.264 A  
HETATM   29  C   UNL     1      -5.466  14.420  68.523  1.00  0.00    -0.099 A  
HETATM   30  C   UNL     1     -10.487  18.028  66.320  1.00  0.00    -0.340 A  
HETATM   31  C   UNL     1     -11.210  17.698  65.181  1.00  0.00     0.810 A  
HETATM   32  C   UNL     1      -5.521  15.100  69.738  1.00  0.00    -0.105 A  
HETATM   33  C   UNL     1      -6.704  15.709  70.137  1.00  0.00     0.072 A  
HETATM   34  C   UNL     1     -11.204  16.387  64.719  1.00  0.00    -0.219 A  
HETATM   35  C   UNL     1     -10.482  15.407  65.409  1.00  0.00    -0.426 A  
HETATM   36  C   UNL     1      -7.841  15.604  69.340  1.00  0.00    -0.222 A  
ENDBRANCH  22  23
ENDBRANCH  20  22
ENDBRANCH  16  20
ENDBRANCH  13  15
ENDBRANCH  11  13
BRANCH  12  37
HETATM   37  C   UNL     1      -8.052   6.054  67.239  1.00  0.00    -0.106 A  
HETATM   38  O   UNL     1     -10.443   5.597  70.594  1.00  0.00    -0.236 OA 
HETATM   39  C   UNL     1      -8.893   5.833  68.348  1.00  0.00    -0.109 A  
HETATM   40  O   UNL     1      -8.711   5.141  71.861  1.00  0.00    -0.127 OA 
HETATM   41  C   UNL     1      -6.130   5.586  68.651  1.00  0.00    -0.025 A  
HETATM   42  C   UNL     1      -8.345   5.548  69.604  1.00  0.00    -0.102 A  
HETATM   43  N   UNL     1      -9.230   5.416  70.769  1.00  0.00    -0.147 N  
HETATM   44  C   UNL     1      -6.962   5.419  69.759  1.00  0.00    -0.061 A  
HETATM   45  C   UNL     1      -6.670   5.905  67.402  1.00  0.00    -0.058 A  
ENDBRANCH  12  37
ENDBRANCH   3   5
ENDBRANCH   2   3
TORSDOF 8
ENDMDL
MODEL      146
REMARK 921   NORMALIZED FREE ENERGY PREDICTED BY IDOCK:   -4.01 KCAL/MOL
REMARK 922        TOTAL FREE ENERGY PREDICTED BY IDOCK:   -7.80 KCAL/MOL
REMARK 923 INTER-LIGAND FREE ENERGY PREDICTED BY IDOCK:   -8.91 KCAL/MOL
REMARK 924 INTRA-LIGAND FREE ENERGY PREDICTED BY IDOCK:    1.11 KCAL/MOL
REMARK 927      BINDING AFFINITY PREDICTED BY RF-SCORE:    0.00 PKD
ROOT
HETATM    1  C   UNL     1      -5.182   5.249  64.480  1.00  0.00    -0.009 C  
HETATM    2  O   UNL     1      -6.091   6.141  65.135  1.00  0.00    -0.028 OA 
ENDROOT
BRANCH   2   3
HETATM    3  C   UNL     1      -7.374   6.013  64.702  1.00  0.00    -0.071 C  
HETATM    4  O   UNL     1      -7.867   4.964  64.315  1.00  0.00    -0.080 OA 
BRANCH   3   5
HETATM    5  C   UNL     1      -8.088   7.317  64.768  1.00  0.00    -0.097 C  
HETATM    6  C   UNL     1      -7.903   8.266  63.818  1.00  0.00    -0.152 C  
HETATM    7  N   UNL     1      -8.632   9.441  63.875  1.00  0.00    -0.204 NA 
HETATM    8  C   UNL     1      -6.947   8.226  62.649  1.00  0.00    -0.090 C  
HETATM    9  C   UNL     1      -9.421   9.838  64.934  1.00  0.00    -0.265 C  
HETATM   10  C   UNL     1     -10.011  11.226  64.810  1.00  0.00    -0.327 C  
HETATM   11  C   UNL     1      -9.622   8.994  65.974  1.00  0.00    -0.342 C  
HETATM   12  C   UNL     1      -9.042   7.572  65.956  1.00  0.00    -0.139 C  
BRANCH  11  13
HETATM   13  C   UNL     1     -10.360   9.512  67.156  1.00  0.00    -0.253 C  
HETATM   14  O   UNL     1     -11.148   8.827  67.790  1.00  0.00     0.018 OA 
BRANCH  13  15
HETATM   15  O   UNL     1      -9.981  10.770  67.481  1.00  0.00    -0.169 OA 
HETATM   16  C   UNL     1      -9.241  12.569  69.003  1.00  0.00     0.475 C  
HETATM   17  C   UNL     1      -8.199  10.254  69.059  1.00  0.00    -0.139 C  
HETATM   18  C   UNL     1      -9.507  11.031  68.838  1.00  0.00    -0.155 C  
HETATM   19  C   UNL     1     -10.555  10.677  69.920  1.00  0.00    -0.203 C  
BRANCH  16  20
HETATM   20  N   UNL     1      -8.217  13.221  68.147  1.00  0.00    -0.152 NA 
HETATM   21  C   UNL     1      -7.409  12.218  67.448  1.00  0.00    -0.151 C  
BRANCH  20  22
HETATM   22  C   UNL     1      -8.858  14.057  67.108  1.00  0.00    -0.228 C  
BRANCH  22  23
HETATM   23  C   UNL     1      -8.835  15.568  67.347  1.00  0.00    -0.203 C  
HETATM   24  C   UNL     1     -10.201  16.278  67.529  1.00  0.00    -0.270 C  
HETATM   25  C   UNL     1      -9.942  17.790  67.418  1.00  0.00    -0.323 A  
HETATM   26  C   UNL     1     -10.943  15.791  68.777  1.00  0.00    -0.291 A  
HETATM   27  C   UNL     1     -10.594  18.547  66.432  1.00  0.00    -0.365 A  
HETATM   28  C   UNL     1     -10.777  16.352  70.052  1.00  0.00    -0.258 A  
HETATM   29  C   UNL     1     -10.202  19.865  66.172  1.00  0.00    -0.611 A  
HETATM   30  C   UNL     1     -11.384  15.787  71.177  1.00  0.00    -0.442 A  
HETATM   31  C   UNL     1     -12.173  14.650  71.054  1.00  0.00    -0.399 A  
HETATM   32  C   UNL     1      -9.168  20.450  66.903  1.00  0.00    -0.450 A  
HETATM   33  C   UNL     1      -8.545  19.731  67.915  1.00  0.00    -0.360 A  
HETATM   34  C   UNL     1     -12.374  14.086  69.799  1.00  0.00    -0.344 A  
HETATM   35  C   UNL     1     -11.771  14.658  68.673  1.00  0.00    -0.362 A  
HETATM   36  C   UNL     1      -8.928  18.416  68.169  1.00  0.00    -0.325 A  
ENDBRANCH  22  23
ENDBRANCH  20  22
ENDBRANCH  16  20
ENDBRANCH  13  15
ENDBRANCH  11  13
BRANCH  12  37
HETATM   37  C   UNL     1      -8.382   7.231  67.296  1.00  0.00    -0.119 A  
HETATM   38  O   UNL     1     -10.510   5.311  70.290  1.00  0.00    -0.279 OA 
HETATM   39  C   UNL     1      -9.102   6.513  68.271  1.00  0.00    -0.119 A  
HETATM   40  O   UNL     1      -8.809   5.414  71.671  1.00  0.00    -0.133 OA 
HETATM   41  C   UNL     1      -6.510   7.378  68.839  1.00  0.00    -0.040 A  
HETATM   42  C   UNL     1      -8.544   6.285  69.534  1.00  0.00    -0.132 A  
HETATM   43  N   UNL     1      -9.344   5.618  70.571  1.00  0.00    -0.158 N  
HETATM   44  C   UNL     1      -7.245   6.712  69.821  1.00  0.00    -0.077 A  
HETATM   45  C   UNL     1      -7.075   7.640  67.587  1.00  0.00    -0.085 A  
ENDBRANCH  12  37
ENDBRANCH   3   5
ENDBRANCH   2   3
TORSDOF 8
ENDMDL
MODEL      147
REMARK 921   NORMALIZED FREE ENERGY PREDICTED BY IDOCK:   -4.00 KCAL/MOL
REMARK 922        TOTAL FREE ENERGY PREDICTED BY IDOCK:   -7.78 KCAL/MOL
REMARK 923 INTER-LIGAND FREE ENERGY PREDICTED BY IDOCK:   -7.38 KCAL/MOL
REMARK 924 INTRA-LIGAND FREE ENERGY PREDICTED BY IDOCK:   -0.40 KCAL/MOL
REMARK 927      BINDING AFFINITY PREDICTED BY RF-SCORE:    0.00 PKD
ROOT
HETATM    1  C   UNL     1      -9.382  18.459  67.967  1.00  0.00    -0.291 C  
HETATM    2  O   UNL     1     -10.236  17.487  67.353  1.00  0.00    -0.313 OA 
ENDROOT
BRANCH   2   3
HETATM    3  C   UNL     1      -9.638  16.817  66.331  1.00  0.00    -0.281 C  
HETATM    4  O   UNL     1      -8.617  17.186  65.773  1.00  0.00    -0.525 OA 
BRANCH   3   5
HETATM    5  C   UNL     1     -10.395  15.580  65.996  1.00  0.00    -0.342 C  
HETATM    6  C   UNL     1     -11.224  15.534  64.924  1.00  0.00    -0.389 C  
HETATM    7  N   UNL     1     -11.861  14.348  64.604  1.00  0.00    -0.429 NA 
HETATM    8  C   UNL     1     -11.583  16.665  63.989  1.00  0.00     1.038 C  
HETATM    9  C   UNL     1     -11.884  13.218  65.393  1.00  0.00    -0.359 C  
HETATM   10  C   UNL     1     -12.760  12.095  64.881  1.00  0.00     0.061 C  
HETATM   11  C   UNL     1     -11.143  13.176  66.526  1.00  0.00    -0.317 C  
HETATM   12  C   UNL     1     -10.222  14.344  66.907  1.00  0.00    -0.265 C  
BRANCH  11  13
HETATM   13  C   UNL     1     -11.305  11.998  67.418  1.00  0.00    -0.327 C  
HETATM   14  O   UNL     1     -12.119  11.971  68.329  1.00  0.00    -0.447 OA 
BRANCH  13  15
HETATM   15  O   UNL     1     -10.524  10.960  67.039  1.00  0.00    -0.221 OA 
HETATM   16  C   UNL     1      -8.412   9.696  66.841  1.00  0.00    -0.120 C  
HETATM   17  C   UNL     1      -9.135  10.759  69.030  1.00  0.00    -0.153 C  
HETATM   18  C   UNL     1      -9.138  10.920  67.501  1.00  0.00    -0.140 C  
HETATM   19  C   UNL     1      -8.324  12.162  67.070  1.00  0.00    -0.173 C  
BRANCH  16  20
HETATM   20  N   UNL     1      -8.909   8.323  67.119  1.00  0.00    -0.135 NA 
HETATM   21  C   UNL     1      -8.910   7.514  65.897  1.00  0.00    -0.126 C  
BRANCH  20  22
HETATM   22  C   UNL     1      -8.031   7.635  68.090  1.00  0.00    -0.123 C  
BRANCH  22  23
HETATM   23  C   UNL     1      -8.387   6.181  68.410  1.00  0.00    -0.114 C  
HETATM   24  C   UNL     1      -8.574   5.809  69.904  1.00  0.00    -0.127 C  
HETATM   25  C   UNL     1      -8.589   4.274  69.988  1.00  0.00    -0.101 A  
HETATM   26  C   UNL     1      -9.753   6.551  70.540  1.00  0.00    -0.186 A  
HETATM   27  C   UNL     1      -7.642   3.601  70.775  1.00  0.00    -0.040 A  
HETATM   28  C   UNL     1     -11.073   6.076  70.527  1.00  0.00    -0.385 A  
HETATM   29  C   UNL     1      -7.499   2.212  70.683  1.00  0.00    -0.033 A  
HETATM   30  C   UNL     1     -12.128   6.853  71.011  1.00  0.00    -0.429 A  
HETATM   31  C   UNL     1     -11.889   8.122  71.524  1.00  0.00    -0.332 A  
HETATM   32  C   UNL     1      -8.310   1.475  69.820  1.00  0.00    -0.068 A  
HETATM   33  C   UNL     1      -9.285   2.119  69.070  1.00  0.00    -0.201 A  
HETATM   34  C   UNL     1     -10.588   8.610  71.570  1.00  0.00    -0.352 A  
HETATM   35  C   UNL     1      -9.532   7.827  71.091  1.00  0.00    -0.169 A  
HETATM   36  C   UNL     1      -9.423   3.504  69.153  1.00  0.00    -0.224 A  
ENDBRANCH  22  23
ENDBRANCH  20  22
ENDBRANCH  16  20
ENDBRANCH  13  15
ENDBRANCH  11  13
BRANCH  12  37
HETATM   37  C   UNL     1     -10.376  14.705  68.387  1.00  0.00    -0.237 A  
HETATM   38  O   UNL     1     -14.114  15.417  70.029  1.00  0.00     0.820 OA 
HETATM   39  C   UNL     1     -11.661  14.870  68.941  1.00  0.00    -0.339 A  
HETATM   40  O   UNL     1     -13.247  15.914  71.981  1.00  0.00    -0.449 OA 
HETATM   41  C   UNL     1      -9.413  15.292  70.541  1.00  0.00     0.906 A  
HETATM   42  C   UNL     1     -11.809  15.298  70.266  1.00  0.00    -0.318 A  
HETATM   43  N   UNL     1     -13.153  15.558  70.798  1.00  0.00    -0.460 N  
HETATM   44  C   UNL     1     -10.686  15.506  71.071  1.00  0.00    -0.066 A  
HETATM   45  C   UNL     1      -9.258  14.900  69.208  1.00  0.00    -0.100 A  
ENDBRANCH  12  37
ENDBRANCH   3   5
ENDBRANCH   2   3
TORSDOF 8
ENDMDL
MODEL      148
REMARK 921   NORMALIZED FREE ENERGY PREDICTED BY IDOCK:   -3.95 KCAL/MOL
REMARK 922        TOTAL FREE ENERGY PREDICTED BY IDOCK:   -7.71 KCAL/MOL
REMARK 923 INTER-LIGAND FREE ENERGY PREDICTED BY IDOCK:   -8.92 KCAL/MOL
REMARK 924 INTRA-LIGAND FREE ENERGY PREDICTED BY IDOCK:    1.21 KCAL/MOL
REMARK 927      BINDING AFFINITY PREDICTED BY RF-SCORE:    0.00 PKD
ROOT
HETATM    1  C   UNL     1      -5.490   3.361  69.436  1.00  0.00    -0.016 C  
HETATM    2  O   UNL     1      -6.158   4.534  68.958  1.00  0.00    -0.027 OA 
ENDROOT
BRANCH   2   3
HETATM    3  C   UNL     1      -6.102   5.577  69.828  1.00  0.00    -0.022 C  
HETATM    4  O   UNL     1      -5.127   6.298  69.974  1.00  0.00    -0.012 OA 
BRANCH   3   5
HETATM    5  C   UNL     1      -7.384   5.717  70.570  1.00  0.00    -0.084 C  
HETATM    6  C   UNL     1      -7.534   5.203  71.816  1.00  0.00    -0.090 C  
HETATM    7  N   UNL     1      -8.718   5.408  72.502  1.00  0.00    -0.124 NA 
HETATM    8  C   UNL     1      -6.539   4.376  72.596  1.00  0.00    -0.045 C  
HETATM    9  C   UNL     1      -9.868   5.945  71.963  1.00  0.00    -0.157 C  
HETATM   10  C   UNL     1     -11.069   5.944  72.884  1.00  0.00    -0.306 C  
HETATM   11  C   UNL     1      -9.853   6.430  70.698  1.00  0.00    -0.206 C  
HETATM   12  C   UNL     1      -8.553   6.457  69.882  1.00  0.00    -0.138 C  
BRANCH  11  13
HETATM   13  C   UNL     1     -11.145   6.868  70.108  1.00  0.00    -0.299 C  
HETATM   14  O   UNL     1     -12.121   6.136  70.047  1.00  0.00     0.053 OA 
BRANCH  13  15
HETATM   15  O   UNL     1     -11.124   8.173  69.747  1.00  0.00    -0.183 OA 
HETATM   16  C   UNL     1     -11.411  10.601  70.091  1.00  0.00    -0.329 C  
HETATM   17  C   UNL     1     -10.231   9.137  71.798  1.00  0.00    -0.305 C  
HETATM   18  C   UNL     1     -11.373   9.187  70.769  1.00  0.00    -0.280 C  
HETATM   19  C   UNL     1     -12.749   9.023  71.457  1.00  0.00    -0.399 C  
BRANCH  16  20
HETATM   20  N   UNL     1     -10.198  11.102  69.394  1.00  0.00    -0.086 NA 
HETATM   21  C   UNL     1      -9.301   9.994  69.052  1.00  0.00    -0.181 C  
BRANCH  20  22
HETATM   22  C   UNL     1     -10.562  11.768  68.125  1.00  0.00    -0.203 C  
BRANCH  22  23
HETATM   23  C   UNL     1     -10.248  13.263  68.032  1.00  0.00    -0.240 C  
HETATM   24  C   UNL     1      -9.543  13.762  66.744  1.00  0.00    -0.283 C  
HETATM   25  C   UNL     1      -9.045  15.189  67.025  1.00  0.00    -0.249 A  
HETATM   26  C   UNL     1     -10.409  13.561  65.497  1.00  0.00    -0.309 A  
HETATM   27  C   UNL     1      -7.679  15.494  66.922  1.00  0.00    -0.200 A  
HETATM   28  C   UNL     1     -11.342  14.501  65.036  1.00  0.00    -0.377 A  
HETATM   29  C   UNL     1      -7.186  16.716  67.392  1.00  0.00    -0.184 A  
HETATM   30  C   UNL     1     -12.194  14.213  63.966  1.00  0.00    -0.369 A  
HETATM   31  C   UNL     1     -12.131  12.979  63.331  1.00  0.00    -0.591 A  
HETATM   32  C   UNL     1      -8.049  17.656  67.952  1.00  0.00    -0.233 A  
HETATM   33  C   UNL     1      -9.411  17.391  68.018  1.00  0.00    -0.276 A  
HETATM   34  C   UNL     1     -11.200  12.036  63.752  1.00  0.00    -0.516 A  
HETATM   35  C   UNL     1     -10.343  12.330  64.818  1.00  0.00    -0.320 A  
HETATM   36  C   UNL     1      -9.903  16.170  67.560  1.00  0.00    -0.237 A  
ENDBRANCH  22  23
ENDBRANCH  20  22
ENDBRANCH  16  20
ENDBRANCH  13  15
ENDBRANCH  11  13
BRANCH  12  37
HETATM   37  C   UNL     1      -8.788   5.945  68.458  1.00  0.00    -0.111 A  
HETATM   38  O   UNL     1      -8.593   1.897  67.590  1.00  0.00    -0.073 OA 
HETATM   39  C   UNL     1      -8.790   4.560  68.200  1.00  0.00    -0.123 A  
HETATM   40  O   UNL     1      -8.934   2.260  65.454  1.00  0.00    -0.124 OA 
HETATM   41  C   UNL     1      -9.129   6.350  66.085  1.00  0.00    -0.150 A  
HETATM   42  C   UNL     1      -8.903   4.087  66.887  1.00  0.00    -0.122 A  
HETATM   43  N   UNL     1      -8.807   2.644  66.626  1.00  0.00    -0.124 N  
HETATM   44  C   UNL     1      -9.077   4.979  65.827  1.00  0.00    -0.154 A  
HETATM   45  C   UNL     1      -8.981   6.830  67.390  1.00  0.00    -0.115 A  
ENDBRANCH  12  37
ENDBRANCH   3   5
ENDBRANCH   2   3
TORSDOF 8
ENDMDL
MODEL      149
REMARK 921   NORMALIZED FREE ENERGY PREDICTED BY IDOCK:   -3.95 KCAL/MOL
REMARK 922        TOTAL FREE ENERGY PREDICTED BY IDOCK:   -7.71 KCAL/MOL
REMARK 923 INTER-LIGAND FREE ENERGY PREDICTED BY IDOCK:   -6.51 KCAL/MOL
REMARK 924 INTRA-LIGAND FREE ENERGY PREDICTED BY IDOCK:   -1.21 KCAL/MOL
REMARK 927      BINDING AFFINITY PREDICTED BY RF-SCORE:    0.00 PKD
ROOT
HETATM    1  C   UNL     1     -12.478  12.598  63.139  1.00  0.00    -0.104 C  
HETATM    2  O   UNL     1     -11.785  11.476  63.695  1.00  0.00    -0.376 OA 
ENDROOT
BRANCH   2   3
HETATM    3  C   UNL     1     -10.432  11.608  63.659  1.00  0.00    -0.429 C  
HETATM    4  O   UNL     1      -9.767  11.584  62.635  1.00  0.00    -0.263 OA 
BRANCH   3   5
HETATM    5  C   UNL     1      -9.881  11.789  65.030  1.00  0.00    -0.257 C  
HETATM    6  C   UNL     1      -9.816  13.016  65.603  1.00  0.00    -0.170 C  
HETATM    7  N   UNL     1      -9.359  13.139  66.903  1.00  0.00    -0.240 NA 
HETATM    8  C   UNL     1     -10.175  14.345  64.978  1.00  0.00    -0.406 C  
HETATM    9  C   UNL     1      -8.773  12.132  67.640  1.00  0.00    -0.172 C  
HETATM   10  C   UNL     1      -8.238  12.554  68.991  1.00  0.00     0.367 C  
HETATM   11  C   UNL     1      -8.722  10.875  67.137  1.00  0.00    -0.132 C  
HETATM   12  C   UNL     1      -9.374  10.542  65.787  1.00  0.00    -0.229 C  
BRANCH  11  13
HETATM   13  C   UNL     1      -7.959   9.853  67.899  1.00  0.00    -0.104 C  
HETATM   14  O   UNL     1      -6.803   9.561  67.631  1.00  0.00    -0.073 OA 
BRANCH  13  15
HETATM   15  O   UNL     1      -8.660   9.375  68.954  1.00  0.00    -0.125 OA 
HETATM   16  C   UNL     1     -10.414   8.034  70.060  1.00  0.00    -0.228 C  
HETATM   17  C   UNL     1      -8.949   7.069  68.225  1.00  0.00    -0.128 C  
HETATM   18  C   UNL     1      -9.663   8.339  68.717  1.00  0.00    -0.157 C  
HETATM   19  C   UNL     1     -10.761   8.781  67.722  1.00  0.00    -0.193 C  
BRANCH  16  20
HETATM   20  N   UNL     1      -9.643   7.512  71.218  1.00  0.00    -0.157 NA 
HETATM   21  C   UNL     1      -9.674   8.463  72.333  1.00  0.00    -0.306 C  
BRANCH  20  22
HETATM   22  C   UNL     1     -10.234   6.250  71.714  1.00  0.00    -0.196 C  
BRANCH  22  23
HETATM   23  C   UNL     1      -9.959   4.999  70.876  1.00  0.00    -0.286 C  
HETATM   24  C   UNL     1      -8.475   4.622  70.630  1.00  0.00    -0.108 C  
HETATM   25  C   UNL     1      -8.457   3.562  69.517  1.00  0.00    -0.095 A  
HETATM   26  C   UNL     1      -7.745   4.276  71.931  1.00  0.00    -0.079 A  
HETATM   27  C   UNL     1      -7.752   3.800  68.327  1.00  0.00    -0.065 A  
HETATM   28  C   UNL     1      -7.708   2.988  72.486  1.00  0.00    -0.058 A  
HETATM   29  C   UNL     1      -7.912   2.954  67.224  1.00  0.00    -0.077 A  
HETATM   30  C   UNL     1      -7.133   2.754  73.738  1.00  0.00    -0.036 A  
HETATM   31  C   UNL     1      -6.580   3.801  74.464  1.00  0.00    -0.040 A  
HETATM   32  C   UNL     1      -8.761   1.850  67.299  1.00  0.00    -0.131 A  
HETATM   33  C   UNL     1      -9.429   1.572  68.485  1.00  0.00    -0.233 A  
HETATM   34  C   UNL     1      -6.582   5.085  73.929  1.00  0.00    -0.069 A  
HETATM   35  C   UNL     1      -7.151   5.315  72.671  1.00  0.00    -0.087 A  
HETATM   36  C   UNL     1      -9.278   2.419  69.581  1.00  0.00    -0.192 A  
ENDBRANCH  22  23
ENDBRANCH  20  22
ENDBRANCH  16  20
ENDBRANCH  13  15
ENDBRANCH  11  13
BRANCH  12  37
HETATM   37  C   UNL     1      -8.438   9.694  64.920  1.00  0.00    -0.161 A  
HETATM   38  O   UNL     1      -8.806   5.568  64.794  1.00  0.00    -0.098 OA 
HETATM   39  C   UNL     1      -8.629   8.301  64.835  1.00  0.00    -0.075 A  
HETATM   40  O   UNL     1      -7.066   5.376  63.473  1.00  0.00    -0.045 OA 
HETATM   41  C   UNL     1      -6.488   9.478  63.486  1.00  0.00    -0.103 A  
HETATM   42  C   UNL     1      -7.719   7.506  64.127  1.00  0.00    -0.132 A  
HETATM   43  N   UNL     1      -7.878   6.046  64.129  1.00  0.00    -0.112 N  
HETATM   44  C   UNL     1      -6.649   8.092  63.447  1.00  0.00    -0.080 A  
HETATM   45  C   UNL     1      -7.373  10.273  64.220  1.00  0.00    -0.066 A  
ENDBRANCH  12  37
ENDBRANCH   3   5
ENDBRANCH   2   3
TORSDOF 8
ENDMDL
MODEL      150
REMARK 921   NORMALIZED FREE ENERGY PREDICTED BY IDOCK:   -3.90 KCAL/MOL
REMARK 922        TOTAL FREE ENERGY PREDICTED BY IDOCK:   -7.63 KCAL/MOL
REMARK 923 INTER-LIGAND FREE ENERGY PREDICTED BY IDOCK:   -7.41 KCAL/MOL
REMARK 924 INTRA-LIGAND FREE ENERGY PREDICTED BY IDOCK:   -0.23 KCAL/MOL
REMARK 927      BINDING AFFINITY PREDICTED BY RF-SCORE:    0.00 PKD
ROOT
HETATM    1  C   UNL     1     -13.112  12.006  71.555  1.00  0.00    -0.261 C  
HETATM    2  O   UNL     1     -11.964  11.729  70.746  1.00  0.00    -0.319 OA 
ENDROOT
BRANCH   2   3
HETATM    3  C   UNL     1     -12.066  10.566  70.049  1.00  0.00    -0.274 C  
HETATM    4  O   UNL     1     -13.118   9.986  69.832  1.00  0.00     0.218 OA 
BRANCH   3   5
HETATM    5  C   UNL     1     -10.727  10.105  69.590  1.00  0.00    -0.295 C  
HETATM    6  C   UNL     1      -9.881   9.462  70.432  1.00  0.00    -0.259 C  
HETATM    7  N   UNL     1      -8.671   8.989  69.955  1.00  0.00    -0.145 NA 
HETATM    8  C   UNL     1     -10.077   9.190  71.905  1.00  0.00    -0.196 C  
HETATM    9  C   UNL     1      -8.139   9.272  68.714  1.00  0.00    -0.104 C  
HETATM   10  C   UNL     1      -6.741   8.742  68.480  1.00  0.00    -0.060 C  
HETATM   11  C   UNL     1      -8.872   9.969  67.813  1.00  0.00    -0.125 C  
HETATM   12  C   UNL     1     -10.316  10.385  68.128  1.00  0.00    -0.202 C  
BRANCH  11  13
HETATM   13  C   UNL     1      -8.210  10.373  66.545  1.00  0.00    -0.131 C  
HETATM   14  O   UNL     1      -7.800  11.507  66.351  1.00  0.00    -0.123 OA 
BRANCH  13  15
HETATM   15  O   UNL     1      -8.044   9.328  65.701  1.00  0.00    -0.107 OA 
HETATM   16  C   UNL     1      -7.970   8.211  63.500  1.00  0.00    -0.145 C  
HETATM   17  C   UNL     1      -6.860  10.459  63.898  1.00  0.00     0.014 C  
HETATM   18  C   UNL     1      -8.067   9.580  64.262  1.00  0.00    -0.142 C  
HETATM   19  C   UNL     1      -9.389  10.224  63.784  1.00  0.00    -0.339 C  
BRANCH  16  20
HETATM   20  N   UNL     1      -6.764   7.364  63.684  1.00  0.00    -0.052 NA 
HETATM   21  C   UNL     1      -6.394   7.288  65.101  1.00  0.00    -0.038 C  
BRANCH  20  22
HETATM   22  C   UNL     1      -7.023   5.979  63.234  1.00  0.00    -0.048 C  
BRANCH  22  23
HETATM   23  C   UNL     1      -6.620   4.866  64.204  1.00  0.00    -0.042 C  
HETATM   24  C   UNL     1      -7.746   4.226  65.057  1.00  0.00    -0.085 C  
HETATM   25  C   UNL     1      -7.063   3.400  66.159  1.00  0.00    -0.063 A  
HETATM   26  C   UNL     1      -8.787   3.507  64.194  1.00  0.00    -0.101 A  
HETATM   27  C   UNL     1      -7.309   3.686  67.511  1.00  0.00    -0.066 A  
HETATM   28  C   UNL     1      -8.681   2.165  63.801  1.00  0.00    -0.086 A  
HETATM   29  C   UNL     1      -6.529   3.101  68.515  1.00  0.00    -0.033 A  
HETATM   30  C   UNL     1      -9.596   1.596  62.911  1.00  0.00    -0.090 A  
HETATM   31  C   UNL     1     -10.638   2.355  62.394  1.00  0.00    -0.131 A  
HETATM   32  C   UNL     1      -5.507   2.212  68.186  1.00  0.00    -0.017 A  
HETATM   33  C   UNL     1      -5.281   1.881  66.856  1.00  0.00    -0.008 A  
HETATM   34  C   UNL     1     -10.781   3.682  62.784  1.00  0.00    -0.180 A  
HETATM   35  C   UNL     1      -9.869   4.247  63.682  1.00  0.00    -0.037 A  
HETATM   36  C   UNL     1      -6.051   2.469  65.854  1.00  0.00    -0.023 A  
ENDBRANCH  22  23
ENDBRANCH  20  22
ENDBRANCH  16  20
ENDBRANCH  13  15
ENDBRANCH  11  13
BRANCH  12  37
HETATM   37  C   UNL     1     -10.564  11.845  67.739  1.00  0.00    -0.233 A  
HETATM   38  O   UNL     1     -13.070  12.816  64.584  1.00  0.00    -0.760 OA 
HETATM   39  C   UNL     1     -11.476  12.154  66.711  1.00  0.00    -0.418 A  
HETATM   40  O   UNL     1     -12.648  14.957  64.807  1.00  0.00    -0.364 OA 
HETATM   41  C   UNL     1     -10.069  14.215  67.962  1.00  0.00    -0.233 A  
HETATM   42  C   UNL     1     -11.633  13.478  66.282  1.00  0.00    -0.345 A  
HETATM   43  N   UNL     1     -12.517  13.771  65.145  1.00  0.00    -0.446 N  
HETATM   44  C   UNL     1     -10.934  14.512  66.908  1.00  0.00    -0.316 A  
HETATM   45  C   UNL     1      -9.881  12.891  68.372  1.00  0.00    -0.197 A  
ENDBRANCH  12  37
ENDBRANCH   3   5
ENDBRANCH   2   3
TORSDOF 8
ENDMDL
MODEL      151
REMARK 921   NORMALIZED FREE ENERGY PREDICTED BY IDOCK:   -3.90 KCAL/MOL
REMARK 922        TOTAL FREE ENERGY PREDICTED BY IDOCK:   -7.63 KCAL/MOL
REMARK 923 INTER-LIGAND FREE ENERGY PREDICTED BY IDOCK:   -7.99 KCAL/MOL
REMARK 924 INTRA-LIGAND FREE ENERGY PREDICTED BY IDOCK:    0.36 KCAL/MOL
REMARK 927      BINDING AFFINITY PREDICTED BY RF-SCORE:    0.00 PKD
ROOT
HETATM    1  C   UNL     1      -8.352   3.889  73.883  1.00  0.00    -0.091 C  
HETATM    2  O   UNL     1      -9.312   4.476  72.998  1.00  0.00    -0.121 OA 
ENDROOT
BRANCH   2   3
HETATM    3  C   UNL     1      -9.819   3.595  72.094  1.00  0.00    -0.170 C  
HETATM    4  O   UNL     1     -10.497   2.623  72.389  1.00  0.00    -0.139 OA 
BRANCH   3   5
HETATM    5  C   UNL     1      -9.438   3.981  70.709  1.00  0.00    -0.240 C  
HETATM    6  C   UNL     1      -8.393   3.388  70.078  1.00  0.00    -0.051 C  
HETATM    7  N   UNL     1      -8.107   3.724  68.767  1.00  0.00    -0.069 NA 
HETATM    8  C   UNL     1      -7.434   2.368  70.646  1.00  0.00    -0.033 C  
HETATM    9  C   UNL     1      -8.680   4.766  68.068  1.00  0.00    -0.103 C  
HETATM   10  C   UNL     1      -8.102   5.009  66.691  1.00  0.00    -0.108 C  
HETATM   11  C   UNL     1      -9.690   5.474  68.628  1.00  0.00    -0.186 C  
HETATM   12  C   UNL     1     -10.256   5.085  70.002  1.00  0.00    -0.339 C  
BRANCH  11  13
HETATM   13  C   UNL     1     -10.182   6.674  67.903  1.00  0.00    -0.171 C  
HETATM   14  O   UNL     1     -11.227   6.677  67.270  1.00  0.00    -0.366 OA 
BRANCH  13  15
HETATM   15  O   UNL     1      -9.391   7.753  68.109  1.00  0.00    -0.145 OA 
HETATM   16  C   UNL     1      -8.294   9.881  67.501  1.00  0.00    -0.114 C  
HETATM   17  C   UNL     1     -10.750   9.454  67.016  1.00  0.00    -0.207 C  
HETATM   18  C   UNL     1      -9.359   8.803  67.093  1.00  0.00    -0.150 C  
HETATM   19  C   UNL     1      -8.910   8.285  65.707  1.00  0.00    -0.194 C  
BRANCH  16  20
HETATM   20  N   UNL     1      -8.475  10.632  68.770  1.00  0.00    -0.141 NA 
HETATM   21  C   UNL     1      -7.248  11.350  69.127  1.00  0.00    -0.102 C  
BRANCH  20  22
HETATM   22  C   UNL     1      -9.541  11.648  68.629  1.00  0.00    -0.133 C  
BRANCH  22  23
HETATM   23  C   UNL     1      -9.077  13.086  68.387  1.00  0.00    -0.129 C  
HETATM   24  C   UNL     1     -10.175  14.167  68.216  1.00  0.00    -0.243 C  
HETATM   25  C   UNL     1      -9.487  15.427  67.664  1.00  0.00    -0.205 A  
HETATM   26  C   UNL     1     -11.022  14.336  69.481  1.00  0.00    -0.206 A  
HETATM   27  C   UNL     1      -9.894  15.973  66.438  1.00  0.00    -0.308 A  
HETATM   28  C   UNL     1     -10.693  15.209  70.529  1.00  0.00    -0.184 A  
HETATM   29  C   UNL     1      -9.135  16.972  65.818  1.00  0.00     0.101 A  
HETATM   30  C   UNL     1     -11.434  15.231  71.714  1.00  0.00    -0.494 A  
HETATM   31  C   UNL     1     -12.520  14.382  71.879  1.00  0.00    -0.387 A  
HETATM   32  C   UNL     1      -7.973  17.451  66.421  1.00  0.00    -0.325 A  
HETATM   33  C   UNL     1      -7.582  16.955  67.658  1.00  0.00    -0.180 A  
HETATM   34  C   UNL     1     -12.883  13.521  70.849  1.00  0.00    -0.298 A  
HETATM   35  C   UNL     1     -12.145  13.507  69.660  1.00  0.00    -0.365 A  
HETATM   36  C   UNL     1      -8.331  15.954  68.272  1.00  0.00    -0.165 A  
ENDBRANCH  22  23
ENDBRANCH  20  22
ENDBRANCH  16  20
ENDBRANCH  13  15
ENDBRANCH  11  13
BRANCH  12  37
HETATM   37  C   UNL     1     -10.431   6.318  70.893  1.00  0.00    -0.274 A  
HETATM   38  O   UNL     1      -7.502   7.417  73.612  1.00  0.00    -0.094 OA 
HETATM   39  C   UNL     1      -9.391   6.715  71.757  1.00  0.00    -0.148 A  
HETATM   40  O   UNL     1      -8.717   9.081  74.364  1.00  0.00     0.652 OA 
HETATM   41  C   UNL     1     -11.792   8.140  71.752  1.00  0.00    -0.346 A  
HETATM   42  C   UNL     1      -9.581   7.779  72.646  1.00  0.00    -0.202 A  
HETATM   43  N   UNL     1      -8.522   8.119  73.607  1.00  0.00    -0.245 N  
HETATM   44  C   UNL     1     -10.779   8.498  72.644  1.00  0.00    -0.205 A  
HETATM   45  C   UNL     1     -11.621   7.056  70.887  1.00  0.00    -0.370 A  
ENDBRANCH  12  37
ENDBRANCH   3   5
ENDBRANCH   2   3
TORSDOF 8
ENDMDL
MODEL      152
REMARK 921   NORMALIZED FREE ENERGY PREDICTED BY IDOCK:   -3.89 KCAL/MOL
REMARK 922        TOTAL FREE ENERGY PREDICTED BY IDOCK:   -7.62 KCAL/MOL
REMARK 923 INTER-LIGAND FREE ENERGY PREDICTED BY IDOCK:   -7.71 KCAL/MOL
REMARK 924 INTRA-LIGAND FREE ENERGY PREDICTED BY IDOCK:    0.09 KCAL/MOL
REMARK 927      BINDING AFFINITY PREDICTED BY RF-SCORE:    0.00 PKD
ROOT
HETATM    1  C   UNL     1     -12.147  13.727  69.091  1.00  0.00    -0.333 C  
HETATM    2  O   UNL     1     -11.645  12.836  68.089  1.00  0.00    -0.292 OA 
ENDROOT
BRANCH   2   3
HETATM    3  C   UNL     1     -10.552  13.319  67.439  1.00  0.00    -0.246 C  
HETATM    4  O   UNL     1      -9.956  14.336  67.760  1.00  0.00    -0.222 OA 
BRANCH   3   5
HETATM    5  C   UNL     1     -10.186  12.442  66.294  1.00  0.00    -0.258 C  
HETATM    6  C   UNL     1     -11.060  12.206  65.284  1.00  0.00    -0.321 C  
HETATM    7  N   UNL     1     -10.663  11.438  64.204  1.00  0.00    -0.352 NA 
HETATM    8  C   UNL     1     -12.492  12.676  65.177  1.00  0.00    -0.531 C  
HETATM    9  C   UNL     1      -9.493  10.713  64.128  1.00  0.00    -0.281 C  
HETATM   10  C   UNL     1      -9.352   9.849  62.894  1.00  0.00    -0.232 C  
HETATM   11  C   UNL     1      -8.573  10.819  65.117  1.00  0.00    -0.133 C  
HETATM   12  C   UNL     1      -8.784  11.793  66.286  1.00  0.00    -0.106 C  
BRANCH  11  13
HETATM   13  C   UNL     1      -7.394   9.916  65.068  1.00  0.00    -0.135 C  
HETATM   14  O   UNL     1      -6.353  10.224  64.508  1.00  0.00    -0.130 OA 
BRANCH  13  15
HETATM   15  O   UNL     1      -7.589   8.784  65.784  1.00  0.00    -0.084 OA 
HETATM   16  C   UNL     1      -7.397   6.368  66.260  1.00  0.00    -0.080 C  
HETATM   17  C   UNL     1      -5.409   7.741  65.479  1.00  0.00    -0.029 C  
HETATM   18  C   UNL     1      -6.929   7.555  65.347  1.00  0.00    -0.059 C  
HETATM   19  C   UNL     1      -7.317   7.144  63.907  1.00  0.00    -0.088 C  
BRANCH  16  20
HETATM   20  N   UNL     1      -7.107   6.417  67.716  1.00  0.00    -0.082 NA 
HETATM   21  C   UNL     1      -6.109   7.450  68.012  1.00  0.00    -0.035 C  
BRANCH  20  22
HETATM   22  C   UNL     1      -8.324   6.765  68.481  1.00  0.00    -0.120 C  
BRANCH  22  23
HETATM   23  C   UNL     1      -8.492   6.073  69.835  1.00  0.00    -0.130 C  
HETATM   24  C   UNL     1      -9.509   4.904  69.913  1.00  0.00    -0.229 C  
HETATM   25  C   UNL     1      -9.740   4.606  71.404  1.00  0.00    -0.246 A  
HETATM   26  C   UNL     1      -9.102   3.725  69.024  1.00  0.00    -0.199 A  
HETATM   27  C   UNL     1     -11.030   4.696  71.950  1.00  0.00     0.169 A  
HETATM   28  C   UNL     1      -8.266   2.681  69.448  1.00  0.00    -0.068 A  
HETATM   29  C   UNL     1     -11.220   4.653  73.335  1.00  0.00    -0.423 A  
HETATM   30  C   UNL     1      -7.827   1.697  68.557  1.00  0.00    -0.052 A  
HETATM   31  C   UNL     1      -8.215   1.733  67.224  1.00  0.00    -0.075 A  
HETATM   32  C   UNL     1     -10.131   4.501  74.192  1.00  0.00    -0.234 A  
HETATM   33  C   UNL     1      -8.853   4.362  73.667  1.00  0.00    -0.101 A  
HETATM   34  C   UNL     1      -9.061   2.744  66.781  1.00  0.00    -0.164 A  
HETATM   35  C   UNL     1      -9.506   3.723  67.676  1.00  0.00    -0.234 A  
HETATM   36  C   UNL     1      -8.660   4.414  72.288  1.00  0.00    -0.118 A  
ENDBRANCH  22  23
ENDBRANCH  20  22
ENDBRANCH  16  20
ENDBRANCH  13  15
ENDBRANCH  11  13
BRANCH  12  37
HETATM   37  C   UNL     1      -8.461  11.123  67.624  1.00  0.00    -0.122 A  
HETATM   38  O   UNL     1     -11.460   9.460  69.952  1.00  0.00    -0.161 OA 
HETATM   39  C   UNL     1      -9.486  10.500  68.363  1.00  0.00    -0.158 A  
HETATM   40  O   UNL     1     -10.042   8.937  71.542  1.00  0.00    -0.267 OA 
HETATM   41  C   UNL     1      -6.896  10.575  69.402  1.00  0.00    -0.088 A  
HETATM   42  C   UNL     1      -9.220   9.974  69.633  1.00  0.00    -0.215 A  
HETATM   43  N   UNL     1     -10.319   9.413  70.431  1.00  0.00    -0.242 N  
HETATM   44  C   UNL     1      -7.924  10.006  70.155  1.00  0.00    -0.123 A  
HETATM   45  C   UNL     1      -7.163  11.134  68.148  1.00  0.00    -0.080 A  
ENDBRANCH  12  37
ENDBRANCH   3   5
ENDBRANCH   2   3
TORSDOF 8
ENDMDL
MODEL      153
REMARK 921   NORMALIZED FREE ENERGY PREDICTED BY IDOCK:   -3.86 KCAL/MOL
REMARK 922        TOTAL FREE ENERGY PREDICTED BY IDOCK:   -7.57 KCAL/MOL
REMARK 923 INTER-LIGAND FREE ENERGY PREDICTED BY IDOCK:   -7.93 KCAL/MOL
REMARK 924 INTRA-LIGAND FREE ENERGY PREDICTED BY IDOCK:    0.36 KCAL/MOL
REMARK 927      BINDING AFFINITY PREDICTED BY RF-SCORE:    0.00 PKD
ROOT
HETATM    1  C   UNL     1     -10.836   3.762  64.899  1.00  0.00     0.183 C  
HETATM    2  O   UNL     1      -9.591   4.326  65.326  1.00  0.00    -0.163 OA 
ENDROOT
BRANCH   2   3
HETATM    3  C   UNL     1      -9.330   4.115  66.644  1.00  0.00    -0.177 C  
HETATM    4  O   UNL     1      -9.869   3.252  67.321  1.00  0.00    -0.029 OA 
BRANCH   3   5
HETATM    5  C   UNL     1      -8.304   5.071  67.140  1.00  0.00    -0.106 C  
HETATM    6  C   UNL     1      -7.145   5.269  66.464  1.00  0.00    -0.069 C  
HETATM    7  N   UNL     1      -6.242   6.214  66.918  1.00  0.00    -0.031 NA 
HETATM    8  C   UNL     1      -6.669   4.551  65.223  1.00  0.00    -0.049 C  
HETATM    9  C   UNL     1      -6.316   6.869  68.129  1.00  0.00    -0.035 C  
HETATM   10  C   UNL     1      -5.135   7.758  68.451  1.00  0.00    -0.026 C  
HETATM   11  C   UNL     1      -7.401   6.693  68.922  1.00  0.00    -0.094 C  
HETATM   12  C   UNL     1      -8.583   5.830  68.456  1.00  0.00    -0.109 C  
BRANCH  11  13
HETATM   13  C   UNL     1      -7.376   7.303  70.277  1.00  0.00    -0.082 C  
HETATM   14  O   UNL     1      -6.461   7.118  71.064  1.00  0.00    -0.043 OA 
BRANCH  13  15
HETATM   15  O   UNL     1      -8.423   8.138  70.479  1.00  0.00    -0.119 OA 
HETATM   16  C   UNL     1      -9.699  10.237  70.229  1.00  0.00     0.243 C  
HETATM   17  C   UNL     1      -8.607   9.090  68.244  1.00  0.00    -0.130 C  
HETATM   18  C   UNL     1      -8.464   9.400  69.744  1.00  0.00    -0.165 C  
HETATM   19  C   UNL     1      -7.230  10.294  70.012  1.00  0.00    -0.164 C  
BRANCH  16  20
HETATM   20  N   UNL     1     -11.066   9.684  70.044  1.00  0.00    -0.249 NA 
HETATM   21  C   UNL     1     -11.703   9.433  71.340  1.00  0.00    -0.378 C  
BRANCH  20  22
HETATM   22  C   UNL     1     -11.926  10.645  69.322  1.00  0.00    -0.197 C  
BRANCH  22  23
HETATM   23  C   UNL     1     -11.443  11.075  67.935  1.00  0.00    -0.358 C  
HETATM   24  C   UNL     1     -11.979  12.421  67.382  1.00  0.00    -0.246 C  
HETATM   25  C   UNL     1     -11.629  12.465  65.885  1.00  0.00    -0.449 A  
HETATM   26  C   UNL     1     -11.535  13.613  68.234  1.00  0.00    -0.348 A  
HETATM   27  C   UNL     1     -12.646  12.594  64.926  1.00  0.00    -0.525 A  
HETATM   28  C   UNL     1     -10.334  14.310  68.036  1.00  0.00    -0.229 A  
HETATM   29  C   UNL     1     -12.369  12.408  63.567  1.00  0.00    -0.648 A  
HETATM   30  C   UNL     1      -9.921  15.309  68.921  1.00  0.00    -0.225 A  
HETATM   31  C   UNL     1     -10.699  15.636  70.024  1.00  0.00    -0.345 A  
HETATM   32  C   UNL     1     -11.074  12.110  63.146  1.00  0.00    -0.257 A  
HETATM   33  C   UNL     1     -10.047  12.026  64.077  1.00  0.00    -0.361 A  
HETATM   34  C   UNL     1     -11.905  14.978  70.234  1.00  0.00    -0.355 A  
HETATM   35  C   UNL     1     -12.321  13.983  69.342  1.00  0.00    -0.247 A  
HETATM   36  C   UNL     1     -10.322  12.202  65.431  1.00  0.00    -0.301 A  
ENDBRANCH  22  23
ENDBRANCH  20  22
ENDBRANCH  16  20
ENDBRANCH  13  15
ENDBRANCH  11  13
BRANCH  12  37
HETATM   37  C   UNL     1      -9.045   4.885  69.569  1.00  0.00    -0.149 A  
HETATM   38  O   UNL     1     -12.100   5.967  72.153  1.00  0.00    -0.252 OA 
HETATM   39  C   UNL     1     -10.134   5.243  70.388  1.00  0.00    -0.324 A  
HETATM   40  O   UNL     1     -11.884   4.114  73.307  1.00  0.00    -0.097 OA 
HETATM   41  C   UNL     1      -8.782   2.849  70.870  1.00  0.00    -0.128 A  
HETATM   42  C   UNL     1     -10.498   4.432  71.471  1.00  0.00     0.063 A  
HETATM   43  N   UNL     1     -11.574   4.868  72.372  1.00  0.00     0.143 N  
HETATM   44  C   UNL     1      -9.827   3.231  71.713  1.00  0.00    -0.229 A  
HETATM   45  C   UNL     1      -8.390   3.671  69.810  1.00  0.00    -0.078 A  
ENDBRANCH  12  37
ENDBRANCH   3   5
ENDBRANCH   2   3
TORSDOF 8
ENDMDL
MODEL      154
REMARK 921   NORMALIZED FREE ENERGY PREDICTED BY IDOCK:   -3.85 KCAL/MOL
REMARK 922        TOTAL FREE ENERGY PREDICTED BY IDOCK:   -7.56 KCAL/MOL
REMARK 923 INTER-LIGAND FREE ENERGY PREDICTED BY IDOCK:   -9.12 KCAL/MOL
REMARK 924 INTRA-LIGAND FREE ENERGY PREDICTED BY IDOCK:    1.56 KCAL/MOL
REMARK 927      BINDING AFFINITY PREDICTED BY RF-SCORE:    0.00 PKD
ROOT
HETATM    1  C   UNL     1     -10.800  18.627  65.391  1.00  0.00     0.341 C  
HETATM    2  O   UNL     1     -10.910  17.317  65.957  1.00  0.00    -0.168 OA 
ENDROOT
BRANCH   2   3
HETATM    3  C   UNL     1     -11.087  16.342  65.026  1.00  0.00    -0.254 C  
HETATM    4  O   UNL     1     -11.436  16.548  63.874  1.00  0.00    -1.145 OA 
BRANCH   3   5
HETATM    5  C   UNL     1     -10.796  15.001  65.602  1.00  0.00    -0.356 C  
HETATM    6  C   UNL     1     -11.775  14.075  65.753  1.00  0.00    -0.363 C  
HETATM    7  N   UNL     1     -11.457  12.816  66.230  1.00  0.00    -0.334 NA 
HETATM    8  C   UNL     1     -13.250  14.241  65.473  1.00  0.00     0.113 C  
HETATM    9  C   UNL     1     -10.237  12.448  66.758  1.00  0.00    -0.219 C  
HETATM   10  C   UNL     1     -10.181  11.050  67.334  1.00  0.00    -0.229 C  
HETATM   11  C   UNL     1      -9.201  13.321  66.722  1.00  0.00    -0.237 C  
HETATM   12  C   UNL     1      -9.347  14.687  66.036  1.00  0.00    -0.216 C  
BRANCH  11  13
HETATM   13  C   UNL     1      -7.949  12.940  67.426  1.00  0.00    -0.178 C  
HETATM   14  O   UNL     1      -6.985  13.686  67.502  1.00  0.00    -0.165 OA 
BRANCH  13  15
HETATM   15  O   UNL     1      -8.052  11.734  68.033  1.00  0.00    -0.129 OA 
HETATM   16  C   UNL     1      -7.327   9.447  68.618  1.00  0.00    -0.075 C  
HETATM   17  C   UNL     1      -5.726  11.416  68.682  1.00  0.00    -0.042 C  
HETATM   18  C   UNL     1      -6.927  10.806  67.942  1.00  0.00    -0.073 C  
HETATM   19  C   UNL     1      -6.559  10.446  66.484  1.00  0.00    -0.094 C  
BRANCH  16  20
HETATM   20  N   UNL     1      -7.673   9.432  70.063  1.00  0.00    -0.105 NA 
HETATM   21  C   UNL     1      -9.077   9.803  70.265  1.00  0.00    -0.157 C  
BRANCH  20  22
HETATM   22  C   UNL     1      -7.502   8.076  70.628  1.00  0.00    -0.068 C  
BRANCH  22  23
HETATM   23  C   UNL     1      -8.054   6.920  69.791  1.00  0.00    -0.126 C  
HETATM   24  C   UNL     1      -8.908   5.856  70.527  1.00  0.00    -0.147 C  
HETATM   25  C   UNL     1      -9.056   4.658  69.574  1.00  0.00    -0.163 A  
HETATM   26  C   UNL     1     -10.197   6.448  71.104  1.00  0.00    -0.224 A  
HETATM   27  C   UNL     1      -8.601   3.388  69.959  1.00  0.00    -0.109 A  
HETATM   28  C   UNL     1     -11.401   6.540  70.390  1.00  0.00    -0.443 A  
HETATM   29  C   UNL     1      -8.521   2.348  69.027  1.00  0.00    -0.099 A  
HETATM   30  C   UNL     1     -12.510   7.203  70.922  1.00  0.00    -0.302 A  
HETATM   31  C   UNL     1     -12.443   7.786  72.181  1.00  0.00    -0.277 A  
HETATM   32  C   UNL     1      -8.909   2.555  67.704  1.00  0.00    -0.164 A  
HETATM   33  C   UNL     1      -9.407   3.793  67.316  1.00  0.00    -0.228 A  
HETATM   34  C   UNL     1     -11.270   7.691  72.921  1.00  0.00    -0.426 A  
HETATM   35  C   UNL     1     -10.163   7.020  72.389  1.00  0.00    -0.210 A  
HETATM   36  C   UNL     1      -9.479   4.832  68.241  1.00  0.00    -0.191 A  
ENDBRANCH  22  23
ENDBRANCH  20  22
ENDBRANCH  16  20
ENDBRANCH  13  15
ENDBRANCH  11  13
BRANCH  12  37
HETATM   37  C   UNL     1      -8.761  15.804  66.905  1.00  0.00    -0.274 A  
HETATM   38  O   UNL     1      -5.509  18.026  65.616  1.00  0.00    -0.178 OA 
HETATM   39  C   UNL     1      -7.703  16.594  66.416  1.00  0.00    -0.328 A  
HETATM   40  O   UNL     1      -5.434  19.151  67.497  1.00  0.00    -0.170 OA 
HETATM   41  C   UNL     1      -8.655  17.025  69.005  1.00  0.00    -0.126 A  
HETATM   42  C   UNL     1      -7.096  17.549  67.241  1.00  0.00    -0.167 A  
HETATM   43  N   UNL     1      -5.932  18.298  66.747  1.00  0.00    -0.147 N  
HETATM   44  C   UNL     1      -7.572  17.770  68.535  1.00  0.00    -0.276 A  
HETATM   45  C   UNL     1      -9.242  16.045  68.198  1.00  0.00    -0.195 A  
ENDBRANCH  12  37
ENDBRANCH   3   5
ENDBRANCH   2   3
TORSDOF 8
ENDMDL
MODEL      155
REMARK 921   NORMALIZED FREE ENERGY PREDICTED BY IDOCK:   -3.83 KCAL/MOL
REMARK 922        TOTAL FREE ENERGY PREDICTED BY IDOCK:   -7.53 KCAL/MOL
REMARK 923 INTER-LIGAND FREE ENERGY PREDICTED BY IDOCK:   -6.85 KCAL/MOL
REMARK 924 INTRA-LIGAND FREE ENERGY PREDICTED BY IDOCK:   -0.69 KCAL/MOL
REMARK 927      BINDING AFFINITY PREDICTED BY RF-SCORE:    0.00 PKD
ROOT
HETATM    1  C   UNL     1     -11.635   6.928  67.588  1.00  0.00     0.684 C  
HETATM    2  O   UNL     1     -10.684   7.834  67.018  1.00  0.00    -0.347 OA 
ENDROOT
BRANCH   2   3
HETATM    3  C   UNL     1      -9.479   7.258  66.762  1.00  0.00    -0.171 C  
HETATM    4  O   UNL     1      -9.302   6.054  66.660  1.00  0.00    -0.136 OA 
BRANCH   3   5
HETATM    5  C   UNL     1      -8.417   8.291  66.623  1.00  0.00    -0.124 C  
HETATM    6  C   UNL     1      -7.774   8.481  65.444  1.00  0.00    -0.095 C  
HETATM    7  N   UNL     1      -6.838   9.494  65.332  1.00  0.00    -0.083 NA 
HETATM    8  C   UNL     1      -7.933   7.685  64.170  1.00  0.00    -0.105 C  
HETATM    9  C   UNL     1      -6.342  10.240  66.380  1.00  0.00    -0.085 C  
HETATM   10  C   UNL     1      -5.229  11.198  66.016  1.00  0.00    -0.130 C  
HETATM   11  C   UNL     1      -6.865  10.084  67.621  1.00  0.00    -0.084 C  
HETATM   12  C   UNL     1      -8.053   9.141  67.860  1.00  0.00    -0.105 C  
BRANCH  11  13
HETATM   13  C   UNL     1      -6.209  10.801  68.745  1.00  0.00    -0.040 C  
HETATM   14  O   UNL     1      -5.133  10.452  69.208  1.00  0.00    -0.039 OA 
BRANCH  13  15
HETATM   15  O   UNL     1      -6.894  11.909  69.112  1.00  0.00    -0.101 OA 
HETATM   16  C   UNL     1      -7.154  14.177  70.054  1.00  0.00     0.243 C  
HETATM   17  C   UNL     1      -5.293  13.611  68.422  1.00  0.00    -0.098 C  
HETATM   18  C   UNL     1      -6.144  13.072  69.583  1.00  0.00    -0.122 C  
HETATM   19  C   UNL     1      -5.268  12.763  70.819  1.00  0.00    -0.147 C  
BRANCH  16  20
HETATM   20  N   UNL     1      -8.106  14.754  69.070  1.00  0.00    -0.156 NA 
HETATM   21  C   UNL     1      -7.478  14.878  67.751  1.00  0.00    -0.163 C  
BRANCH  20  22
HETATM   22  C   UNL     1      -9.283  13.875  68.903  1.00  0.00     0.086 C  
BRANCH  22  23
HETATM   23  C   UNL     1      -9.747  13.631  67.466  1.00  0.00    -0.227 C  
HETATM   24  C   UNL     1     -11.005  14.401  66.985  1.00  0.00    -0.304 C  
HETATM   25  C   UNL     1     -11.455  13.753  65.666  1.00  0.00    -0.318 A  
HETATM   26  C   UNL     1     -10.784  15.917  66.975  1.00  0.00    -0.292 A  
HETATM   27  C   UNL     1     -12.741  13.203  65.553  1.00  0.00    -0.367 A  
HETATM   28  C   UNL     1     -10.257  16.621  65.881  1.00  0.00    -0.358 A  
HETATM   29  C   UNL     1     -13.083  12.415  64.448  1.00  0.00    -0.050 A  
HETATM   30  C   UNL     1      -9.960  17.983  65.971  1.00  0.00    -0.221 A  
HETATM   31  C   UNL     1     -10.186  18.675  67.155  1.00  0.00    -0.415 A  
HETATM   32  C   UNL     1     -12.154  12.180  63.435  1.00  0.00    -0.608 A  
HETATM   33  C   UNL     1     -10.892  12.756  63.508  1.00  0.00    -0.281 A  
HETATM   34  C   UNL     1     -10.728  18.008  68.248  1.00  0.00    -0.208 A  
HETATM   35  C   UNL     1     -11.032  16.646  68.153  1.00  0.00    -0.327 A  
HETATM   36  C   UNL     1     -10.547  13.533  64.612  1.00  0.00    -0.441 A  
ENDBRANCH  22  23
ENDBRANCH  20  22
ENDBRANCH  16  20
ENDBRANCH  13  15
ENDBRANCH  11  13
BRANCH  12  37
HETATM   37  C   UNL     1      -7.821   8.269  69.098  1.00  0.00    -0.106 A  
HETATM   38  O   UNL     1     -10.069   8.812  72.538  1.00  0.00    -0.250 OA 
HETATM   39  C   UNL     1      -8.646   8.422  70.230  1.00  0.00    -0.128 A  
HETATM   40  O   UNL     1      -8.937   7.272  73.613  1.00  0.00    -0.157 OA 
HETATM   41  C   UNL     1      -6.543   6.588  70.302  1.00  0.00    -0.048 A  
HETATM   42  C   UNL     1      -8.378   7.702  71.401  1.00  0.00    -0.107 A  
HETATM   43  N   UNL     1      -9.189   7.944  72.602  1.00  0.00    -0.185 N  
HETATM   44  C   UNL     1      -7.329   6.780  71.439  1.00  0.00    -0.082 A  
HETATM   45  C   UNL     1      -6.783   7.330  69.142  1.00  0.00    -0.049 A  
ENDBRANCH  12  37
ENDBRANCH   3   5
ENDBRANCH   2   3
TORSDOF 8
ENDMDL
MODEL      156
REMARK 921   NORMALIZED FREE ENERGY PREDICTED BY IDOCK:   -3.80 KCAL/MOL
REMARK 922        TOTAL FREE ENERGY PREDICTED BY IDOCK:   -7.49 KCAL/MOL
REMARK 923 INTER-LIGAND FREE ENERGY PREDICTED BY IDOCK:   -6.90 KCAL/MOL
REMARK 924 INTRA-LIGAND FREE ENERGY PREDICTED BY IDOCK:   -0.59 KCAL/MOL
REMARK 927      BINDING AFFINITY PREDICTED BY RF-SCORE:    0.00 PKD
ROOT
HETATM    1  C   UNL     1     -12.458   6.474  70.007  1.00  0.00     0.921 C  
HETATM    2  O   UNL     1     -11.370   5.593  69.708  1.00  0.00    -0.160 OA 
ENDROOT
BRANCH   2   3
HETATM    3  C   UNL     1     -10.557   6.058  68.722  1.00  0.00    -0.282 C  
HETATM    4  O   UNL     1     -10.902   6.205  67.560  1.00  0.00    -0.279 OA 
BRANCH   3   5
HETATM    5  C   UNL     1      -9.202   6.365  69.255  1.00  0.00    -0.135 C  
HETATM    6  C   UNL     1      -8.239   5.411  69.313  1.00  0.00    -0.093 C  
HETATM    7  N   UNL     1      -6.971   5.747  69.753  1.00  0.00    -0.064 NA 
HETATM    8  C   UNL     1      -8.370   3.948  68.961  1.00  0.00    -0.088 C  
HETATM    9  C   UNL     1      -6.620   6.949  70.329  1.00  0.00    -0.048 C  
HETATM   10  C   UNL     1      -5.199   7.022  70.846  1.00  0.00    -0.023 C  
HETATM   11  C   UNL     1      -7.525   7.955  70.387  1.00  0.00    -0.077 C  
HETATM   12  C   UNL     1      -8.915   7.799  69.753  1.00  0.00    -0.146 C  
BRANCH  11  13
HETATM   13  C   UNL     1      -7.154   9.181  71.141  1.00  0.00    -0.075 C  
HETATM   14  O   UNL     1      -6.702   9.143  72.275  1.00  0.00    -0.305 OA 
BRANCH  13  15
HETATM   15  O   UNL     1      -7.290  10.300  70.392  1.00  0.00    -0.258 OA 
HETATM   16  C   UNL     1      -6.508  12.349  69.256  1.00  0.00    -0.107 C  
HETATM   17  C   UNL     1      -5.236  10.159  69.090  1.00  0.00    -0.035 C  
HETATM   18  C   UNL     1      -6.088  11.042  70.015  1.00  0.00    -0.128 C  
HETATM   19  C   UNL     1      -5.269  11.521  71.237  1.00  0.00    -0.060 C  
BRANCH  16  20
HETATM   20  N   UNL     1      -7.259  12.235  67.979  1.00  0.00    -0.092 NA 
HETATM   21  C   UNL     1      -6.341  12.214  66.837  1.00  0.00    -0.007 C  
BRANCH  20  22
HETATM   22  C   UNL     1      -8.028  10.972  67.935  1.00  0.00    -0.112 C  
BRANCH  22  23
HETATM   23  C   UNL     1      -7.489   9.884  67.005  1.00  0.00    -0.091 C  
HETATM   24  C   UNL     1      -8.519   9.120  66.133  1.00  0.00    -0.136 C  
HETATM   25  C   UNL     1      -7.799   7.890  65.557  1.00  0.00    -0.112 A  
HETATM   26  C   UNL     1      -9.227  10.041  65.136  1.00  0.00    -0.273 A  
HETATM   27  C   UNL     1      -8.280   6.600  65.826  1.00  0.00    -0.135 A  
HETATM   28  C   UNL     1      -8.740  10.320  63.850  1.00  0.00    -0.211 A  
HETATM   29  C   UNL     1      -7.515   5.473  65.504  1.00  0.00    -0.074 A  
HETATM   30  C   UNL     1      -9.361  11.266  63.029  1.00  0.00    -0.359 A  
HETATM   31  C   UNL     1     -10.484  11.951  63.472  1.00  0.00    -0.505 A  
HETATM   32  C   UNL     1      -6.270   5.618  64.893  1.00  0.00    -0.032 A  
HETATM   33  C   UNL     1      -5.799   6.886  64.577  1.00  0.00    -0.036 A  
HETATM   34  C   UNL     1     -11.003  11.679  64.733  1.00  0.00    -0.351 A  
HETATM   35  C   UNL     1     -10.384  10.726  65.550  1.00  0.00    -0.308 A  
HETATM   36  C   UNL     1      -6.555   8.009  64.905  1.00  0.00    -0.051 A  
ENDBRANCH  22  23
ENDBRANCH  20  22
ENDBRANCH  16  20
ENDBRANCH  13  15
ENDBRANCH  11  13
BRANCH  12  37
HETATM   37  C   UNL     1     -10.010   8.299  70.700  1.00  0.00    -0.204 A  
HETATM   38  O   UNL     1     -12.151  11.745  69.851  1.00  0.00    -0.305 OA 
HETATM   39  C   UNL     1     -10.775   9.431  70.355  1.00  0.00    -0.317 A  
HETATM   40  O   UNL     1     -13.262  11.612  71.737  1.00  0.00    -0.453 OA 
HETATM   41  C   UNL     1     -11.215   8.172  72.807  1.00  0.00    -0.407 A  
HETATM   42  C   UNL     1     -11.708   9.954  71.258  1.00  0.00    -0.392 A  
HETATM   43  N   UNL     1     -12.428  11.190  70.923  1.00  0.00    -0.391 N  
HETATM   44  C   UNL     1     -11.934   9.325  72.485  1.00  0.00     0.131 A  
HETATM   45  C   UNL     1     -10.257   7.666  71.924  1.00  0.00    -0.234 A  
ENDBRANCH  12  37
ENDBRANCH   3   5
ENDBRANCH   2   3
TORSDOF 8
ENDMDL
MODEL      157
REMARK 921   NORMALIZED FREE ENERGY PREDICTED BY IDOCK:   -3.70 KCAL/MOL
REMARK 922        TOTAL FREE ENERGY PREDICTED BY IDOCK:   -7.34 KCAL/MOL
REMARK 923 INTER-LIGAND FREE ENERGY PREDICTED BY IDOCK:   -8.60 KCAL/MOL
REMARK 924 INTRA-LIGAND FREE ENERGY PREDICTED BY IDOCK:    1.25 KCAL/MOL
REMARK 927      BINDING AFFINITY PREDICTED BY RF-SCORE:    0.00 PKD
ROOT
HETATM    1  C   UNL     1      -6.170   2.463  72.118  1.00  0.00    -0.014 C  
HETATM    2  O   UNL     1      -6.061   3.261  70.934  1.00  0.00    -0.017 OA 
ENDROOT
BRANCH   2   3
HETATM    3  C   UNL     1      -7.139   4.065  70.728  1.00  0.00    -0.033 C  
HETATM    4  O   UNL     1      -7.838   4.517  71.621  1.00  0.00    -0.086 OA 
BRANCH   3   5
HETATM    5  C   UNL     1      -7.341   4.317  69.276  1.00  0.00    -0.054 C  
HETATM    6  C   UNL     1      -6.470   3.840  68.353  1.00  0.00    -0.037 C  
HETATM    7  N   UNL     1      -6.724   4.037  67.007  1.00  0.00    -0.046 NA 
HETATM    8  C   UNL     1      -5.179   3.096  68.604  1.00  0.00    -0.012 C  
HETATM    9  C   UNL     1      -7.710   4.853  66.494  1.00  0.00    -0.095 C  
HETATM   10  C   UNL     1      -7.699   5.003  64.988  1.00  0.00    -0.083 C  
HETATM   11  C   UNL     1      -8.599   5.439  67.331  1.00  0.00    -0.108 C  
HETATM   12  C   UNL     1      -8.568   5.149  68.839  1.00  0.00    -0.092 C  
BRANCH  11  13
HETATM   13  C   UNL     1      -9.554   6.420  66.753  1.00  0.00    -0.155 C  
HETATM   14  O   UNL     1     -10.522   6.082  66.090  1.00  0.00    -0.017 OA 
BRANCH  13  15
HETATM   15  O   UNL     1      -9.270   7.690  67.128  1.00  0.00    -0.125 OA 
HETATM   16  C   UNL     1      -8.022   9.820  67.073  1.00  0.00    -0.105 C  
HETATM   17  C   UNL     1      -8.753   8.641  64.947  1.00  0.00    -0.126 C  
HETATM   18  C   UNL     1      -8.252   8.429  66.385  1.00  0.00    -0.109 C  
HETATM   19  C   UNL     1      -6.872   7.731  66.397  1.00  0.00    -0.062 C  
BRANCH  16  20
HETATM   20  N   UNL     1      -9.153  10.780  67.161  1.00  0.00    -0.144 NA 
HETATM   21  C   UNL     1     -10.346  10.128  67.710  1.00  0.00    -0.210 C  
BRANCH  20  22
HETATM   22  C   UNL     1      -8.820  11.900  68.068  1.00  0.00    -0.177 C  
BRANCH  22  23
HETATM   23  C   UNL     1      -9.994  12.540  68.811  1.00  0.00    -0.028 C  
HETATM   24  C   UNL     1     -10.484  13.922  68.307  1.00  0.00    -0.252 C  
HETATM   25  C   UNL     1     -11.416  14.493  69.388  1.00  0.00    -0.323 A  
HETATM   26  C   UNL     1     -11.036  13.854  66.880  1.00  0.00    -0.309 A  
HETATM   27  C   UNL     1     -11.122  15.722  69.997  1.00  0.00    -0.348 A  
HETATM   28  C   UNL     1     -12.374  13.561  66.574  1.00  0.00    -0.382 A  
HETATM   29  C   UNL     1     -11.826  16.141  71.131  1.00  0.00    -0.411 A  
HETATM   30  C   UNL     1     -12.794  13.388  65.252  1.00  0.00    -0.398 A  
HETATM   31  C   UNL     1     -11.888  13.507  64.206  1.00  0.00    -0.471 A  
HETATM   32  C   UNL     1     -12.845  15.350  71.661  1.00  0.00    -0.492 A  
HETATM   33  C   UNL     1     -13.182  14.153  71.043  1.00  0.00    -0.337 A  
HETATM   34  C   UNL     1     -10.561  13.819  64.478  1.00  0.00    -0.405 A  
HETATM   35  C   UNL     1     -10.144  13.999  65.801  1.00  0.00    -0.345 A  
HETATM   36  C   UNL     1     -12.475  13.729  69.919  1.00  0.00    -0.259 A  
ENDBRANCH  22  23
ENDBRANCH  20  22
ENDBRANCH  16  20
ENDBRANCH  13  15
ENDBRANCH  11  13
BRANCH  12  37
HETATM   37  C   UNL     1      -8.694   6.442  69.650  1.00  0.00    -0.138 A  
HETATM   38  O   UNL     1     -12.367   7.694  71.106  1.00  0.00    -0.312 OA 
HETATM   39  C   UNL     1      -9.939   6.809  70.198  1.00  0.00    -0.191 A  
HETATM   40  O   UNL     1     -11.500   9.533  71.929  1.00  0.00    -0.355 OA 
HETATM   41  C   UNL     1      -7.741   8.497  70.530  1.00  0.00    -0.084 A  
HETATM   42  C   UNL     1     -10.086   8.038  70.853  1.00  0.00    -0.191 A  
HETATM   43  N   UNL     1     -11.412   8.449  71.334  1.00  0.00    -0.266 N  
HETATM   44  C   UNL     1      -8.987   8.883  71.026  1.00  0.00    -0.298 A  
HETATM   45  C   UNL     1      -7.596   7.288  69.844  1.00  0.00    -0.094 A  
ENDBRANCH  12  37
ENDBRANCH   3   5
ENDBRANCH   2   3
TORSDOF 8
ENDMDL
MODEL      158
REMARK 921   NORMALIZED FREE ENERGY PREDICTED BY IDOCK:   -3.68 KCAL/MOL
REMARK 922        TOTAL FREE ENERGY PREDICTED BY IDOCK:   -7.31 KCAL/MOL
REMARK 923 INTER-LIGAND FREE ENERGY PREDICTED BY IDOCK:   -7.01 KCAL/MOL
REMARK 924 INTRA-LIGAND FREE ENERGY PREDICTED BY IDOCK:   -0.30 KCAL/MOL
REMARK 927      BINDING AFFINITY PREDICTED BY RF-SCORE:    0.00 PKD
ROOT
HETATM    1  C   UNL     1     -10.451   4.459  70.707  1.00  0.00     0.263 C  
HETATM    2  O   UNL     1     -10.095   4.675  69.337  1.00  0.00    -0.211 OA 
ENDROOT
BRANCH   2   3
HETATM    3  C   UNL     1     -10.554   5.857  68.843  1.00  0.00    -0.288 C  
HETATM    4  O   UNL     1     -11.555   6.428  69.249  1.00  0.00    -0.354 OA 
BRANCH   3   5
HETATM    5  C   UNL     1      -9.674   6.351  67.750  1.00  0.00    -0.127 C  
HETATM    6  C   UNL     1      -9.816   5.905  66.478  1.00  0.00    -0.152 C  
HETATM    7  N   UNL     1      -9.024   6.434  65.475  1.00  0.00    -0.019 NA 
HETATM    8  C   UNL     1     -10.760   4.836  65.978  1.00  0.00    -0.211 C  
HETATM    9  C   UNL     1      -7.943   7.268  65.671  1.00  0.00    -0.123 C  
HETATM   10  C   UNL     1      -7.158   7.605  64.421  1.00  0.00    -0.066 C  
HETATM   11  C   UNL     1      -7.664   7.724  66.916  1.00  0.00    -0.103 C  
HETATM   12  C   UNL     1      -8.580   7.385  68.101  1.00  0.00    -0.123 C  
BRANCH  11  13
HETATM   13  C   UNL     1      -6.412   8.502  67.106  1.00  0.00    -0.058 C  
HETATM   14  O   UNL     1      -5.313   8.063  66.799  1.00  0.00    -0.030 OA 
BRANCH  13  15
HETATM   15  O   UNL     1      -6.653   9.754  67.559  1.00  0.00    -0.068 OA 
HETATM   16  C   UNL     1      -6.811  12.212  67.386  1.00  0.00    -0.147 C  
HETATM   17  C   UNL     1      -7.758  10.681  65.596  1.00  0.00    -0.109 C  
HETATM   18  C   UNL     1      -6.616  10.863  66.609  1.00  0.00    -0.120 C  
HETATM   19  C   UNL     1      -5.252  10.995  65.892  1.00  0.00    -0.139 C  
BRANCH  16  20
HETATM   20  N   UNL     1      -8.074  12.441  68.134  1.00  0.00    -0.155 NA 
HETATM   21  C   UNL     1      -8.607  11.176  68.651  1.00  0.00    -0.151 C  
BRANCH  20  22
HETATM   22  C   UNL     1      -7.839  13.317  69.302  1.00  0.00     0.494 C  
BRANCH  22  23
HETATM   23  C   UNL     1      -7.910  14.823  69.043  1.00  0.00    -0.150 C  
HETATM   24  C   UNL     1      -9.217  15.374  68.417  1.00  0.00    -0.192 C  
HETATM   25  C   UNL     1      -8.925  16.811  67.954  1.00  0.00    -0.219 A  
HETATM   26  C   UNL     1     -10.426  15.173  69.334  1.00  0.00    -0.259 A  
HETATM   27  C   UNL     1      -9.084  17.164  66.605  1.00  0.00    -0.280 A  
HETATM   28  C   UNL     1     -10.820  16.091  70.319  1.00  0.00    -0.327 A  
HETATM   29  C   UNL     1      -8.610  18.392  66.130  1.00  0.00    -0.136 A  
HETATM   30  C   UNL     1     -11.856  15.798  71.211  1.00  0.00    -0.491 A  
HETATM   31  C   UNL     1     -12.523  14.582  71.138  1.00  0.00    -0.411 A  
HETATM   32  C   UNL     1      -7.986  19.289  66.997  1.00  0.00    -0.277 A  
HETATM   33  C   UNL     1      -7.863  18.976  68.344  1.00  0.00    -0.372 A  
HETATM   34  C   UNL     1     -12.169  13.662  70.158  1.00  0.00    -0.413 A  
HETATM   35  C   UNL     1     -11.138  13.960  69.260  1.00  0.00    -0.261 A  
HETATM   36  C   UNL     1      -8.327  17.750  68.817  1.00  0.00    -0.221 A  
ENDBRANCH  22  23
ENDBRANCH  20  22
ENDBRANCH  16  20
ENDBRANCH  13  15
ENDBRANCH  11  13
BRANCH  12  37
HETATM   37  C   UNL     1      -7.761   6.952  69.321  1.00  0.00    -0.105 A  
HETATM   38  O   UNL     1      -8.322   8.755  73.010  1.00  0.00    -0.412 OA 
HETATM   39  C   UNL     1      -8.020   7.527  70.581  1.00  0.00    -0.100 A  
HETATM   40  O   UNL     1      -6.713   7.573  73.919  1.00  0.00    -0.078 OA 
HETATM   41  C   UNL     1      -5.954   5.668  70.319  1.00  0.00    -0.025 A  
HETATM   42  C   UNL     1      -7.211   7.213  71.679  1.00  0.00    -0.073 A  
HETATM   43  N   UNL     1      -7.434   7.893  72.962  1.00  0.00    -0.109 N  
HETATM   44  C   UNL     1      -6.179   6.279  71.553  1.00  0.00    -0.041 A  
HETATM   45  C   UNL     1      -6.736   6.005  69.210  1.00  0.00    -0.060 A  
ENDBRANCH  12  37
ENDBRANCH   3   5
ENDBRANCH   2   3
TORSDOF 8
ENDMDL
MODEL      159
REMARK 921   NORMALIZED FREE ENERGY PREDICTED BY IDOCK:   -3.66 KCAL/MOL
REMARK 922        TOTAL FREE ENERGY PREDICTED BY IDOCK:   -7.29 KCAL/MOL
REMARK 923 INTER-LIGAND FREE ENERGY PREDICTED BY IDOCK:   -8.93 KCAL/MOL
REMARK 924 INTRA-LIGAND FREE ENERGY PREDICTED BY IDOCK:    1.64 KCAL/MOL
REMARK 927      BINDING AFFINITY PREDICTED BY RF-SCORE:    0.00 PKD
ROOT
HETATM    1  C   UNL     1      -5.912   4.008  64.655  1.00  0.00    -0.022 C  
HETATM    2  O   UNL     1      -6.609   4.997  65.421  1.00  0.00    -0.035 OA 
ENDROOT
BRANCH   2   3
HETATM    3  C   UNL     1      -7.883   5.208  64.994  1.00  0.00    -0.092 C  
HETATM    4  O   UNL     1      -8.617   4.331  64.566  1.00  0.00    -0.116 OA 
BRANCH   3   5
HETATM    5  C   UNL     1      -8.254   6.643  65.123  1.00  0.00    -0.118 C  
HETATM    6  C   UNL     1      -7.859   7.556  64.201  1.00  0.00    -0.130 C  
HETATM    7  N   UNL     1      -8.277   8.869  64.317  1.00  0.00    -0.162 NA 
HETATM    8  C   UNL     1      -6.961   7.329  63.007  1.00  0.00    -0.059 C  
HETATM    9  C   UNL     1      -8.927   9.405  65.409  1.00  0.00    -0.206 C  
HETATM   10  C   UNL     1      -9.160  10.899  65.348  1.00  0.00    -0.218 C  
HETATM   11  C   UNL     1      -9.311   8.595  66.425  1.00  0.00    -0.271 C  
HETATM   12  C   UNL     1      -9.097   7.076  66.343  1.00  0.00    -0.189 C  
BRANCH  11  13
HETATM   13  C   UNL     1      -9.879   9.230  67.642  1.00  0.00    -0.176 C  
HETATM   14  O   UNL     1     -10.785   8.723  68.286  1.00  0.00    -0.173 OA 
BRANCH  13  15
HETATM   15  O   UNL     1      -9.217  10.360  67.984  1.00  0.00    -0.137 OA 
HETATM   16  C   UNL     1      -7.525  11.690  69.195  1.00  0.00     0.003 C  
HETATM   17  C   UNL     1      -6.952   9.471  68.102  1.00  0.00    -0.078 C  
HETATM   18  C   UNL     1      -8.046  10.251  68.851  1.00  0.00    -0.123 C  
HETATM   19  C   UNL     1      -8.365   9.592  70.213  1.00  0.00    -0.216 C  
BRANCH  16  20
HETATM   20  N   UNL     1      -7.060  12.574  68.095  1.00  0.00    -0.092 NA 
HETATM   21  C   UNL     1      -6.662  11.783  66.927  1.00  0.00    -0.105 C  
BRANCH  20  22
HETATM   22  C   UNL     1      -8.146  13.476  67.653  1.00  0.00    -0.180 C  
BRANCH  22  23
HETATM   23  C   UNL     1      -9.368  13.561  68.570  1.00  0.00    -0.108 C  
HETATM   24  C   UNL     1     -10.366  14.721  68.317  1.00  0.00    -0.238 C  
HETATM   25  C   UNL     1     -11.297  14.791  69.539  1.00  0.00    -0.312 A  
HETATM   26  C   UNL     1     -11.032  14.618  66.942  1.00  0.00    -0.324 A  
HETATM   27  C   UNL     1     -11.374  15.967  70.300  1.00  0.00    -0.381 A  
HETATM   28  C   UNL     1     -12.212  13.899  66.698  1.00  0.00    -0.465 A  
HETATM   29  C   UNL     1     -12.034  15.973  71.534  1.00  0.00    -0.539 A  
HETATM   30  C   UNL     1     -12.706  13.735  65.401  1.00  0.00    -0.513 A  
HETATM   31  C   UNL     1     -12.035  14.290  64.318  1.00  0.00    -0.449 A  
HETATM   32  C   UNL     1     -12.640  14.814  72.016  1.00  0.00    -0.401 A  
HETATM   33  C   UNL     1     -12.614  13.653  71.253  1.00  0.00    -0.435 A  
HETATM   34  C   UNL     1     -10.876  15.027  64.532  1.00  0.00    -0.152 A  
HETATM   35  C   UNL     1     -10.387  15.196  65.832  1.00  0.00    -0.344 A  
HETATM   36  C   UNL     1     -11.949  13.642  70.028  1.00  0.00    -0.413 A  
ENDBRANCH  22  23
ENDBRANCH  20  22
ENDBRANCH  16  20
ENDBRANCH  13  15
ENDBRANCH  11  13
BRANCH  12  37
HETATM   37  C   UNL     1      -8.519   6.532  67.653  1.00  0.00    -0.117 A  
HETATM   38  O   UNL     1     -11.005   5.123  70.656  1.00  0.00    -0.062 OA 
HETATM   39  C   UNL     1      -9.379   5.990  68.629  1.00  0.00    -0.121 A  
HETATM   40  O   UNL     1      -9.305   4.738  71.988  1.00  0.00    -0.133 OA 
HETATM   41  C   UNL     1      -6.639   6.140  69.143  1.00  0.00    -0.047 A  
HETATM   42  C   UNL     1      -8.871   5.584  69.869  1.00  0.00    -0.127 A  
HETATM   43  N   UNL     1      -9.793   5.111  70.910  1.00  0.00    -0.187 N  
HETATM   44  C   UNL     1      -7.500   5.653  70.128  1.00  0.00    -0.077 A  
HETATM   45  C   UNL     1      -7.145   6.580  67.917  1.00  0.00    -0.085 A  
ENDBRANCH  12  37
ENDBRANCH   3   5
ENDBRANCH   2   3
TORSDOF 8
ENDMDL
MODEL      160
REMARK 921   NORMALIZED FREE ENERGY PREDICTED BY IDOCK:   -3.66 KCAL/MOL
REMARK 922        TOTAL FREE ENERGY PREDICTED BY IDOCK:   -7.28 KCAL/MOL
REMARK 923 INTER-LIGAND FREE ENERGY PREDICTED BY IDOCK:   -6.65 KCAL/MOL
REMARK 924 INTRA-LIGAND FREE ENERGY PREDICTED BY IDOCK:   -0.64 KCAL/MOL
REMARK 927      BINDING AFFINITY PREDICTED BY RF-SCORE:    0.00 PKD
ROOT
HETATM    1  C   UNL     1     -12.514   6.470  70.286  1.00  0.00     0.549 C  
HETATM    2  O   UNL     1     -11.462   5.541  70.006  1.00  0.00     0.171 OA 
ENDROOT
BRANCH   2   3
HETATM    3  C   UNL     1     -10.642   5.946  68.999  1.00  0.00    -0.290 C  
HETATM    4  O   UNL     1     -10.989   6.060  67.834  1.00  0.00    -0.302 OA 
BRANCH   3   5
HETATM    5  C   UNL     1      -9.275   6.232  69.513  1.00  0.00    -0.142 C  
HETATM    6  C   UNL     1      -8.353   5.245  69.642  1.00  0.00    -0.098 C  
HETATM    7  N   UNL     1      -7.072   5.558  70.061  1.00  0.00    -0.064 NA 
HETATM    8  C   UNL     1      -8.547   3.767  69.395  1.00  0.00    -0.113 C  
HETATM    9  C   UNL     1      -6.670   6.782  70.551  1.00  0.00    -0.053 C  
HETATM   10  C   UNL     1      -5.249   6.832  71.067  1.00  0.00    -0.023 C  
HETATM   11  C   UNL     1      -7.533   7.827  70.534  1.00  0.00    -0.074 C  
HETATM   12  C   UNL     1      -8.928   7.685  69.909  1.00  0.00    -0.144 C  
BRANCH  11  13
HETATM   13  C   UNL     1      -7.110   9.086  71.200  1.00  0.00    -0.098 C  
HETATM   14  O   UNL     1      -6.576   9.101  72.299  1.00  0.00    -0.298 OA 
BRANCH  13  15
HETATM   15  O   UNL     1      -7.303  10.170  70.412  1.00  0.00    -0.235 OA 
HETATM   16  C   UNL     1      -6.620  12.195  69.174  1.00  0.00    -0.106 C  
HETATM   17  C   UNL     1      -5.280  10.041  69.060  1.00  0.00    -0.035 C  
HETATM   18  C   UNL     1      -6.137  10.934  69.973  1.00  0.00    -0.121 C  
HETATM   19  C   UNL     1      -5.303  11.488  71.151  1.00  0.00    -0.060 C  
BRANCH  16  20
HETATM   20  N   UNL     1      -7.400  12.004  67.924  1.00  0.00    -0.095 NA 
HETATM   21  C   UNL     1      -8.738  11.486  68.221  1.00  0.00    -0.162 C  
BRANCH  20  22
HETATM   22  C   UNL     1      -7.584  13.292  67.220  1.00  0.00    -0.067 C  
BRANCH  22  23
HETATM   23  C   UNL     1      -7.089  14.540  67.955  1.00  0.00    -0.168 C  
HETATM   24  C   UNL     1      -7.936  15.831  67.811  1.00  0.00    -0.155 C  
HETATM   25  C   UNL     1      -7.081  16.994  68.342  1.00  0.00    -0.188 A  
HETATM   26  C   UNL     1      -9.338  15.671  68.406  1.00  0.00    -0.195 A  
HETATM   27  C   UNL     1      -6.763  18.075  67.507  1.00  0.00    -0.191 A  
HETATM   28  C   UNL     1      -9.649  15.931  69.749  1.00  0.00    -0.084 A  
HETATM   29  C   UNL     1      -5.807  19.019  67.899  1.00  0.00    -0.202 A  
HETATM   30  C   UNL     1     -10.916  15.648  70.267  1.00  0.00    -0.363 A  
HETATM   31  C   UNL     1     -11.902  15.102  69.454  1.00  0.00    -0.357 A  
HETATM   32  C   UNL     1      -5.170  18.907  69.134  1.00  0.00    -0.195 A  
HETATM   33  C   UNL     1      -5.508  17.870  69.993  1.00  0.00    -0.236 A  
HETATM   34  C   UNL     1     -11.629  14.856  68.113  1.00  0.00    -0.356 A  
HETATM   35  C   UNL     1     -10.362  15.147  67.595  1.00  0.00    -0.248 A  
HETATM   36  C   UNL     1      -6.453  16.923  69.601  1.00  0.00    -0.181 A  
ENDBRANCH  22  23
ENDBRANCH  20  22
ENDBRANCH  16  20
ENDBRANCH  13  15
ENDBRANCH  11  13
BRANCH  12  37
HETATM   37  C   UNL     1     -10.001   8.297  70.814  1.00  0.00    -0.217 A  
HETATM   38  O   UNL     1     -12.046  11.719  69.682  1.00  0.00    -0.294 OA 
HETATM   39  C   UNL     1     -10.735   9.417  70.377  1.00  0.00    -0.317 A  
HETATM   40  O   UNL     1     -13.147  11.782  71.578  1.00  0.00    -0.407 OA 
HETATM   41  C   UNL     1     -11.193   8.388  72.931  1.00  0.00    -0.047 A  
HETATM   42  C   UNL     1     -11.645  10.044  71.236  1.00  0.00    -0.350 A  
HETATM   43  N   UNL     1     -12.331  11.267  70.799  1.00  0.00    -0.386 N  
HETATM   44  C   UNL     1     -11.881   9.529  72.514  1.00  0.00     0.617 A  
HETATM   45  C   UNL     1     -10.257   7.779  72.090  1.00  0.00    -0.269 A  
ENDBRANCH  12  37
ENDBRANCH   3   5
ENDBRANCH   2   3
TORSDOF 8
ENDMDL
MODEL      161
REMARK 921   NORMALIZED FREE ENERGY PREDICTED BY IDOCK:   -3.66 KCAL/MOL
REMARK 922        TOTAL FREE ENERGY PREDICTED BY IDOCK:   -7.28 KCAL/MOL
REMARK 923 INTER-LIGAND FREE ENERGY PREDICTED BY IDOCK:   -8.39 KCAL/MOL
REMARK 924 INTRA-LIGAND FREE ENERGY PREDICTED BY IDOCK:    1.10 KCAL/MOL
REMARK 927      BINDING AFFINITY PREDICTED BY RF-SCORE:    0.00 PKD
ROOT
HETATM    1  C   UNL     1      -9.882   2.533  70.082  1.00  0.00     0.246 C  
HETATM    2  O   UNL     1      -8.813   3.408  69.707  1.00  0.00    -0.075 OA 
ENDROOT
BRANCH   2   3
HETATM    3  C   UNL     1      -8.415   4.232  70.714  1.00  0.00    -0.078 C  
HETATM    4  O   UNL     1      -7.526   3.966  71.507  1.00  0.00    -0.052 OA 
BRANCH   3   5
HETATM    5  C   UNL     1      -9.206   5.493  70.710  1.00  0.00    -0.179 C  
HETATM    6  C   UNL     1     -10.165   5.721  71.640  1.00  0.00    -0.203 C  
HETATM    7  N   UNL     1     -10.836   6.932  71.647  1.00  0.00    -0.223 NA 
HETATM    8  C   UNL     1     -10.643   4.779  72.721  1.00  0.00    -0.272 C  
HETATM    9  C   UNL     1     -10.755   7.893  70.662  1.00  0.00    -0.228 C  
HETATM   10  C   UNL     1     -11.687   9.072  70.836  1.00  0.00    -0.327 C  
HETATM   11  C   UNL     1      -9.875   7.736  69.643  1.00  0.00    -0.182 C  
HETATM   12  C   UNL     1      -8.915   6.538  69.610  1.00  0.00    -0.141 C  
BRANCH  11  13
HETATM   13  C   UNL     1      -9.920   8.721  68.530  1.00  0.00    -0.182 C  
HETATM   14  O   UNL     1     -10.574   8.536  67.516  1.00  0.00    -0.256 OA 
BRANCH  13  15
HETATM   15  O   UNL     1      -9.237   9.852  68.824  1.00  0.00    -0.138 OA 
HETATM   16  C   UNL     1      -7.223  11.196  69.313  1.00  0.00    -0.112 C  
HETATM   17  C   UNL     1      -7.280   9.513  67.413  1.00  0.00    -0.087 C  
HETATM   18  C   UNL     1      -7.777   9.806  68.839  1.00  0.00    -0.082 C  
HETATM   19  C   UNL     1      -7.217   8.775  69.846  1.00  0.00    -0.051 C  
BRANCH  16  20
HETATM   20  N   UNL     1      -7.523  12.408  68.508  1.00  0.00    -0.111 NA 
HETATM   21  C   UNL     1      -6.942  12.296  67.167  1.00  0.00    -0.102 C  
BRANCH  20  22
HETATM   22  C   UNL     1      -8.983  12.571  68.332  1.00  0.00    -0.130 C  
BRANCH  22  23
HETATM   23  C   UNL     1      -9.494  14.009  68.223  1.00  0.00    -0.216 C  
HETATM   24  C   UNL     1      -9.603  14.618  66.801  1.00  0.00    -0.266 C  
HETATM   25  C   UNL     1      -9.807  16.133  66.973  1.00  0.00    -0.248 A  
HETATM   26  C   UNL     1     -10.620  13.874  65.931  1.00  0.00    -0.293 A  
HETATM   27  C   UNL     1      -8.892  17.037  66.413  1.00  0.00    -0.313 A  
HETATM   28  C   UNL     1     -11.986  14.189  65.886  1.00  0.00    -0.420 A  
HETATM   29  C   UNL     1      -8.937  18.394  66.750  1.00  0.00    -0.291 A  
HETATM   30  C   UNL     1     -12.889  13.398  65.171  1.00  0.00    -0.380 A  
HETATM   31  C   UNL     1     -12.447  12.276  64.482  1.00  0.00    -0.464 A  
HETATM   32  C   UNL     1      -9.904  18.870  67.634  1.00  0.00    -0.383 A  
HETATM   33  C   UNL     1     -10.847  17.997  68.161  1.00  0.00    -0.149 A  
HETATM   34  C   UNL     1     -11.095  11.952  64.490  1.00  0.00    -0.381 A  
HETATM   35  C   UNL     1     -10.192  12.750  65.201  1.00  0.00    -0.297 A  
HETATM   36  C   UNL     1     -10.799  16.643  67.834  1.00  0.00    -0.321 A  
ENDBRANCH  22  23
ENDBRANCH  20  22
ENDBRANCH  16  20
ENDBRANCH  13  15
ENDBRANCH  11  13
BRANCH  12  37
HETATM   37  C   UNL     1      -8.879   5.901  68.218  1.00  0.00    -0.110 A  
HETATM   38  O   UNL     1      -5.546   6.286  65.784  1.00  0.00    -0.016 OA 
HETATM   39  C   UNL     1      -7.708   5.982  67.438  1.00  0.00    -0.097 A  
HETATM   40  O   UNL     1      -6.522   5.203  64.146  1.00  0.00    -0.035 OA 
HETATM   41  C   UNL     1      -9.974   4.733  66.388  1.00  0.00    -0.264 A  
HETATM   42  C   UNL     1      -7.699   5.491  66.127  1.00  0.00    -0.095 A  
HETATM   43  N   UNL     1      -6.502   5.670  65.294  1.00  0.00    -0.038 N  
HETATM   44  C   UNL     1      -8.830   4.862  65.599  1.00  0.00    -0.139 A  
HETATM   45  C   UNL     1     -10.000   5.253  67.686  1.00  0.00    -0.202 A  
ENDBRANCH  12  37
ENDBRANCH   3   5
ENDBRANCH   2   3
TORSDOF 8
ENDMDL
MODEL      162
REMARK 921   NORMALIZED FREE ENERGY PREDICTED BY IDOCK:   -3.62 KCAL/MOL
REMARK 922        TOTAL FREE ENERGY PREDICTED BY IDOCK:   -7.22 KCAL/MOL
REMARK 923 INTER-LIGAND FREE ENERGY PREDICTED BY IDOCK:   -7.77 KCAL/MOL
REMARK 924 INTRA-LIGAND FREE ENERGY PREDICTED BY IDOCK:    0.55 KCAL/MOL
REMARK 927      BINDING AFFINITY PREDICTED BY RF-SCORE:    0.00 PKD
ROOT
HETATM    1  C   UNL     1     -12.128  16.239  72.734  1.00  0.00    -0.540 C  
HETATM    2  O   UNL     1     -11.851  15.758  71.414  1.00  0.00    -0.361 OA 
ENDROOT
BRANCH   2   3
HETATM    3  C   UNL     1     -12.935  15.205  70.806  1.00  0.00    -0.414 C  
HETATM    4  O   UNL     1     -14.056  15.689  70.828  1.00  0.00    -0.344 OA 
BRANCH   3   5
HETATM    5  C   UNL     1     -12.566  13.940  70.115  1.00  0.00    -0.285 C  
HETATM    6  C   UNL     1     -12.715  12.738  70.725  1.00  0.00    -0.136 C  
HETATM    7  N   UNL     1     -12.424  11.578  70.029  1.00  0.00    -0.172 NA 
HETATM    8  C   UNL     1     -13.164  12.475  72.143  1.00  0.00    -0.508 C  
HETATM    9  C   UNL     1     -11.804  11.521  68.799  1.00  0.00    -0.330 C  
HETATM   10  C   UNL     1     -11.477  10.128  68.308  1.00  0.00    -0.074 C  
HETATM   11  C   UNL     1     -11.543  12.668  68.126  1.00  0.00    -0.386 C  
HETATM   12  C   UNL     1     -11.996  14.026  68.682  1.00  0.00    -0.389 C  
BRANCH  11  13
HETATM   13  C   UNL     1     -10.749  12.572  66.873  1.00  0.00    -0.243 C  
HETATM   14  O   UNL     1     -10.996  13.247  65.885  1.00  0.00    -0.274 OA 
BRANCH  13  15
HETATM   15  O   UNL     1      -9.693  11.735  67.003  1.00  0.00    -0.183 OA 
HETATM   16  C   UNL     1      -7.421  10.896  66.517  1.00  0.00    -0.142 C  
HETATM   17  C   UNL     1      -7.883  13.362  66.907  1.00  0.00     0.230 C  
HETATM   18  C   UNL     1      -8.449  12.064  66.310  1.00  0.00     0.089 C  
HETATM   19  C   UNL     1      -8.628  12.187  64.779  1.00  0.00     1.482 C  
BRANCH  16  20
HETATM   20  N   UNL     1      -6.973  10.563  67.894  1.00  0.00    -0.077 NA 
HETATM   21  C   UNL     1      -6.951  11.762  68.738  1.00  0.00    -0.103 C  
BRANCH  20  22
HETATM   22  C   UNL     1      -7.905   9.606  68.531  1.00  0.00    -0.085 C  
BRANCH  22  23
HETATM   23  C   UNL     1      -7.389   8.891  69.781  1.00  0.00    -0.056 C  
HETATM   24  C   UNL     1      -8.406   8.035  70.579  1.00  0.00    -0.123 C  
HETATM   25  C   UNL     1      -7.756   7.706  71.933  1.00  0.00    -0.093 A  
HETATM   26  C   UNL     1      -8.937   6.856  69.759  1.00  0.00    -0.141 A  
HETATM   27  C   UNL     1      -8.376   8.100  73.129  1.00  0.00    -0.266 A  
HETATM   28  C   UNL     1      -8.317   5.599  69.708  1.00  0.00    -0.107 A  
HETATM   29  C   UNL     1      -7.693   8.012  74.347  1.00  0.00    -0.266 A  
HETATM   30  C   UNL     1      -8.774   4.599  68.846  1.00  0.00    -0.110 A  
HETATM   31  C   UNL     1      -9.864   4.831  68.016  1.00  0.00    -0.185 A  
HETATM   32  C   UNL     1      -6.391   7.514  74.391  1.00  0.00    -0.085 A  
HETATM   33  C   UNL     1      -5.780   7.075  73.224  1.00  0.00    -0.046 A  
HETATM   34  C   UNL     1     -10.513   6.059  68.062  1.00  0.00    -0.291 A  
HETATM   35  C   UNL     1     -10.058   7.057  68.932  1.00  0.00    -0.174 A  
HETATM   36  C   UNL     1      -6.455   7.170  72.008  1.00  0.00    -0.044 A  
ENDBRANCH  22  23
ENDBRANCH  20  22
ENDBRANCH  16  20
ENDBRANCH  13  15
ENDBRANCH  11  13
BRANCH  12  37
HETATM   37  C   UNL     1     -10.873  15.063  68.580  1.00  0.00    -0.250 A  
HETATM   38  O   UNL     1     -10.882  17.926  65.584  1.00  0.00    -0.397 OA 
HETATM   39  C   UNL     1     -10.935  16.072  67.599  1.00  0.00    -0.284 A  
HETATM   40  O   UNL     1      -8.950  18.731  66.241  1.00  0.00    -0.375 OA 
HETATM   41  C   UNL     1      -8.715  15.931  69.285  1.00  0.00    -0.250 A  
HETATM   42  C   UNL     1      -9.866  16.961  67.433  1.00  0.00    -0.261 A  
HETATM   43  N   UNL     1      -9.904  17.946  66.343  1.00  0.00    -0.334 N  
HETATM   44  C   UNL     1      -8.755  16.897  68.278  1.00  0.00    -0.235 A  
HETATM   45  C   UNL     1      -9.763  15.018  69.432  1.00  0.00    -0.159 A  
ENDBRANCH  12  37
ENDBRANCH   3   5
ENDBRANCH   2   3
TORSDOF 8
ENDMDL
MODEL      163
REMARK 921   NORMALIZED FREE ENERGY PREDICTED BY IDOCK:   -3.61 KCAL/MOL
REMARK 922        TOTAL FREE ENERGY PREDICTED BY IDOCK:   -7.21 KCAL/MOL
REMARK 923 INTER-LIGAND FREE ENERGY PREDICTED BY IDOCK:   -6.73 KCAL/MOL
REMARK 924 INTRA-LIGAND FREE ENERGY PREDICTED BY IDOCK:   -0.47 KCAL/MOL
REMARK 927      BINDING AFFINITY PREDICTED BY RF-SCORE:    0.00 PKD
ROOT
HETATM    1  C   UNL     1     -12.759  12.510  70.960  1.00  0.00    -0.225 C  
HETATM    2  O   UNL     1     -11.694  11.566  70.810  1.00  0.00    -0.204 OA 
ENDROOT
BRANCH   2   3
HETATM    3  C   UNL     1     -12.014  10.520  70.001  1.00  0.00    -0.288 C  
HETATM    4  O   UNL     1     -12.497  10.638  68.886  1.00  0.00    -0.297 OA 
BRANCH   3   5
HETATM    5  C   UNL     1     -11.692   9.224  70.659  1.00  0.00    -0.276 C  
HETATM    6  C   UNL     1     -12.405   8.783  71.725  1.00  0.00    -0.351 C  
HETATM    7  N   UNL     1     -12.121   7.544  72.271  1.00  0.00    -0.265 NA 
HETATM    8  C   UNL     1     -13.516   9.504  72.452  1.00  0.00    -0.475 C  
HETATM    9  C   UNL     1     -11.033   6.761  71.947  1.00  0.00    -0.239 C  
HETATM   10  C   UNL     1     -10.873   5.508  72.780  1.00  0.00    -0.308 C  
HETATM   11  C   UNL     1     -10.210   7.140  70.939  1.00  0.00    -0.207 C  
HETATM   12  C   UNL     1     -10.515   8.392  70.104  1.00  0.00    -0.230 C  
BRANCH  11  13
HETATM   13  C   UNL     1      -8.974   6.346  70.718  1.00  0.00    -0.144 C  
HETATM   14  O   UNL     1      -8.117   6.210  71.578  1.00  0.00    -0.111 OA 
BRANCH  13  15
HETATM   15  O   UNL     1      -8.970   5.735  69.509  1.00  0.00    -0.122 OA 
HETATM   16  C   UNL     1      -8.610   3.860  67.944  1.00  0.00    -0.097 C  
HETATM   17  C   UNL     1      -9.781   3.537  70.173  1.00  0.00    -0.155 C  
HETATM   18  C   UNL     1      -8.667   4.307  69.446  1.00  0.00    -0.087 C  
HETATM   19  C   UNL     1      -7.277   3.961  70.031  1.00  0.00    -0.042 C  
BRANCH  16  20
HETATM   20  N   UNL     1      -9.828   3.993  67.103  1.00  0.00    -0.168 NA 
HETATM   21  C   UNL     1     -10.322   5.373  67.118  1.00  0.00    -0.236 C  
BRANCH  20  22
HETATM   22  C   UNL     1      -9.530   3.659  65.693  1.00  0.00    -0.156 C  
BRANCH  22  23
HETATM   23  C   UNL     1      -9.033   4.811  64.817  1.00  0.00    -0.146 C  
HETATM   24  C   UNL     1      -7.521   5.151  64.881  1.00  0.00    -0.072 C  
HETATM   25  C   UNL     1      -7.335   6.515  64.196  1.00  0.00    -0.077 A  
HETATM   26  C   UNL     1      -6.648   3.997  64.380  1.00  0.00    -0.043 A  
HETATM   27  C   UNL     1      -6.783   7.592  64.905  1.00  0.00    -0.047 A  
HETATM   28  C   UNL     1      -6.283   3.821  63.037  1.00  0.00    -0.018 A  
HETATM   29  C   UNL     1      -6.817   8.886  64.374  1.00  0.00    -0.081 A  
HETATM   30  C   UNL     1      -5.590   2.683  62.617  1.00  0.00    -0.008 A  
HETATM   31  C   UNL     1      -5.243   1.695  63.530  1.00  0.00    -0.004 A  
HETATM   32  C   UNL     1      -7.387   9.120  63.123  1.00  0.00    -0.095 A  
HETATM   33  C   UNL     1      -7.896   8.058  62.387  1.00  0.00    -0.139 A  
HETATM   34  C   UNL     1      -5.572   1.853  64.871  1.00  0.00    -0.009 A  
HETATM   35  C   UNL     1      -6.259   2.998  65.291  1.00  0.00    -0.027 A  
HETATM   36  C   UNL     1      -7.870   6.770  62.917  1.00  0.00    -0.108 A  
ENDBRANCH  22  23
ENDBRANCH  20  22
ENDBRANCH  16  20
ENDBRANCH  13  15
ENDBRANCH  11  13
BRANCH  12  37
HETATM   37  C   UNL     1      -9.258   9.245  69.913  1.00  0.00    -0.209 A  
HETATM   38  O   UNL     1      -8.485  11.123  66.300  1.00  0.00    -0.166 OA 
HETATM   39  C   UNL     1      -9.053   9.934  68.701  1.00  0.00    -0.132 A  
HETATM   40  O   UNL     1      -6.564  11.895  67.024  1.00  0.00    -0.142 OA 
HETATM   41  C   UNL     1      -7.111  10.069  70.702  1.00  0.00     0.006 A  
HETATM   42  C   UNL     1      -7.860  10.633  68.480  1.00  0.00    -0.115 A  
HETATM   43  N   UNL     1      -7.622  11.265  67.176  1.00  0.00    -0.129 N  
HETATM   44  C   UNL     1      -6.888  10.707  69.481  1.00  0.00    -0.109 A  
HETATM   45  C   UNL     1      -8.285   9.339  70.915  1.00  0.00    -0.179 A  
ENDBRANCH  12  37
ENDBRANCH   3   5
ENDBRANCH   2   3
TORSDOF 8
ENDMDL
MODEL      164
REMARK 921   NORMALIZED FREE ENERGY PREDICTED BY IDOCK:   -3.59 KCAL/MOL
REMARK 922        TOTAL FREE ENERGY PREDICTED BY IDOCK:   -7.19 KCAL/MOL
REMARK 923 INTER-LIGAND FREE ENERGY PREDICTED BY IDOCK:   -7.69 KCAL/MOL
REMARK 924 INTRA-LIGAND FREE ENERGY PREDICTED BY IDOCK:    0.51 KCAL/MOL
REMARK 927      BINDING AFFINITY PREDICTED BY RF-SCORE:    0.00 PKD
ROOT
HETATM    1  C   UNL     1     -12.226   5.751  71.543  1.00  0.00     0.717 C  
HETATM    2  O   UNL     1     -11.327   5.519  72.632  1.00  0.00    -0.282 OA 
ENDROOT
BRANCH   2   3
HETATM    3  C   UNL     1     -10.234   4.789  72.281  1.00  0.00    -0.191 C  
HETATM    4  O   UNL     1     -10.243   3.580  72.107  1.00  0.00    -0.156 OA 
BRANCH   3   5
HETATM    5  C   UNL     1      -9.038   5.663  72.136  1.00  0.00    -0.147 C  
HETATM    6  C   UNL     1      -8.568   6.387  73.182  1.00  0.00    -0.119 C  
HETATM    7  N   UNL     1      -7.416   7.137  73.030  1.00  0.00    -0.072 NA 
HETATM    8  C   UNL     1      -9.170   6.509  74.562  1.00  0.00    -0.228 C  
HETATM    9  C   UNL     1      -6.774   7.378  71.833  1.00  0.00    -0.054 C  
HETATM   10  C   UNL     1      -5.607   8.339  71.913  1.00  0.00    -0.038 C  
HETATM   11  C   UNL     1      -7.201   6.759  70.706  1.00  0.00    -0.070 C  
HETATM   12  C   UNL     1      -8.345   5.735  70.757  1.00  0.00    -0.124 C  
BRANCH  11  13
HETATM   13  C   UNL     1      -6.574   7.153  69.418  1.00  0.00    -0.044 C  
HETATM   14  O   UNL     1      -5.499   6.708  69.047  1.00  0.00    -0.015 OA 
BRANCH  13  15
HETATM   15  O   UNL     1      -7.373   7.971  68.692  1.00  0.00    -0.085 OA 
HETATM   16  C   UNL     1      -8.536  10.085  68.167  1.00  0.00    -0.118 C  
HETATM   17  C   UNL     1      -6.100  10.039  68.880  1.00  0.00    -0.040 C  
HETATM   18  C   UNL     1      -7.473   9.376  69.078  1.00  0.00    -0.073 C  
HETATM   19  C   UNL     1      -7.981   9.568  70.527  1.00  0.00    -0.188 C  
BRANCH  16  20
HETATM   20  N   UNL     1      -8.308  10.144  66.700  1.00  0.00    -0.122 NA 
HETATM   21  C   UNL     1      -9.420   9.522  65.976  1.00  0.00    -0.233 C  
BRANCH  20  22
HETATM   22  C   UNL     1      -8.226  11.547  66.239  1.00  0.00    -0.044 C  
BRANCH  22  23
HETATM   23  C   UNL     1      -9.012  12.574  67.058  1.00  0.00    -0.211 C  
HETATM   24  C   UNL     1      -9.670  13.745  66.284  1.00  0.00    -0.297 C  
HETATM   25  C   UNL     1     -10.098  14.791  67.327  1.00  0.00    -0.236 A  
HETATM   26  C   UNL     1     -10.744  13.260  65.306  1.00  0.00    -0.322 A  
HETATM   27  C   UNL     1      -9.593  16.099  67.263  1.00  0.00    -0.231 A  
HETATM   28  C   UNL     1     -12.091  13.078  65.653  1.00  0.00    -0.507 A  
HETATM   29  C   UNL     1      -9.790  16.990  68.324  1.00  0.00    -0.278 A  
HETATM   30  C   UNL     1     -13.001  12.513  64.756  1.00  0.00    -0.115 A  
HETATM   31  C   UNL     1     -12.587  12.121  63.489  1.00  0.00    -0.621 A  
HETATM   32  C   UNL     1     -10.509  16.595  69.452  1.00  0.00    -0.320 A  
HETATM   33  C   UNL     1     -11.057  15.320  69.510  1.00  0.00    -0.286 A  
HETATM   34  C   UNL     1     -11.264  12.310  63.109  1.00  0.00    -0.236 A  
HETATM   35  C   UNL     1     -10.355  12.882  64.007  1.00  0.00    -0.346 A  
HETATM   36  C   UNL     1     -10.853  14.428  68.459  1.00  0.00    -0.260 A  
ENDBRANCH  22  23
ENDBRANCH  20  22
ENDBRANCH  16  20
ENDBRANCH  13  15
ENDBRANCH  11  13
BRANCH  12  37
HETATM   37  C   UNL     1      -9.351   5.980  69.629  1.00  0.00    -0.161 A  
HETATM   38  O   UNL     1      -9.433   3.538  66.281  1.00  0.00    -0.181 OA 
HETATM   39  C   UNL     1      -9.410   5.094  68.535  1.00  0.00    -0.161 A  
HETATM   40  O   UNL     1     -11.012   4.741  65.348  1.00  0.00    -0.192 OA 
HETATM   41  C   UNL     1     -11.075   7.334  68.578  1.00  0.00     0.063 A  
HETATM   42  C   UNL     1     -10.255   5.365  67.453  1.00  0.00    -0.201 A  
HETATM   43  N   UNL     1     -10.235   4.482  66.278  1.00  0.00    -0.259 N  
HETATM   44  C   UNL     1     -11.093   6.483  67.472  1.00  0.00    -0.396 A  
HETATM   45  C   UNL     1     -10.207   7.088  69.646  1.00  0.00    -0.212 A  
ENDBRANCH  12  37
ENDBRANCH   3   5
ENDBRANCH   2   3
TORSDOF 8
ENDMDL
MODEL      165
REMARK 921   NORMALIZED FREE ENERGY PREDICTED BY IDOCK:   -3.59 KCAL/MOL
REMARK 922        TOTAL FREE ENERGY PREDICTED BY IDOCK:   -7.18 KCAL/MOL
REMARK 923 INTER-LIGAND FREE ENERGY PREDICTED BY IDOCK:   -7.59 KCAL/MOL
REMARK 924 INTRA-LIGAND FREE ENERGY PREDICTED BY IDOCK:    0.40 KCAL/MOL
REMARK 927      BINDING AFFINITY PREDICTED BY RF-SCORE:    0.00 PKD
ROOT
HETATM    1  C   UNL     1      -5.154   2.756  71.096  1.00  0.00     0.000 C  
HETATM    2  O   UNL     1      -6.344   2.474  70.351  1.00  0.00    -0.023 OA 
ENDROOT
BRANCH   2   3
HETATM    3  C   UNL     1      -7.477   2.918  70.959  1.00  0.00    -0.033 C  
HETATM    4  O   UNL     1      -8.393   2.194  71.317  1.00  0.00    -0.052 OA 
BRANCH   3   5
HETATM    5  C   UNL     1      -7.441   4.396  71.129  1.00  0.00    -0.059 C  
HETATM    6  C   UNL     1      -7.749   4.973  72.317  1.00  0.00    -0.096 C  
HETATM    7  N   UNL     1      -7.642   6.346  72.457  1.00  0.00    -0.099 NA 
HETATM    8  C   UNL     1      -8.236   4.291  73.574  1.00  0.00    -0.090 C  
HETATM    9  C   UNL     1      -7.423   7.237  71.429  1.00  0.00    -0.082 C  
HETATM   10  C   UNL     1      -7.479   8.697  71.822  1.00  0.00    -0.114 C  
HETATM   11  C   UNL     1      -7.171   6.773  70.181  1.00  0.00    -0.076 C  
HETATM   12  C   UNL     1      -7.054   5.265  69.912  1.00  0.00    -0.062 C  
BRANCH  11  13
HETATM   13  C   UNL     1      -7.081   7.764  69.077  1.00  0.00    -0.074 C  
HETATM   14  O   UNL     1      -6.304   7.638  68.143  1.00  0.00    -0.045 OA 
BRANCH  13  15
HETATM   15  O   UNL     1      -8.011   8.741  69.192  1.00  0.00    -0.105 OA 
HETATM   16  C   UNL     1      -9.567  10.469  68.359  1.00  0.00    -0.160 C  
HETATM   17  C   UNL     1      -9.427   8.168  67.295  1.00  0.00    -0.196 C  
HETATM   18  C   UNL     1      -8.615   9.281  67.976  1.00  0.00    -0.121 C  
HETATM   19  C   UNL     1      -7.574   9.885  67.005  1.00  0.00    -0.092 C  
BRANCH  16  20
HETATM   20  N   UNL     1     -10.735  10.205  69.239  1.00  0.00    -0.218 NA 
HETATM   21  C   UNL     1     -10.318   9.516  70.464  1.00  0.00    -0.288 C  
BRANCH  20  22
HETATM   22  C   UNL     1     -11.373  11.473  69.655  1.00  0.00    -0.256 C  
BRANCH  22  23
HETATM   23  C   UNL     1     -10.630  12.758  69.283  1.00  0.00     0.117 C  
HETATM   24  C   UNL     1     -11.466  14.061  69.193  1.00  0.00    -0.340 C  
HETATM   25  C   UNL     1     -10.588  15.113  68.495  1.00  0.00    -0.237 A  
HETATM   26  C   UNL     1     -12.076  14.449  70.542  1.00  0.00    -0.404 A  
HETATM   27  C   UNL     1     -11.017  15.712  67.302  1.00  0.00    -0.275 A  
HETATM   28  C   UNL     1     -11.422  15.246  71.494  1.00  0.00    -0.457 A  
HETATM   29  C   UNL     1     -10.140  16.493  66.542  1.00  0.00    -0.307 A  
HETATM   30  C   UNL     1     -11.975  15.465  72.759  1.00  0.00    -0.552 A  
HETATM   31  C   UNL     1     -13.195  14.896  73.101  1.00  0.00    -0.568 A  
HETATM   32  C   UNL     1      -8.830  16.702  66.971  1.00  0.00    -0.220 A  
HETATM   33  C   UNL     1      -8.402  16.156  68.174  1.00  0.00    -0.166 A  
HETATM   34  C   UNL     1     -13.877  14.121  72.169  1.00  0.00    -0.613 A  
HETATM   35  C   UNL     1     -13.325  13.909  70.901  1.00  0.00    -0.131 A  
HETATM   36  C   UNL     1      -9.272  15.370  68.928  1.00  0.00    -0.216 A  
ENDBRANCH  22  23
ENDBRANCH  20  22
ENDBRANCH  16  20
ENDBRANCH  13  15
ENDBRANCH  11  13
BRANCH  12  37
HETATM   37  C   UNL     1      -7.840   4.869  68.659  1.00  0.00    -0.077 A  
HETATM   38  O   UNL     1      -5.885   3.895  65.136  1.00  0.00    -0.021 OA 
HETATM   39  C   UNL     1      -7.153   4.470  67.495  1.00  0.00    -0.065 A  
HETATM   40  O   UNL     1      -7.782   3.631  64.066  1.00  0.00    -0.077 OA 
HETATM   41  C   UNL     1      -9.941   4.612  67.463  1.00  0.00    -0.174 A  
HETATM   42  C   UNL     1      -7.860   4.204  66.316  1.00  0.00    -0.094 A  
HETATM   43  N   UNL     1      -7.122   3.883  65.086  1.00  0.00    -0.065 N  
HETATM   44  C   UNL     1      -9.255   4.269  66.297  1.00  0.00    -0.146 A  
HETATM   45  C   UNL     1      -9.239   4.915  68.634  1.00  0.00    -0.159 A  
ENDBRANCH  12  37
ENDBRANCH   3   5
ENDBRANCH   2   3
TORSDOF 8
ENDMDL
MODEL      166
REMARK 921   NORMALIZED FREE ENERGY PREDICTED BY IDOCK:   -3.58 KCAL/MOL
REMARK 922        TOTAL FREE ENERGY PREDICTED BY IDOCK:   -7.17 KCAL/MOL
REMARK 923 INTER-LIGAND FREE ENERGY PREDICTED BY IDOCK:   -6.53 KCAL/MOL
REMARK 924 INTRA-LIGAND FREE ENERGY PREDICTED BY IDOCK:   -0.64 KCAL/MOL
REMARK 927      BINDING AFFINITY PREDICTED BY RF-SCORE:    0.00 PKD
ROOT
HETATM    1  C   UNL     1     -12.017   9.925  71.810  1.00  0.00    -0.250 C  
HETATM    2  O   UNL     1     -10.831   9.138  71.663  1.00  0.00    -0.337 OA 
ENDROOT
BRANCH   2   3
HETATM    3  C   UNL     1     -10.464   8.957  70.365  1.00  0.00    -0.210 C  
HETATM    4  O   UNL     1     -10.405   9.854  69.538  1.00  0.00    -0.199 OA 
BRANCH   3   5
HETATM    5  C   UNL     1     -10.144   7.529  70.100  1.00  0.00    -0.195 C  
HETATM    6  C   UNL     1     -11.039   6.547  70.373  1.00  0.00    -0.332 C  
HETATM    7  N   UNL     1     -10.734   5.236  70.053  1.00  0.00    -0.235 NA 
HETATM    8  C   UNL     1     -12.391   6.691  71.032  1.00  0.00    -0.289 C  
HETATM    9  C   UNL     1      -9.500   4.784  69.636  1.00  0.00    -0.153 C  
HETATM   10  C   UNL     1      -9.386   3.284  69.475  1.00  0.00    -0.235 C  
HETATM   11  C   UNL     1      -8.506   5.674  69.395  1.00  0.00    -0.106 C  
HETATM   12  C   UNL     1      -8.758   7.184  69.511  1.00  0.00    -0.134 C  
BRANCH  11  13
HETATM   13  C   UNL     1      -7.155   5.137  69.086  1.00  0.00    -0.056 C  
HETATM   14  O   UNL     1      -6.577   4.350  69.820  1.00  0.00    -0.031 OA 
BRANCH  13  15
HETATM   15  O   UNL     1      -6.707   5.551  67.877  1.00  0.00    -0.051 OA 
HETATM   16  C   UNL     1      -6.526   5.503  65.415  1.00  0.00    -0.039 C  
HETATM   17  C   UNL     1      -8.767   5.334  66.596  1.00  0.00    -0.113 C  
HETATM   18  C   UNL     1      -7.280   4.950  66.675  1.00  0.00    -0.080 C  
HETATM   19  C   UNL     1      -7.098   3.415  66.623  1.00  0.00    -0.055 C  
BRANCH  16  20
HETATM   20  N   UNL     1      -6.567   6.960  65.128  1.00  0.00    -0.045 NA 
HETATM   21  C   UNL     1      -6.549   7.205  63.683  1.00  0.00    -0.044 C  
BRANCH  20  22
HETATM   22  C   UNL     1      -7.814   7.561  65.650  1.00  0.00    -0.110 C  
BRANCH  22  23
HETATM   23  C   UNL     1      -7.649   8.796  66.538  1.00  0.00    -0.095 C  
HETATM   24  C   UNL     1      -7.363  10.146  65.832  1.00  0.00    -0.121 C  
HETATM   25  C   UNL     1      -6.914  11.138  66.918  1.00  0.00    -0.131 A  
HETATM   26  C   UNL     1      -8.521  10.581  64.930  1.00  0.00    -0.161 A  
HETATM   27  C   UNL     1      -5.656  11.752  66.836  1.00  0.00    -0.128 A  
HETATM   28  C   UNL     1      -9.612  11.344  65.373  1.00  0.00    -0.255 A  
HETATM   29  C   UNL     1      -5.144  12.473  67.921  1.00  0.00    -0.086 A  
HETATM   30  C   UNL     1     -10.701  11.606  64.538  1.00  0.00    -0.378 A  
HETATM   31  C   UNL     1     -10.724  11.115  63.239  1.00  0.00    -0.199 A  
HETATM   32  C   UNL     1      -5.887  12.605  69.093  1.00  0.00    -0.080 A  
HETATM   33  C   UNL     1      -7.155  12.044  69.174  1.00  0.00    -0.032 A  
HETATM   34  C   UNL     1      -9.647  10.375  62.764  1.00  0.00    -0.311 A  
HETATM   35  C   UNL     1      -8.554  10.121  63.600  1.00  0.00    -0.199 A  
HETATM   36  C   UNL     1      -7.662  11.318  68.098  1.00  0.00    -0.112 A  
ENDBRANCH  22  23
ENDBRANCH  20  22
ENDBRANCH  16  20
ENDBRANCH  13  15
ENDBRANCH  11  13
BRANCH  12  37
HETATM   37  C   UNL     1      -7.627   7.872  70.282  1.00  0.00    -0.086 A  
HETATM   38  O   UNL     1      -7.898   8.474  74.373  1.00  0.00    -0.332 OA 
HETATM   39  C   UNL     1      -7.708   8.000  71.682  1.00  0.00    -0.100 A  
HETATM   40  O   UNL     1      -5.982   9.540  74.421  1.00  0.00    -0.331 OA 
HETATM   41  C   UNL     1      -5.522   9.086  70.329  1.00  0.00    -0.027 A  
HETATM   42  C   UNL     1      -6.730   8.715  72.383  1.00  0.00    -0.036 A  
HETATM   43  N   UNL     1      -6.879   8.921  73.830  1.00  0.00     0.083 N  
HETATM   44  C   UNL     1      -5.632   9.257  71.710  1.00  0.00    -0.073 A  
HETATM   45  C   UNL     1      -6.514   8.403  69.619  1.00  0.00    -0.036 A  
ENDBRANCH  12  37
ENDBRANCH   3   5
ENDBRANCH   2   3
TORSDOF 8
ENDMDL
MODEL      167
REMARK 921   NORMALIZED FREE ENERGY PREDICTED BY IDOCK:   -3.58 KCAL/MOL
REMARK 922        TOTAL FREE ENERGY PREDICTED BY IDOCK:   -7.16 KCAL/MOL
REMARK 923 INTER-LIGAND FREE ENERGY PREDICTED BY IDOCK:   -6.29 KCAL/MOL
REMARK 924 INTRA-LIGAND FREE ENERGY PREDICTED BY IDOCK:   -0.87 KCAL/MOL
REMARK 927      BINDING AFFINITY PREDICTED BY RF-SCORE:    0.00 PKD
ROOT
HETATM    1  C   UNL     1     -11.574  15.119  68.454  1.00  0.00    -0.337 C  
HETATM    2  O   UNL     1     -10.794  13.919  68.414  1.00  0.00    -0.240 OA 
ENDROOT
BRANCH   2   3
HETATM    3  C   UNL     1     -11.526  12.813  68.113  1.00  0.00    -0.314 C  
HETATM    4  O   UNL     1     -12.269  12.724  67.148  1.00  0.00    -0.404 OA 
BRANCH   3   5
HETATM    5  C   UNL     1     -11.292  11.735  69.112  1.00  0.00    -0.340 C  
HETATM    6  C   UNL     1     -11.940  11.731  70.303  1.00  0.00    -0.343 C  
HETATM    7  N   UNL     1     -11.749  10.679  71.181  1.00  0.00    -0.252 NA 
HETATM    8  C   UNL     1     -12.882  12.782  70.843  1.00  0.00    -0.187 C  
HETATM    9  C   UNL     1     -10.797   9.691  71.045  1.00  0.00    -0.342 C  
HETATM   10  C   UNL     1     -10.701   8.727  72.208  1.00  0.00    -0.322 C  
HETATM   11  C   UNL     1     -10.041   9.638  69.922  1.00  0.00    -0.279 C  
HETATM   12  C   UNL     1     -10.282  10.619  68.765  1.00  0.00    -0.204 C  
BRANCH  11  13
HETATM   13  C   UNL     1      -8.934   8.648  69.877  1.00  0.00    -0.149 C  
HETATM   14  O   UNL     1      -7.981   8.693  70.640  1.00  0.00    -0.088 OA 
BRANCH  13  15
HETATM   15  O   UNL     1      -9.162   7.668  68.971  1.00  0.00    -0.141 OA 
HETATM   16  C   UNL     1      -9.503   5.341  68.220  1.00  0.00    -0.124 C  
HETATM   17  C   UNL     1     -10.677   6.271  70.269  1.00  0.00    -0.339 C  
HETATM   18  C   UNL     1      -9.376   6.305  69.451  1.00  0.00    -0.140 C  
HETATM   19  C   UNL     1      -8.185   5.764  70.276  1.00  0.00    -0.110 C  
BRANCH  16  20
HETATM   20  N   UNL     1     -10.612   5.545  67.252  1.00  0.00    -0.240 NA 
HETATM   21  C   UNL     1     -10.861   6.974  67.042  1.00  0.00    -0.343 C  
BRANCH  20  22
HETATM   22  C   UNL     1     -10.267   4.971  65.933  1.00  0.00    -0.178 C  
BRANCH  22  23
HETATM   23  C   UNL     1      -9.396   5.840  65.024  1.00  0.00     0.399 C  
HETATM   24  C   UNL     1      -7.868   5.573  65.038  1.00  0.00    -0.099 C  
HETATM   25  C   UNL     1      -7.196   6.758  64.326  1.00  0.00    -0.070 A  
HETATM   26  C   UNL     1      -7.523   4.171  64.529  1.00  0.00    -0.072 A  
HETATM   27  C   UNL     1      -6.248   7.542  65.001  1.00  0.00    -0.038 A  
HETATM   28  C   UNL     1      -7.299   3.864  63.179  1.00  0.00    -0.050 A  
HETATM   29  C   UNL     1      -5.801   8.749  64.451  1.00  0.00    -0.065 A  
HETATM   30  C   UNL     1      -7.111   2.545  62.756  1.00  0.00    -0.032 A  
HETATM   31  C   UNL     1      -7.140   1.502  63.674  1.00  0.00    -0.032 A  
HETATM   32  C   UNL     1      -6.278   9.179  63.215  1.00  0.00    -0.090 A  
HETATM   33  C   UNL     1      -7.180   8.393  62.510  1.00  0.00    -0.095 A  
HETATM   34  C   UNL     1      -7.337   1.779  65.022  1.00  0.00    -0.057 A  
HETATM   35  C   UNL     1      -7.517   3.101  65.444  1.00  0.00    -0.076 A  
HETATM   36  C   UNL     1      -7.634   7.195  63.060  1.00  0.00    -0.108 A  
ENDBRANCH  22  23
ENDBRANCH  20  22
ENDBRANCH  16  20
ENDBRANCH  13  15
ENDBRANCH  11  13
BRANCH  12  37
HETATM   37  C   UNL     1      -8.959  11.193  68.248  1.00  0.00    -0.166 A  
HETATM   38  O   UNL     1      -6.829  13.971  70.467  1.00  0.00     0.149 OA 
HETATM   39  C   UNL     1      -8.215  12.080  69.052  1.00  0.00     0.244 A  
HETATM   40  O   UNL     1      -5.315  14.182  68.894  1.00  0.00    -0.080 OA 
HETATM   41  C   UNL     1      -7.302  11.454  66.489  1.00  0.00    -0.063 A  
HETATM   42  C   UNL     1      -7.059  12.686  68.548  1.00  0.00    -0.101 A  
HETATM   43  N   UNL     1      -6.348  13.681  69.363  1.00  0.00    -0.105 N  
HETATM   44  C   UNL     1      -6.596  12.373  67.268  1.00  0.00    -0.136 A  
HETATM   45  C   UNL     1      -8.477  10.872  66.973  1.00  0.00    -0.134 A  
ENDBRANCH  12  37
ENDBRANCH   3   5
ENDBRANCH   2   3
TORSDOF 8
ENDMDL
MODEL      168
REMARK 921   NORMALIZED FREE ENERGY PREDICTED BY IDOCK:   -3.55 KCAL/MOL
REMARK 922        TOTAL FREE ENERGY PREDICTED BY IDOCK:   -7.12 KCAL/MOL
REMARK 923 INTER-LIGAND FREE ENERGY PREDICTED BY IDOCK:   -5.69 KCAL/MOL
REMARK 924 INTRA-LIGAND FREE ENERGY PREDICTED BY IDOCK:   -1.42 KCAL/MOL
REMARK 927      BINDING AFFINITY PREDICTED BY RF-SCORE:    0.00 PKD
ROOT
HETATM    1  C   UNL     1      -7.781   8.420  73.051  1.00  0.00    -0.069 C  
HETATM    2  O   UNL     1      -8.439   7.577  72.099  1.00  0.00    -0.106 OA 
ENDROOT
BRANCH   2   3
HETATM    3  C   UNL     1      -9.668   8.032  71.736  1.00  0.00    -0.176 C  
HETATM    4  O   UNL     1     -10.373   8.738  72.441  1.00  0.00    -0.300 OA 
BRANCH   3   5
HETATM    5  C   UNL     1     -10.028   7.556  70.373  1.00  0.00    -0.184 C  
HETATM    6  C   UNL     1     -10.321   6.253  70.140  1.00  0.00    -0.205 C  
HETATM    7  N   UNL     1     -10.716   5.858  68.874  1.00  0.00    -0.289 NA 
HETATM    8  C   UNL     1     -10.257   5.105  71.120  1.00  0.00    -0.291 C  
HETATM    9  C   UNL     1     -10.666   6.643  67.742  1.00  0.00    -0.283 C  
HETATM   10  C   UNL     1     -11.029   5.937  66.454  1.00  0.00    -0.023 C  
HETATM   11  C   UNL     1     -10.318   7.949  67.847  1.00  0.00    -0.281 C  
HETATM   12  C   UNL     1     -10.051   8.584  69.220  1.00  0.00    -0.203 C  
BRANCH  11  13
HETATM   13  C   UNL     1     -10.139   8.722  66.591  1.00  0.00    -0.288 C  
HETATM   14  O   UNL     1     -10.782   9.730  66.342  1.00  0.00    -0.089 OA 
BRANCH  13  15
HETATM   15  O   UNL     1      -9.135   8.229  65.828  1.00  0.00    -0.176 OA 
HETATM   16  C   UNL     1      -7.431   8.300  64.042  1.00  0.00    -0.110 C  
HETATM   17  C   UNL     1      -7.740  10.220  65.674  1.00  0.00    -0.148 C  
HETATM   18  C   UNL     1      -8.470   9.123  64.882  1.00  0.00    -0.175 C  
HETATM   19  C   UNL     1      -9.442   9.735  63.848  1.00  0.00    -0.098 C  
BRANCH  16  20
HETATM   20  N   UNL     1      -6.302   7.633  64.740  1.00  0.00    -0.044 NA 
HETATM   21  C   UNL     1      -6.578   7.510  66.175  1.00  0.00    -0.046 C  
BRANCH  20  22
HETATM   22  C   UNL     1      -6.103   6.261  64.222  1.00  0.00    -0.029 C  
BRANCH  22  23
HETATM   23  C   UNL     1      -7.362   5.403  64.082  1.00  0.00    -0.057 C  
HETATM   24  C   UNL     1      -7.284   3.940  64.589  1.00  0.00    -0.066 C  
HETATM   25  C   UNL     1      -8.522   3.207  64.046  1.00  0.00    -0.089 A  
HETATM   26  C   UNL     1      -7.039   3.865  66.099  1.00  0.00    -0.064 A  
HETATM   27  C   UNL     1      -8.371   2.078  63.227  1.00  0.00    -0.073 A  
HETATM   28  C   UNL     1      -8.065   3.866  67.057  1.00  0.00    -0.096 A  
HETATM   29  C   UNL     1      -9.469   1.542  62.545  1.00  0.00    -0.085 A  
HETATM   30  C   UNL     1      -7.780   3.923  68.424  1.00  0.00    -0.065 A  
HETATM   31  C   UNL     1      -6.464   3.977  68.866  1.00  0.00    -0.040 A  
HETATM   32  C   UNL     1     -10.733   2.112  62.686  1.00  0.00    -0.157 A  
HETATM   33  C   UNL     1     -10.910   3.201  63.530  1.00  0.00    -0.206 A  
HETATM   34  C   UNL     1      -5.427   3.955  67.940  1.00  0.00    -0.016 A  
HETATM   35  C   UNL     1      -5.714   3.890  66.572  1.00  0.00    -0.022 A  
HETATM   36  C   UNL     1      -9.816   3.742  64.203  1.00  0.00    -0.183 A  
ENDBRANCH  22  23
ENDBRANCH  20  22
ENDBRANCH  16  20
ENDBRANCH  13  15
ENDBRANCH  11  13
BRANCH  12  37
HETATM   37  C   UNL     1      -8.778   9.434  69.193  1.00  0.00    -0.142 A  
HETATM   38  O   UNL     1      -8.963  13.529  68.579  1.00  0.00    -0.168 OA 
HETATM   39  C   UNL     1      -8.870  10.833  69.057  1.00  0.00    -0.135 A  
HETATM   40  O   UNL     1      -6.777  13.710  68.607  1.00  0.00    -0.087 OA 
HETATM   41  C   UNL     1      -6.355   9.629  69.186  1.00  0.00    -0.041 A  
HETATM   42  C   UNL     1      -7.710  11.607  68.930  1.00  0.00    -0.065 A  
HETATM   43  N   UNL     1      -7.826  13.053  68.692  1.00  0.00    -0.096 N  
HETATM   44  C   UNL     1      -6.449  11.009  68.998  1.00  0.00    -0.056 A  
HETATM   45  C   UNL     1      -7.509   8.847  69.278  1.00  0.00    -0.075 A  
ENDBRANCH  12  37
ENDBRANCH   3   5
ENDBRANCH   2   3
TORSDOF 8
ENDMDL
MODEL      169
REMARK 921   NORMALIZED FREE ENERGY PREDICTED BY IDOCK:   -3.47 KCAL/MOL
REMARK 922        TOTAL FREE ENERGY PREDICTED BY IDOCK:   -7.00 KCAL/MOL
REMARK 923 INTER-LIGAND FREE ENERGY PREDICTED BY IDOCK:   -6.18 KCAL/MOL
REMARK 924 INTRA-LIGAND FREE ENERGY PREDICTED BY IDOCK:   -0.82 KCAL/MOL
REMARK 927      BINDING AFFINITY PREDICTED BY RF-SCORE:    0.00 PKD
ROOT
HETATM    1  C   UNL     1     -12.707  12.836  70.884  1.00  0.00    -0.192 C  
HETATM    2  O   UNL     1     -11.579  12.344  70.153  1.00  0.00    -0.222 OA 
ENDROOT
BRANCH   2   3
HETATM    3  C   UNL     1     -11.842  11.204  69.460  1.00  0.00    -0.353 C  
HETATM    4  O   UNL     1     -12.956  10.872  69.084  1.00  0.00     0.026 OA 
BRANCH   3   5
HETATM    5  C   UNL     1     -10.595  10.428  69.224  1.00  0.00    -0.259 C  
HETATM    6  C   UNL     1     -10.082   9.618  70.183  1.00  0.00    -0.262 C  
HETATM    7  N   UNL     1      -8.957   8.860  69.907  1.00  0.00    -0.149 NA 
HETATM    8  C   UNL     1     -10.584   9.429  71.596  1.00  0.00    -0.248 C  
HETATM    9  C   UNL     1      -8.171   8.983  68.781  1.00  0.00    -0.117 C  
HETATM   10  C   UNL     1      -6.921   8.130  68.775  1.00  0.00    -0.067 C  
HETATM   11  C   UNL     1      -8.553   9.817  67.784  1.00  0.00    -0.125 C  
HETATM   12  C   UNL     1      -9.888  10.573  67.859  1.00  0.00    -0.181 C  
BRANCH  11  13
HETATM   13  C   UNL     1      -7.609  10.027  66.655  1.00  0.00    -0.104 C  
HETATM   14  O   UNL     1      -6.904  11.020  66.564  1.00  0.00    -0.122 OA 
BRANCH  13  15
HETATM   15  O   UNL     1      -7.567   8.961  65.820  1.00  0.00    -0.088 OA 
HETATM   16  C   UNL     1      -7.896   7.772  63.681  1.00  0.00    -0.128 C  
HETATM   17  C   UNL     1      -6.849  10.083  63.781  1.00  0.00    -0.126 C  
HETATM   18  C   UNL     1      -7.904   9.160  64.413  1.00  0.00    -0.125 C  
HETATM   19  C   UNL     1      -9.330   9.724  64.209  1.00  0.00    -0.253 C  
BRANCH  16  20
HETATM   20  N   UNL     1      -6.634   6.989  63.629  1.00  0.00    -0.043 NA 
HETATM   21  C   UNL     1      -5.908   7.088  64.898  1.00  0.00    -0.036 C  
BRANCH  20  22
HETATM   22  C   UNL     1      -6.917   5.555  63.406  1.00  0.00    -0.042 C  
BRANCH  22  23
HETATM   23  C   UNL     1      -6.807   4.646  64.632  1.00  0.00    -0.045 C  
HETATM   24  C   UNL     1      -8.112   4.353  65.417  1.00  0.00    -0.102 C  
HETATM   25  C   UNL     1      -7.700   3.717  66.756  1.00  0.00    -0.084 A  
HETATM   26  C   UNL     1      -9.135   3.590  64.572  1.00  0.00    -0.130 A  
HETATM   27  C   UNL     1      -8.064   4.324  67.967  1.00  0.00    -0.090 A  
HETATM   28  C   UNL     1      -9.186   2.191  64.482  1.00  0.00    -0.132 A  
HETATM   29  C   UNL     1      -7.509   3.889  69.176  1.00  0.00    -0.054 A  
HETATM   30  C   UNL     1     -10.059   1.552  63.598  1.00  0.00    -0.129 A  
HETATM   31  C   UNL     1     -10.905   2.296  62.786  1.00  0.00    -0.199 A  
HETATM   32  C   UNL     1      -6.600   2.832  69.194  1.00  0.00    -0.033 A  
HETATM   33  C   UNL     1      -6.265   2.189  68.010  1.00  0.00    -0.025 A  
HETATM   34  C   UNL     1     -10.894   3.684  62.870  1.00  0.00    -0.138 A  
HETATM   35  C   UNL     1     -10.024   4.321  63.761  1.00  0.00    -0.017 A  
HETATM   36  C   UNL     1      -6.810   2.627  66.804  1.00  0.00    -0.044 A  
ENDBRANCH  22  23
ENDBRANCH  20  22
ENDBRANCH  16  20
ENDBRANCH  13  15
ENDBRANCH  11  13
BRANCH  12  37
HETATM   37  C   UNL     1      -9.710  12.042  67.466  1.00  0.00    -0.188 A  
HETATM   38  O   UNL     1      -7.554  14.643  69.866  1.00  0.00    -0.018 OA 
HETATM   39  C   UNL     1      -8.911  12.890  68.259  1.00  0.00    -0.175 A  
HETATM   40  O   UNL     1      -7.993  16.343  68.551  1.00  0.00    -0.182 OA 
HETATM   41  C   UNL     1     -10.227  13.933  66.028  1.00  0.00    -0.317 A  
HETATM   42  C   UNL     1      -8.825  14.256  67.964  1.00  0.00    -0.178 A  
HETATM   43  N   UNL     1      -8.066  15.143  68.856  1.00  0.00    -0.165 N  
HETATM   44  C   UNL     1      -9.478  14.781  66.846  1.00  0.00    -0.253 A  
HETATM   45  C   UNL     1     -10.346  12.575  66.338  1.00  0.00    -0.261 A  
ENDBRANCH  12  37
ENDBRANCH   3   5
ENDBRANCH   2   3
TORSDOF 8
ENDMDL
MODEL      170
REMARK 921   NORMALIZED FREE ENERGY PREDICTED BY IDOCK:   -3.46 KCAL/MOL
REMARK 922        TOTAL FREE ENERGY PREDICTED BY IDOCK:   -6.99 KCAL/MOL
REMARK 923 INTER-LIGAND FREE ENERGY PREDICTED BY IDOCK:   -7.49 KCAL/MOL
REMARK 924 INTRA-LIGAND FREE ENERGY PREDICTED BY IDOCK:    0.50 KCAL/MOL
REMARK 927      BINDING AFFINITY PREDICTED BY RF-SCORE:    0.00 PKD
ROOT
HETATM    1  C   UNL     1     -11.376   6.063  68.968  1.00  0.00    -0.071 C  
HETATM    2  O   UNL     1     -10.843   6.146  67.642  1.00  0.00    -0.282 OA 
ENDROOT
BRANCH   2   3
HETATM    3  C   UNL     1     -10.237   7.335  67.380  1.00  0.00    -0.236 C  
HETATM    4  O   UNL     1     -10.644   8.148  66.564  1.00  0.00    -0.190 OA 
BRANCH   3   5
HETATM    5  C   UNL     1      -9.022   7.507  68.222  1.00  0.00    -0.130 C  
HETATM    6  C   UNL     1      -8.137   6.493  68.391  1.00  0.00    -0.111 C  
HETATM    7  N   UNL     1      -6.985   6.708  69.126  1.00  0.00    -0.075 NA 
HETATM    8  C   UNL     1      -8.248   5.078  67.873  1.00  0.00    -0.097 C  
HETATM    9  C   UNL     1      -6.720   7.829  69.883  1.00  0.00    -0.042 C  
HETATM   10  C   UNL     1      -5.448   7.767  70.701  1.00  0.00    -0.026 C  
HETATM   11  C   UNL     1      -7.574   8.881  69.845  1.00  0.00    -0.063 C  
HETATM   12  C   UNL     1      -8.794   8.870  68.912  1.00  0.00    -0.137 C  
BRANCH  11  13
HETATM   13  C   UNL     1      -7.328  10.009  70.781  1.00  0.00     0.280 C  
HETATM   14  O   UNL     1      -7.012   9.837  71.949  1.00  0.00     0.014 OA 
BRANCH  13  15
HETATM   15  O   UNL     1      -7.404  11.211  70.163  1.00  0.00     0.083 OA 
HETATM   16  C   UNL     1      -6.576  13.426  69.453  1.00  0.00    -0.075 C  
HETATM   17  C   UNL     1      -5.144  11.338  69.263  1.00  0.00    -0.044 C  
HETATM   18  C   UNL     1      -6.209  12.050  70.112  1.00  0.00    -0.075 C  
HETATM   19  C   UNL     1      -5.660  12.400  71.515  1.00  0.00     0.261 C  
BRANCH  16  20
HETATM   20  N   UNL     1      -7.074  13.448  68.054  1.00  0.00    -0.107 NA 
HETATM   21  C   UNL     1      -7.168  12.088  67.514  1.00  0.00    -0.127 C  
BRANCH  20  22
HETATM   22  C   UNL     1      -8.432  14.030  67.991  1.00  0.00    -0.171 C  
BRANCH  22  23
HETATM   23  C   UNL     1      -9.249  13.706  66.738  1.00  0.00    -0.251 C  
HETATM   24  C   UNL     1     -10.679  14.299  66.650  1.00  0.00    -0.290 C  
HETATM   25  C   UNL     1     -11.398  13.576  65.499  1.00  0.00    -0.310 A  
HETATM   26  C   UNL     1     -10.668  15.829  66.610  1.00  0.00    -0.287 A  
HETATM   27  C   UNL     1     -12.581  12.862  65.742  1.00  0.00    -0.174 A  
HETATM   28  C   UNL     1     -10.568  16.578  65.428  1.00  0.00    -0.293 A  
HETATM   29  C   UNL     1     -13.117  12.019  64.763  1.00  0.00     0.799 A  
HETATM   30  C   UNL     1     -10.436  17.969  65.459  1.00  0.00     0.031 A  
HETATM   31  C   UNL     1     -10.404  18.644  66.673  1.00  0.00    -0.456 A  
HETATM   32  C   UNL     1     -12.491  11.891  63.523  1.00  0.00    -0.609 A  
HETATM   33  C   UNL     1     -11.346  12.626  63.248  1.00  0.00    -0.306 A  
HETATM   34  C   UNL     1     -10.524  17.931  67.860  1.00  0.00    -0.404 A  
HETATM   35  C   UNL     1     -10.664  16.539  67.826  1.00  0.00    -0.329 A  
HETATM   36  C   UNL     1     -10.805  13.460  64.226  1.00  0.00    -0.383 A  
ENDBRANCH  22  23
ENDBRANCH  20  22
ENDBRANCH  16  20
ENDBRANCH  13  15
ENDBRANCH  11  13
BRANCH  12  37
HETATM   37  C   UNL     1     -10.050   9.351  69.645  1.00  0.00    -0.218 A  
HETATM   38  O   UNL     1     -11.416   7.401  73.037  1.00  0.00    -0.277 OA 
HETATM   39  C   UNL     1     -10.453   8.719  70.838  1.00  0.00    -0.278 A  
HETATM   40  O   UNL     1     -13.164   8.717  73.184  1.00  0.00    -0.213 OA 
HETATM   41  C   UNL     1     -12.006  10.787  69.787  1.00  0.00    -0.397 A  
HETATM   42  C   UNL     1     -11.653   9.085  71.459  1.00  0.00    -0.343 A  
HETATM   43  N   UNL     1     -12.108   8.350  72.648  1.00  0.00    -0.345 N  
HETATM   44  C   UNL     1     -12.431  10.122  70.939  1.00  0.00    -0.455 A  
HETATM   45  C   UNL     1     -10.827  10.401  69.142  1.00  0.00    -0.274 A  
ENDBRANCH  12  37
ENDBRANCH   3   5
ENDBRANCH   2   3
TORSDOF 8
ENDMDL
MODEL      171
REMARK 921   NORMALIZED FREE ENERGY PREDICTED BY IDOCK:   -3.42 KCAL/MOL
REMARK 922        TOTAL FREE ENERGY PREDICTED BY IDOCK:   -6.93 KCAL/MOL
REMARK 923 INTER-LIGAND FREE ENERGY PREDICTED BY IDOCK:   -7.18 KCAL/MOL
REMARK 924 INTRA-LIGAND FREE ENERGY PREDICTED BY IDOCK:    0.25 KCAL/MOL
REMARK 927      BINDING AFFINITY PREDICTED BY RF-SCORE:    0.00 PKD
ROOT
HETATM    1  C   UNL     1      -9.285   3.070  71.526  1.00  0.00    -0.115 C  
HETATM    2  O   UNL     1      -8.666   3.767  70.439  1.00  0.00    -0.073 OA 
ENDROOT
BRANCH   2   3
HETATM    3  C   UNL     1      -9.503   4.638  69.813  1.00  0.00    -0.168 C  
HETATM    4  O   UNL     1     -10.490   5.135  70.333  1.00  0.00    -0.267 OA 
BRANCH   3   5
HETATM    5  C   UNL     1      -9.049   4.898  68.420  1.00  0.00    -0.141 C  
HETATM    6  C   UNL     1      -9.054   3.916  67.485  1.00  0.00    -0.152 C  
HETATM    7  N   UNL     1      -8.688   4.210  66.184  1.00  0.00    -0.113 NA 
HETATM    8  C   UNL     1      -9.407   2.460  67.682  1.00  0.00    -0.189 C  
HETATM    9  C   UNL     1      -8.125   5.396  65.763  1.00  0.00    -0.110 C  
HETATM   10  C   UNL     1      -7.692   5.423  64.313  1.00  0.00    -0.086 C  
HETATM   11  C   UNL     1      -8.008   6.429  66.633  1.00  0.00    -0.109 C  
HETATM   12  C   UNL     1      -8.560   6.319  68.062  1.00  0.00    -0.116 C  
BRANCH  11  13
HETATM   13  C   UNL     1      -7.269   7.636  66.180  1.00  0.00    -0.070 C  
HETATM   14  O   UNL     1      -6.089   7.606  65.867  1.00  0.00    -0.037 OA 
BRANCH  13  15
HETATM   15  O   UNL     1      -8.077   8.718  66.075  1.00  0.00    -0.106 OA 
HETATM   16  C   UNL     1      -8.887  10.824  65.074  1.00  0.00    -0.177 C  
HETATM   17  C   UNL     1      -8.319   8.798  63.653  1.00  0.00    -0.146 C  
HETATM   18  C   UNL     1      -7.931   9.591  64.912  1.00  0.00    -0.121 C  
HETATM   19  C   UNL     1      -6.510  10.186  64.781  1.00  0.00    -0.128 C  
BRANCH  16  20
HETATM   20  N   UNL     1     -10.354  10.598  65.156  1.00  0.00    -0.289 NA 
HETATM   21  C   UNL     1     -10.655   9.457  66.026  1.00  0.00     0.374 C  
BRANCH  20  22
HETATM   22  C   UNL     1     -11.033  11.775  65.740  1.00  0.00    -0.301 C  
BRANCH  22  23
HETATM   23  C   UNL     1     -11.565  11.609  67.165  1.00  0.00    -0.291 C  
HETATM   24  C   UNL     1     -10.532  11.663  68.320  1.00  0.00    -0.223 C  
HETATM   25  C   UNL     1     -11.240  11.149  69.584  1.00  0.00    -0.333 A  
HETATM   26  C   UNL     1      -9.844  13.028  68.415  1.00  0.00    -0.203 A  
HETATM   27  C   UNL     1     -10.740  10.031  70.268  1.00  0.00    -0.367 A  
HETATM   28  C   UNL     1     -10.344  14.103  69.164  1.00  0.00    -0.102 A  
HETATM   29  C   UNL     1     -11.492   9.418  71.276  1.00  0.00    -0.433 A  
HETATM   30  C   UNL     1      -9.742  15.363  69.115  1.00  0.00    -0.252 A  
HETATM   31  C   UNL     1      -8.624  15.577  68.319  1.00  0.00    -0.161 A  
HETATM   32  C   UNL     1     -12.744   9.923  71.627  1.00  0.00    -0.527 A  
HETATM   33  C   UNL     1     -13.234  11.057  70.993  1.00  0.00    -0.103 A  
HETATM   34  C   UNL     1      -8.092  14.524  67.583  1.00  0.00    -0.190 A  
HETATM   35  C   UNL     1      -8.692  13.261  67.640  1.00  0.00    -0.195 A  
HETATM   36  C   UNL     1     -12.490  11.663  69.982  1.00  0.00    -0.166 A  
ENDBRANCH  22  23
ENDBRANCH  20  22
ENDBRANCH  16  20
ENDBRANCH  13  15
ENDBRANCH  11  13
BRANCH  12  37
HETATM   37  C   UNL     1      -7.546   6.844  69.083  1.00  0.00    -0.097 A  
HETATM   38  O   UNL     1      -8.791   8.352  72.738  1.00  0.00    -0.225 OA 
HETATM   39  C   UNL     1      -7.986   7.283  70.348  1.00  0.00    -0.104 A  
HETATM   40  O   UNL     1      -6.740   8.879  73.306  1.00  0.00    -0.324 OA 
HETATM   41  C   UNL     1      -5.277   7.462  69.698  1.00  0.00    -0.015 A  
HETATM   42  C   UNL     1      -7.081   7.858  71.249  1.00  0.00    -0.055 A  
HETATM   43  N   UNL     1      -7.573   8.398  72.524  1.00  0.00    -0.112 N  
HETATM   44  C   UNL     1      -5.724   7.945  70.929  1.00  0.00    -0.033 A  
HETATM   45  C   UNL     1      -6.182   6.921  68.780  1.00  0.00    -0.027 A  
ENDBRANCH  12  37
ENDBRANCH   3   5
ENDBRANCH   2   3
TORSDOF 8
ENDMDL
MODEL      172
REMARK 921   NORMALIZED FREE ENERGY PREDICTED BY IDOCK:   -3.42 KCAL/MOL
REMARK 922        TOTAL FREE ENERGY PREDICTED BY IDOCK:   -6.93 KCAL/MOL
REMARK 923 INTER-LIGAND FREE ENERGY PREDICTED BY IDOCK:   -7.91 KCAL/MOL
REMARK 924 INTRA-LIGAND FREE ENERGY PREDICTED BY IDOCK:    0.98 KCAL/MOL
REMARK 927      BINDING AFFINITY PREDICTED BY RF-SCORE:    0.00 PKD
ROOT
HETATM    1  C   UNL     1     -11.779  16.206  69.073  1.00  0.00    -0.254 C  
HETATM    2  O   UNL     1     -12.111  14.859  68.716  1.00  0.00    -0.265 OA 
ENDROOT
BRANCH   2   3
HETATM    3  C   UNL     1     -11.663  13.940  69.613  1.00  0.00    -0.311 C  
HETATM    4  O   UNL     1     -11.488  14.168  70.801  1.00  0.00    -0.146 OA 
BRANCH   3   5
HETATM    5  C   UNL     1     -11.420  12.629  68.952  1.00  0.00    -0.354 C  
HETATM    6  C   UNL     1     -11.865  11.473  69.503  1.00  0.00    -0.351 C  
HETATM    7  N   UNL     1     -11.679  10.279  68.829  1.00  0.00    -0.117 NA 
HETATM    8  C   UNL     1     -12.558  11.294  70.833  1.00  0.00    -0.467 C  
HETATM    9  C   UNL     1     -10.903  10.114  67.701  1.00  0.00    -0.290 C  
HETATM   10  C   UNL     1     -10.754   8.684  67.229  1.00  0.00    -0.209 C  
HETATM   11  C   UNL     1     -10.350  11.196  67.102  1.00  0.00    -0.249 C  
HETATM   12  C   UNL     1     -10.637  12.613  67.620  1.00  0.00    -0.232 C  
BRANCH  11  13
HETATM   13  C   UNL     1      -9.407  10.961  65.978  1.00  0.00    -0.190 C  
HETATM   14  O   UNL     1      -9.178  11.806  65.125  1.00  0.00    -0.088 OA 
BRANCH  13  15
HETATM   15  O   UNL     1      -8.786   9.762  66.075  1.00  0.00    -0.140 OA 
HETATM   16  C   UNL     1      -6.914   8.176  65.802  1.00  0.00    -0.064 C  
HETATM   17  C   UNL     1      -6.561  10.519  66.715  1.00  0.00    -0.086 C  
HETATM   18  C   UNL     1      -7.372   9.674  65.718  1.00  0.00    -0.100 C  
HETATM   19  C   UNL     1      -7.091  10.110  64.261  1.00  0.00    -0.102 C  
BRANCH  16  20
HETATM   20  N   UNL     1      -6.986   7.469  67.106  1.00  0.00    -0.080 NA 
HETATM   21  C   UNL     1      -5.761   6.701  67.349  1.00  0.00    -0.013 C  
BRANCH  20  22
HETATM   22  C   UNL     1      -7.116   8.434  68.219  1.00  0.00    -0.085 C  
BRANCH  22  23
HETATM   23  C   UNL     1      -6.807   7.898  69.618  1.00  0.00    -0.042 C  
HETATM   24  C   UNL     1      -7.951   7.164  70.365  1.00  0.00    -0.112 C  
HETATM   25  C   UNL     1      -7.515   7.025  71.833  1.00  0.00    -0.087 A  
HETATM   26  C   UNL     1      -8.382   5.884  69.644  1.00  0.00    -0.117 A  
HETATM   27  C   UNL     1      -8.296   7.582  72.857  1.00  0.00    -0.154 A  
HETATM   28  C   UNL     1      -7.790   4.630  69.859  1.00  0.00    -0.061 A  
HETATM   29  C   UNL     1      -7.802   7.662  74.164  1.00  0.00    -0.208 A  
HETATM   30  C   UNL     1      -8.138   3.521  69.083  1.00  0.00    -0.067 A  
HETATM   31  C   UNL     1      -9.088   3.639  68.076  1.00  0.00    -0.198 A  
HETATM   32  C   UNL     1      -6.534   7.172  74.470  1.00  0.00    -0.083 A  
HETATM   33  C   UNL     1      -5.767   6.574  73.479  1.00  0.00    -0.050 A  
HETATM   34  C   UNL     1      -9.707   4.863  67.855  1.00  0.00    -0.202 A  
HETATM   35  C   UNL     1      -9.363   5.970  68.639  1.00  0.00    -0.121 A  
HETATM   36  C   UNL     1      -6.252   6.501  72.175  1.00  0.00    -0.042 A  
ENDBRANCH  22  23
ENDBRANCH  20  22
ENDBRANCH  16  20
ENDBRANCH  13  15
ENDBRANCH  11  13
BRANCH  12  37
HETATM   37  C   UNL     1      -9.349  13.437  67.710  1.00  0.00    -0.211 A  
HETATM   38  O   UNL     1      -8.924  16.967  65.580  1.00  0.00    -0.486 OA 
HETATM   39  C   UNL     1      -9.255  14.670  67.036  1.00  0.00    -0.252 A  
HETATM   40  O   UNL     1      -6.861  17.230  66.278  1.00  0.00    -0.244 OA 
HETATM   41  C   UNL     1      -7.051  13.709  68.454  1.00  0.00    -0.107 A  
HETATM   42  C   UNL     1      -8.048  15.380  67.030  1.00  0.00    -0.230 A  
HETATM   43  N   UNL     1      -7.938  16.616  66.243  1.00  0.00    -0.325 N  
HETATM   44  C   UNL     1      -6.944  14.905  67.742  1.00  0.00    -0.193 A  
HETATM   45  C   UNL     1      -8.242  12.978  68.435  1.00  0.00    -0.123 A  
ENDBRANCH  12  37
ENDBRANCH   3   5
ENDBRANCH   2   3
TORSDOF 8
ENDMDL
MODEL      173
REMARK 921   NORMALIZED FREE ENERGY PREDICTED BY IDOCK:   -3.39 KCAL/MOL
REMARK 922        TOTAL FREE ENERGY PREDICTED BY IDOCK:   -6.89 KCAL/MOL
REMARK 923 INTER-LIGAND FREE ENERGY PREDICTED BY IDOCK:   -5.22 KCAL/MOL
REMARK 924 INTRA-LIGAND FREE ENERGY PREDICTED BY IDOCK:   -1.66 KCAL/MOL
REMARK 927      BINDING AFFINITY PREDICTED BY RF-SCORE:    0.00 PKD
ROOT
HETATM    1  C   UNL     1     -10.282   4.378  70.604  1.00  0.00    -0.026 C  
HETATM    2  O   UNL     1      -9.813   4.451  69.253  1.00  0.00    -0.194 OA 
ENDROOT
BRANCH   2   3
HETATM    3  C   UNL     1     -10.368   5.472  68.546  1.00  0.00    -0.178 C  
HETATM    4  O   UNL     1     -11.454   5.971  68.800  1.00  0.00    -0.177 OA 
BRANCH   3   5
HETATM    5  C   UNL     1      -9.474   5.893  67.434  1.00  0.00    -0.112 C  
HETATM    6  C   UNL     1      -9.591   5.351  66.196  1.00  0.00    -0.153 C  
HETATM    7  N   UNL     1      -8.788   5.813  65.169  1.00  0.00    -0.074 NA 
HETATM    8  C   UNL     1     -10.517   4.238  65.763  1.00  0.00    -0.117 C  
HETATM    9  C   UNL     1      -7.718   6.670  65.319  1.00  0.00    -0.099 C  
HETATM   10  C   UNL     1      -6.916   6.921  64.060  1.00  0.00    -0.056 C  
HETATM   11  C   UNL     1      -7.465   7.222  66.530  1.00  0.00    -0.088 C  
HETATM   12  C   UNL     1      -8.397   6.962  67.723  1.00  0.00    -0.120 C  
BRANCH  11  13
HETATM   13  C   UNL     1      -6.223   8.025  66.681  1.00  0.00    -0.054 C  
HETATM   14  O   UNL     1      -5.127   7.612  66.333  1.00  0.00    -0.023 OA 
BRANCH  13  15
HETATM   15  O   UNL     1      -6.475   9.269  67.151  1.00  0.00    -0.062 OA 
HETATM   16  C   UNL     1      -6.756  11.717  66.985  1.00  0.00    -0.145 C  
HETATM   17  C   UNL     1      -7.801  10.132  65.299  1.00  0.00    -0.143 C  
HETATM   18  C   UNL     1      -6.577  10.371  66.198  1.00  0.00    -0.112 C  
HETATM   19  C   UNL     1      -5.294  10.557  65.353  1.00  0.00    -0.125 C  
BRANCH  16  20
HETATM   20  N   UNL     1      -7.951  11.896  67.850  1.00  0.00    -0.135 NA 
HETATM   21  C   UNL     1      -7.659  11.491  69.228  1.00  0.00     0.079 C  
BRANCH  20  22
HETATM   22  C   UNL     1      -8.355  13.318  67.896  1.00  0.00    -0.163 C  
BRANCH  22  23
HETATM   23  C   UNL     1      -9.393  13.759  66.862  1.00  0.00    -0.267 C  
HETATM   24  C   UNL     1     -10.788  13.085  66.924  1.00  0.00    -0.282 C  
HETATM   25  C   UNL     1     -11.518  13.435  65.616  1.00  0.00    -0.335 A  
HETATM   26  C   UNL     1     -11.521  13.395  68.232  1.00  0.00    -0.350 A  
HETATM   27  C   UNL     1     -11.958  12.415  64.759  1.00  0.00    -0.462 A  
HETATM   28  C   UNL     1     -12.344  14.516  68.419  1.00  0.00    -0.011 A  
HETATM   29  C   UNL     1     -12.414  12.717  63.471  1.00  0.00    -0.516 A  
HETATM   30  C   UNL     1     -12.887  14.817  69.671  1.00  0.00     0.171 A  
HETATM   31  C   UNL     1     -12.622  14.003  70.765  1.00  0.00    -0.431 A  
HETATM   32  C   UNL     1     -12.454  14.038  63.028  1.00  0.00     0.950 A  
HETATM   33  C   UNL     1     -12.067  15.064  63.881  1.00  0.00     0.058 A  
HETATM   34  C   UNL     1     -11.829  12.872  70.605  1.00  0.00    -0.044 A  
HETATM   35  C   UNL     1     -11.292  12.569  69.349  1.00  0.00    -0.275 A  
HETATM   36  C   UNL     1     -11.604  14.765  65.161  1.00  0.00    -0.358 A  
ENDBRANCH  22  23
ENDBRANCH  20  22
ENDBRANCH  16  20
ENDBRANCH  13  15
ENDBRANCH  11  13
BRANCH  12  37
HETATM   37  C   UNL     1      -7.594   6.631  68.985  1.00  0.00    -0.101 A  
HETATM   38  O   UNL     1      -7.735   9.103  72.308  1.00  0.00    -0.304 OA 
HETATM   39  C   UNL     1      -7.715   7.445  70.128  1.00  0.00    -0.090 A  
HETATM   40  O   UNL     1      -6.269   7.873  73.381  1.00  0.00    -0.061 OA 
HETATM   41  C   UNL     1      -5.943   5.288  70.159  1.00  0.00    -0.018 A  
HETATM   42  C   UNL     1      -6.911   7.210  71.250  1.00  0.00    -0.059 A  
HETATM   43  N   UNL     1      -6.980   8.126  72.396  1.00  0.00    -0.082 N  
HETATM   44  C   UNL     1      -6.026   6.129  71.271  1.00  0.00    -0.031 A  
HETATM   45  C   UNL     1      -6.717   5.540  69.023  1.00  0.00    -0.053 A  
ENDBRANCH  12  37
ENDBRANCH   3   5
ENDBRANCH   2   3
TORSDOF 8
ENDMDL
MODEL      174
REMARK 921   NORMALIZED FREE ENERGY PREDICTED BY IDOCK:   -3.38 KCAL/MOL
REMARK 922        TOTAL FREE ENERGY PREDICTED BY IDOCK:   -6.88 KCAL/MOL
REMARK 923 INTER-LIGAND FREE ENERGY PREDICTED BY IDOCK:   -7.59 KCAL/MOL
REMARK 924 INTRA-LIGAND FREE ENERGY PREDICTED BY IDOCK:    0.71 KCAL/MOL
REMARK 927      BINDING AFFINITY PREDICTED BY RF-SCORE:    0.00 PKD
ROOT
HETATM    1  C   UNL     1     -12.155  14.131  68.901  1.00  0.00    -0.304 C  
HETATM    2  O   UNL     1     -11.404  13.043  69.452  1.00  0.00    -0.254 OA 
ENDROOT
BRANCH   2   3
HETATM    3  C   UNL     1     -11.710  11.842  68.893  1.00  0.00    -0.323 C  
HETATM    4  O   UNL     1     -12.147  11.703  67.761  1.00  0.00    -0.613 OA 
BRANCH   3   5
HETATM    5  C   UNL     1     -11.436  10.731  69.844  1.00  0.00    -0.398 C  
HETATM    6  C   UNL     1     -12.021  10.695  71.067  1.00  0.00    -0.339 C  
HETATM    7  N   UNL     1     -11.795   9.614  71.900  1.00  0.00    -0.314 NA 
HETATM    8  C   UNL     1     -12.921  11.737  71.688  1.00  0.00    -0.467 C  
HETATM    9  C   UNL     1     -10.863   8.621  71.684  1.00  0.00    -0.304 C  
HETATM   10  C   UNL     1     -10.717   7.620  72.809  1.00  0.00    -0.401 C  
HETATM   11  C   UNL     1     -10.168   8.597  70.521  1.00  0.00    -0.229 C  
HETATM   12  C   UNL     1     -10.458   9.617  69.410  1.00  0.00    -0.236 C  
BRANCH  11  13
HETATM   13  C   UNL     1      -9.076   7.598  70.386  1.00  0.00    -0.152 C  
HETATM   14  O   UNL     1      -8.170   7.501  71.200  1.00  0.00    -0.099 OA 
BRANCH  13  15
HETATM   15  O   UNL     1      -9.264   6.776  69.327  1.00  0.00    -0.142 OA 
HETATM   16  C   UNL     1     -10.156   4.792  68.158  1.00  0.00    -0.037 C  
HETATM   17  C   UNL     1     -11.611   6.220  69.670  1.00  0.00    -0.287 C  
HETATM   18  C   UNL     1     -10.195   5.657  69.466  1.00  0.00    -0.250 C  
HETATM   19  C   UNL     1      -9.809   4.691  70.610  1.00  0.00    -0.296 C  
BRANCH  16  20
HETATM   20  N   UNL     1     -10.550   5.413  66.867  1.00  0.00    -0.273 NA 
HETATM   21  C   UNL     1      -9.761   6.621  66.610  1.00  0.00    -0.159 C  
BRANCH  20  22
HETATM   22  C   UNL     1     -10.296   4.487  65.741  1.00  0.00    -0.258 C  
BRANCH  22  23
HETATM   23  C   UNL     1      -9.066   4.788  64.883  1.00  0.00    -0.141 C  
HETATM   24  C   UNL     1      -7.730   5.054  65.624  1.00  0.00    -0.087 C  
HETATM   25  C   UNL     1      -6.753   5.648  64.596  1.00  0.00    -0.046 A  
HETATM   26  C   UNL     1      -7.252   3.830  66.410  1.00  0.00    -0.064 A  
HETATM   27  C   UNL     1      -6.189   6.915  64.808  1.00  0.00    -0.036 A  
HETATM   28  C   UNL     1      -6.445   2.820  65.865  1.00  0.00    -0.028 A  
HETATM   29  C   UNL     1      -5.485   7.561  63.785  1.00  0.00    -0.037 A  
HETATM   30  C   UNL     1      -6.143   1.663  66.590  1.00  0.00    -0.019 A  
HETATM   31  C   UNL     1      -6.638   1.491  67.876  1.00  0.00    -0.028 A  
HETATM   32  C   UNL     1      -5.320   6.945  62.546  1.00  0.00    -0.032 A  
HETATM   33  C   UNL     1      -5.830   5.670  62.334  1.00  0.00    -0.018 A  
HETATM   34  C   UNL     1      -7.421   2.486  68.450  1.00  0.00    -0.048 A  
HETATM   35  C   UNL     1      -7.716   3.647  67.726  1.00  0.00    -0.070 A  
HETATM   36  C   UNL     1      -6.539   5.030  63.348  1.00  0.00    -0.026 A  
ENDBRANCH  22  23
ENDBRANCH  20  22
ENDBRANCH  16  20
ENDBRANCH  13  15
ENDBRANCH  11  13
BRANCH  12  37
HETATM   37  C   UNL     1      -9.158  10.194  68.842  1.00  0.00    -0.165 A  
HETATM   38  O   UNL     1      -8.228   9.796  64.822  1.00  0.00    -0.132 OA 
HETATM   39  C   UNL     1      -8.898  10.112  67.460  1.00  0.00    -0.126 A  
HETATM   40  O   UNL     1      -6.287  10.780  65.095  1.00  0.00    -0.054 OA 
HETATM   41  C   UNL     1      -6.991  11.251  69.150  1.00  0.00    -0.114 A  
HETATM   42  C   UNL     1      -7.669  10.545  66.946  1.00  0.00    -0.114 A  
HETATM   43  N   UNL     1      -7.376  10.364  65.518  1.00  0.00    -0.149 N  
HETATM   44  C   UNL     1      -6.714  11.120  67.789  1.00  0.00    -0.065 A  
HETATM   45  C   UNL     1      -8.202  10.787  69.674  1.00  0.00     0.142 A  
ENDBRANCH  12  37
ENDBRANCH   3   5
ENDBRANCH   2   3
TORSDOF 8
ENDMDL
MODEL      175
REMARK 921   NORMALIZED FREE ENERGY PREDICTED BY IDOCK:   -3.37 KCAL/MOL
REMARK 922        TOTAL FREE ENERGY PREDICTED BY IDOCK:   -6.86 KCAL/MOL
REMARK 923 INTER-LIGAND FREE ENERGY PREDICTED BY IDOCK:   -6.99 KCAL/MOL
REMARK 924 INTRA-LIGAND FREE ENERGY PREDICTED BY IDOCK:    0.13 KCAL/MOL
REMARK 927      BINDING AFFINITY PREDICTED BY RF-SCORE:    0.00 PKD
ROOT
HETATM    1  C   UNL     1     -10.820  15.766  71.328  1.00  0.00     0.091 C  
HETATM    2  O   UNL     1     -11.388  15.804  70.014  1.00  0.00    -0.293 OA 
ENDROOT
BRANCH   2   3
HETATM    3  C   UNL     1     -12.550  15.106  69.911  1.00  0.00    -0.170 C  
HETATM    4  O   UNL     1     -13.660  15.616  69.919  1.00  0.00     0.370 OA 
BRANCH   3   5
HETATM    5  C   UNL     1     -12.282  13.648  69.786  1.00  0.00    -0.350 C  
HETATM    6  C   UNL     1     -12.527  12.799  70.814  1.00  0.00    -0.271 C  
HETATM    7  N   UNL     1     -12.329  11.440  70.641  1.00  0.00    -0.372 NA 
HETATM    8  C   UNL     1     -12.997  13.150  72.206  1.00  0.00    -0.354 C  
HETATM    9  C   UNL     1     -11.714  10.858  69.552  1.00  0.00    -0.328 C  
HETATM   10  C   UNL     1     -11.499   9.364  69.660  1.00  0.00     0.067 C  
HETATM   11  C   UNL     1     -11.363  11.623  68.491  1.00  0.00    -0.332 C  
HETATM   12  C   UNL     1     -11.706  13.120  68.453  1.00  0.00    -0.386 C  
BRANCH  11  13
HETATM   13  C   UNL     1     -10.577  10.983  67.404  1.00  0.00    -0.237 C  
HETATM   14  O   UNL     1     -10.670  11.329  66.236  1.00  0.00    -0.262 OA 
BRANCH  13  15
HETATM   15  O   UNL     1      -9.706  10.062  67.878  1.00  0.00    -0.144 OA 
HETATM   16  C   UNL     1      -7.978   8.307  67.701  1.00  0.00    -0.118 C  
HETATM   17  C   UNL     1      -7.843  10.458  66.360  1.00  0.00    -0.128 C  
HETATM   18  C   UNL     1      -8.801   9.404  66.939  1.00  0.00    -0.127 C  
HETATM   19  C   UNL     1      -9.546   8.651  65.812  1.00  0.00    -0.134 C  
BRANCH  16  20
HETATM   20  N   UNL     1      -7.084   8.716  68.815  1.00  0.00    -0.063 NA 
HETATM   21  C   UNL     1      -7.837   9.432  69.849  1.00  0.00    -0.126 C  
BRANCH  20  22
HETATM   22  C   UNL     1      -6.481   7.532  69.465  1.00  0.00    -0.036 C  
BRANCH  22  23
HETATM   23  C   UNL     1      -7.277   6.229  69.366  1.00  0.00    -0.082 C  
HETATM   24  C   UNL     1      -7.437   5.395  70.663  1.00  0.00    -0.079 C  
HETATM   25  C   UNL     1      -7.964   4.011  70.249  1.00  0.00    -0.051 A  
HETATM   26  C   UNL     1      -8.228   6.146  71.738  1.00  0.00    -0.114 A  
HETATM   27  C   UNL     1      -7.232   2.855  70.557  1.00  0.00    -0.033 A  
HETATM   28  C   UNL     1      -9.626   6.104  71.851  1.00  0.00    -0.166 A  
HETATM   29  C   UNL     1      -7.578   1.622  69.994  1.00  0.00    -0.039 A  
HETATM   30  C   UNL     1     -10.303   6.908  72.772  1.00  0.00    -0.238 A  
HETATM   31  C   UNL     1      -9.600   7.770  73.603  1.00  0.00    -0.280 A  
HETATM   32  C   UNL     1      -8.669   1.522  69.131  1.00  0.00    -0.104 A  
HETATM   33  C   UNL     1      -9.434   2.648  68.852  1.00  0.00    -0.166 A  
HETATM   34  C   UNL     1      -8.212   7.816  73.530  1.00  0.00    -0.232 A  
HETATM   35  C   UNL     1      -7.535   7.004  72.612  1.00  0.00    -0.084 A  
HETATM   36  C   UNL     1      -9.085   3.878  69.405  1.00  0.00    -0.196 A  
ENDBRANCH  22  23
ENDBRANCH  20  22
ENDBRANCH  16  20
ENDBRANCH  13  15
ENDBRANCH  11  13
BRANCH  12  37
HETATM   37  C   UNL     1     -10.504  13.947  67.988  1.00  0.00    -0.243 A  
HETATM   38  O   UNL     1      -6.861  13.701  69.948  1.00  0.00     0.036 OA 
HETATM   39  C   UNL     1      -9.256  13.792  68.623  1.00  0.00    -0.069 A  
HETATM   40  O   UNL     1      -5.975  15.236  68.656  1.00  0.00    -0.087 OA 
HETATM   41  C   UNL     1      -9.533  15.675  66.580  1.00  0.00    -0.282 A  
HETATM   42  C   UNL     1      -8.179  14.616  68.272  1.00  0.00    -0.146 A  
HETATM   43  N   UNL     1      -6.913  14.507  69.010  1.00  0.00    -0.113 N  
HETATM   44  C   UNL     1      -8.313  15.556  67.247  1.00  0.00    -0.218 A  
HETATM   45  C   UNL     1     -10.622  14.880  66.951  1.00  0.00    -0.300 A  
ENDBRANCH  12  37
ENDBRANCH   3   5
ENDBRANCH   2   3
TORSDOF 8
ENDMDL
MODEL      176
REMARK 921   NORMALIZED FREE ENERGY PREDICTED BY IDOCK:   -3.37 KCAL/MOL
REMARK 922        TOTAL FREE ENERGY PREDICTED BY IDOCK:   -6.85 KCAL/MOL
REMARK 923 INTER-LIGAND FREE ENERGY PREDICTED BY IDOCK:   -6.73 KCAL/MOL
REMARK 924 INTRA-LIGAND FREE ENERGY PREDICTED BY IDOCK:   -0.13 KCAL/MOL
REMARK 927      BINDING AFFINITY PREDICTED BY RF-SCORE:    0.00 PKD
ROOT
HETATM    1  C   UNL     1      -8.297   3.588  73.978  1.00  0.00    -0.082 C  
HETATM    2  O   UNL     1      -9.307   4.118  73.113  1.00  0.00    -0.112 OA 
ENDROOT
BRANCH   2   3
HETATM    3  C   UNL     1      -9.781   3.208  72.220  1.00  0.00    -0.154 C  
HETATM    4  O   UNL     1     -10.348   2.172  72.530  1.00  0.00    -0.149 OA 
BRANCH   3   5
HETATM    5  C   UNL     1      -9.516   3.651  70.824  1.00  0.00    -0.238 C  
HETATM    6  C   UNL     1      -8.619   3.002  70.041  1.00  0.00    -0.061 C  
HETATM    7  N   UNL     1      -8.446   3.400  68.727  1.00  0.00    -0.075 NA 
HETATM    8  C   UNL     1      -7.718   1.853  70.430  1.00  0.00    -0.039 C  
HETATM    9  C   UNL     1      -8.976   4.541  68.163  1.00  0.00    -0.116 C  
HETATM   10  C   UNL     1      -8.532   4.823  66.744  1.00  0.00    -0.105 C  
HETATM   11  C   UNL     1      -9.836   5.306  68.880  1.00  0.00    -0.230 C  
HETATM   12  C   UNL     1     -10.284   4.879  70.285  1.00  0.00    -0.299 C  
BRANCH  11  13
HETATM   13  C   UNL     1     -10.272   6.598  68.289  1.00  0.00    -0.171 C  
HETATM   14  O   UNL     1     -11.327   6.721  67.684  1.00  0.00    -0.208 OA 
BRANCH  13  15
HETATM   15  O   UNL     1      -9.419   7.607  68.584  1.00  0.00    -0.150 OA 
HETATM   16  C   UNL     1      -8.243   9.741  68.182  1.00  0.00    -0.109 C  
HETATM   17  C   UNL     1     -10.736   9.489  67.773  1.00  0.00    -0.302 C  
HETATM   18  C   UNL     1      -9.379   8.770  67.701  1.00  0.00    -0.137 C  
HETATM   19  C   UNL     1      -9.019   8.407  66.242  1.00  0.00    -0.213 C  
BRANCH  16  20
HETATM   20  N   UNL     1      -8.328  10.338  69.539  1.00  0.00    -0.167 NA 
HETATM   21  C   UNL     1      -6.991  10.522  70.110  1.00  0.00    -0.113 C  
BRANCH  20  22
HETATM   22  C   UNL     1      -8.959  11.675  69.484  1.00  0.00     1.039 C  
BRANCH  22  23
HETATM   23  C   UNL     1      -9.370  12.171  68.096  1.00  0.00    -0.204 C  
HETATM   24  C   UNL     1      -9.853  13.641  67.982  1.00  0.00    -0.244 C  
HETATM   25  C   UNL     1     -10.510  13.794  66.600  1.00  0.00    -0.272 A  
HETATM   26  C   UNL     1      -8.750  14.640  68.341  1.00  0.00    -0.175 A  
HETATM   27  C   UNL     1     -11.850  14.195  66.497  1.00  0.00    -0.439 A  
HETATM   28  C   UNL     1      -7.825  15.147  67.416  1.00  0.00    -0.224 A  
HETATM   29  C   UNL     1     -12.523  14.119  65.272  1.00  0.00    -0.474 A  
HETATM   30  C   UNL     1      -6.762  15.959  67.824  1.00  0.00    -0.178 A  
HETATM   31  C   UNL     1      -6.601  16.284  69.165  1.00  0.00    -0.185 A  
HETATM   32  C   UNL     1     -11.863  13.661  64.132  1.00  0.00    -0.463 A  
HETATM   33  C   UNL     1     -10.522  13.305  64.207  1.00  0.00    -0.372 A  
HETATM   34  C   UNL     1      -7.516  15.815  70.101  1.00  0.00     0.540 A  
HETATM   35  C   UNL     1      -8.583  15.009  69.689  1.00  0.00     0.005 A  
HETATM   36  C   UNL     1      -9.854  13.371  65.427  1.00  0.00    -0.132 A  
ENDBRANCH  22  23
ENDBRANCH  20  22
ENDBRANCH  16  20
ENDBRANCH  13  15
ENDBRANCH  11  13
BRANCH  12  37
HETATM   37  C   UNL     1     -10.225   6.057  71.262  1.00  0.00    -0.253 A  
HETATM   38  O   UNL     1      -6.611   7.838  72.237  1.00  0.00    -0.053 OA 
HETATM   39  C   UNL     1      -8.995   6.694  71.521  1.00  0.00    -0.139 A  
HETATM   40  O   UNL     1      -7.578   9.199  73.659  1.00  0.00    -0.118 OA 
HETATM   41  C   UNL     1     -11.291   7.541  72.865  1.00  0.00    -0.355 A  
HETATM   42  C   UNL     1      -8.915   7.704  72.487  1.00  0.00    -0.142 A  
HETATM   43  N   UNL     1      -7.608   8.291  72.815  1.00  0.00    -0.128 N  
HETATM   44  C   UNL     1     -10.062   8.134  73.158  1.00  0.00    -0.202 A  
HETATM   45  C   UNL     1     -11.371   6.507  71.927  1.00  0.00    -0.327 A  
ENDBRANCH  12  37
ENDBRANCH   3   5
ENDBRANCH   2   3
TORSDOF 8
ENDMDL
MODEL      177
REMARK 921   NORMALIZED FREE ENERGY PREDICTED BY IDOCK:   -3.35 KCAL/MOL
REMARK 922        TOTAL FREE ENERGY PREDICTED BY IDOCK:   -6.83 KCAL/MOL
REMARK 923 INTER-LIGAND FREE ENERGY PREDICTED BY IDOCK:   -6.78 KCAL/MOL
REMARK 924 INTRA-LIGAND FREE ENERGY PREDICTED BY IDOCK:   -0.05 KCAL/MOL
REMARK 927      BINDING AFFINITY PREDICTED BY RF-SCORE:    0.00 PKD
ROOT
HETATM    1  C   UNL     1      -8.680   3.337  71.117  1.00  0.00    -0.078 C  
HETATM    2  O   UNL     1      -7.745   4.323  70.667  1.00  0.00    -0.051 OA 
ENDROOT
BRANCH   2   3
HETATM    3  C   UNL     1      -7.666   5.404  71.488  1.00  0.00    -0.105 C  
HETATM    4  O   UNL     1      -8.051   5.415  72.647  1.00  0.00    -0.105 OA 
BRANCH   3   5
HETATM    5  C   UNL     1      -7.047   6.560  70.785  1.00  0.00    -0.069 C  
HETATM    6  C   UNL     1      -6.104   7.325  71.387  1.00  0.00    -0.036 C  
HETATM    7  N   UNL     1      -5.502   8.351  70.681  1.00  0.00    -0.028 NA 
HETATM    8  C   UNL     1      -5.601   7.218  72.808  1.00  0.00    -0.037 C  
HETATM    9  C   UNL     1      -5.905   8.809  69.444  1.00  0.00    -0.034 C  
HETATM   10  C   UNL     1      -5.166  10.030  68.940  1.00  0.00    -0.035 C  
HETATM   11  C   UNL     1      -6.889   8.161  68.776  1.00  0.00    -0.066 C  
HETATM   12  C   UNL     1      -7.513   6.878  69.346  1.00  0.00    -0.094 C  
BRANCH  11  13
HETATM   13  C   UNL     1      -7.389   8.768  67.515  1.00  0.00    -0.081 C  
HETATM   14  O   UNL     1      -7.628   8.106  66.517  1.00  0.00    -0.089 OA 
BRANCH  13  15
HETATM   15  O   UNL     1      -7.626  10.094  67.648  1.00  0.00    -0.090 OA 
HETATM   16  C   UNL     1      -8.572  12.281  66.997  1.00  0.00    -0.191 C  
HETATM   17  C   UNL     1      -9.956  10.154  66.940  1.00  0.00    -0.259 C  
HETATM   18  C   UNL     1      -8.551  10.737  66.717  1.00  0.00    -0.136 C  
HETATM   19  C   UNL     1      -8.116  10.593  65.240  1.00  0.00    -0.086 C  
BRANCH  16  20
HETATM   20  N   UNL     1      -9.022  12.770  68.326  1.00  0.00    -0.194 NA 
HETATM   21  C   UNL     1      -7.980  13.582  68.961  1.00  0.00     0.199 C  
BRANCH  20  22
HETATM   22  C   UNL     1     -10.216  13.632  68.190  1.00  0.00    -0.247 C  
BRANCH  22  23
HETATM   23  C   UNL     1      -9.953  15.105  67.870  1.00  0.00    -0.221 C  
HETATM   24  C   UNL     1      -9.412  15.438  66.455  1.00  0.00    -0.298 C  
HETATM   25  C   UNL     1      -8.922  16.895  66.491  1.00  0.00    -0.303 A  
HETATM   26  C   UNL     1     -10.408  15.067  65.354  1.00  0.00    -0.410 A  
HETATM   27  C   UNL     1      -7.585  17.198  66.192  1.00  0.00    -0.304 A  
HETATM   28  C   UNL     1     -11.412  15.929  64.886  1.00  0.00    -0.162 A  
HETATM   29  C   UNL     1      -7.073  18.477  66.439  1.00  0.00    -0.265 A  
HETATM   30  C   UNL     1     -12.372  15.494  63.969  1.00  0.00     0.150 A  
HETATM   31  C   UNL     1     -12.350  14.188  63.495  1.00  0.00     0.151 A  
HETATM   32  C   UNL     1      -7.891  19.473  66.970  1.00  0.00    -0.286 A  
HETATM   33  C   UNL     1      -9.229  19.204  67.228  1.00  0.00    -0.335 A  
HETATM   34  C   UNL     1     -11.354  13.318  63.923  1.00  0.00    -0.360 A  
HETATM   35  C   UNL     1     -10.388  13.758  64.836  1.00  0.00    -0.420 A  
HETATM   36  C   UNL     1      -9.739  17.929  66.990  1.00  0.00    -0.298 A  
ENDBRANCH  22  23
ENDBRANCH  20  22
ENDBRANCH  16  20
ENDBRANCH  13  15
ENDBRANCH  11  13
BRANCH  12  37
HETATM   37  C   UNL     1      -9.040   6.917  69.241  1.00  0.00    -0.140 A  
HETATM   38  O   UNL     1     -11.351   8.457  72.318  1.00  0.00    -0.336 OA 
HETATM   39  C   UNL     1      -9.801   7.512  70.266  1.00  0.00    -0.183 A  
HETATM   40  O   UNL     1     -13.213   7.960  71.271  1.00  0.00    -0.270 OA 
HETATM   41  C   UNL     1     -11.105   6.334  68.097  1.00  0.00    -0.364 A  
HETATM   42  C   UNL     1     -11.200   7.462  70.227  1.00  0.00    -0.247 A  
HETATM   43  N   UNL     1     -11.977   8.002  71.351  1.00  0.00    -0.293 N  
HETATM   44  C   UNL     1     -11.856   6.877  69.141  1.00  0.00     0.448 A  
HETATM   45  C   UNL     1      -9.708   6.349  68.149  1.00  0.00    -0.122 A  
ENDBRANCH  12  37
ENDBRANCH   3   5
ENDBRANCH   2   3
TORSDOF 8
ENDMDL
MODEL      178
REMARK 921   NORMALIZED FREE ENERGY PREDICTED BY IDOCK:   -3.30 KCAL/MOL
REMARK 922        TOTAL FREE ENERGY PREDICTED BY IDOCK:   -6.76 KCAL/MOL
REMARK 923 INTER-LIGAND FREE ENERGY PREDICTED BY IDOCK:   -7.63 KCAL/MOL
REMARK 924 INTRA-LIGAND FREE ENERGY PREDICTED BY IDOCK:    0.87 KCAL/MOL
REMARK 927      BINDING AFFINITY PREDICTED BY RF-SCORE:    0.00 PKD
ROOT
HETATM    1  C   UNL     1      -9.345  11.828  63.927  1.00  0.00     0.083 C  
HETATM    2  O   UNL     1      -8.502  10.720  64.259  1.00  0.00    -0.114 OA 
ENDROOT
BRANCH   2   3
HETATM    3  C   UNL     1      -8.113  10.712  65.562  1.00  0.00    -0.129 C  
HETATM    4  O   UNL     1      -7.209  11.400  66.012  1.00  0.00     0.046 OA 
BRANCH   3   5
HETATM    5  C   UNL     1      -8.936   9.759  66.355  1.00  0.00    -0.176 C  
HETATM    6  C   UNL     1      -9.059   8.461  65.982  1.00  0.00    -0.183 C  
HETATM    7  N   UNL     1      -9.779   7.587  66.778  1.00  0.00    -0.204 NA 
HETATM    8  C   UNL     1      -8.505   7.802  64.740  1.00  0.00     0.015 C  
HETATM    9  C   UNL     1     -10.562   7.950  67.853  1.00  0.00    -0.149 C  
HETATM   10  C   UNL     1     -11.353   6.823  68.481  1.00  0.00    -0.056 C  
HETATM   11  C   UNL     1     -10.568   9.238  68.274  1.00  0.00    -0.237 C  
HETATM   12  C   UNL     1      -9.659  10.285  67.614  1.00  0.00    -0.173 C  
BRANCH  11  13
HETATM   13  C   UNL     1     -11.531   9.614  69.342  1.00  0.00     0.093 C  
HETATM   14  O   UNL     1     -12.511  10.311  69.128  1.00  0.00     0.016 OA 
BRANCH  13  15
HETATM   15  O   UNL     1     -11.238   9.022  70.524  1.00  0.00    -0.255 OA 
HETATM   16  C   UNL     1     -11.688   8.285  72.837  1.00  0.00    -0.068 C  
HETATM   17  C   UNL     1     -13.379   7.953  70.974  1.00  0.00     0.023 C  
HETATM   18  C   UNL     1     -12.295   8.893  71.524  1.00  0.00    -0.324 C  
HETATM   19  C   UNL     1     -12.898  10.255  71.942  1.00  0.00    -0.528 C  
BRANCH  16  20
HETATM   20  N   UNL     1     -11.083   6.929  72.795  1.00  0.00    -0.272 NA 
HETATM   21  C   UNL     1     -11.942   6.001  72.053  1.00  0.00    -0.176 C  
BRANCH  20  22
HETATM   22  C   UNL     1      -9.779   6.958  72.098  1.00  0.00    -0.148 C  
BRANCH  22  23
HETATM   23  C   UNL     1      -9.630   6.015  70.902  1.00  0.00    -0.196 C  
HETATM   24  C   UNL     1      -8.634   4.835  71.048  1.00  0.00    -0.126 C  
HETATM   25  C   UNL     1      -8.416   4.252  69.643  1.00  0.00    -0.091 A  
HETATM   26  C   UNL     1      -9.055   3.858  72.149  1.00  0.00    -0.156 A  
HETATM   27  C   UNL     1      -7.129   4.212  69.086  1.00  0.00    -0.050 A  
HETATM   28  C   UNL     1      -9.910   2.766  71.938  1.00  0.00    -0.229 A  
HETATM   29  C   UNL     1      -6.947   3.899  67.735  1.00  0.00    -0.055 A  
HETATM   30  C   UNL     1     -10.360   1.980  73.002  1.00  0.00    -0.214 A  
HETATM   31  C   UNL     1      -9.964   2.266  74.303  1.00  0.00    -0.152 A  
HETATM   32  C   UNL     1      -8.044   3.604  66.926  1.00  0.00    -0.095 A  
HETATM   33  C   UNL     1      -9.321   3.591  67.472  1.00  0.00    -0.249 A  
HETATM   34  C   UNL     1      -9.099   3.328  74.540  1.00  0.00    -0.101 A  
HETATM   35  C   UNL     1      -8.643   4.109  73.471  1.00  0.00    -0.092 A  
HETATM   36  C   UNL     1      -9.505   3.912  68.815  1.00  0.00    -0.224 A  
ENDBRANCH  22  23
ENDBRANCH  20  22
ENDBRANCH  16  20
ENDBRANCH  13  15
ENDBRANCH  11  13
BRANCH  12  37
HETATM   37  C   UNL     1     -10.429  11.578  67.327  1.00  0.00    -0.246 A  
HETATM   38  O   UNL     1     -10.043  14.881  69.800  1.00  0.00    -0.129 OA 
HETATM   39  C   UNL     1     -10.226  12.711  68.138  1.00  0.00    -0.240 A  
HETATM   40  O   UNL     1     -11.526  16.014  68.647  1.00  0.00    -0.370 OA 
HETATM   41  C   UNL     1     -12.099  12.820  66.071  1.00  0.00    -0.458 A  
HETATM   42  C   UNL     1     -10.998  13.864  67.946  1.00  0.00    -0.250 A  
HETATM   43  N   UNL     1     -10.841  15.002  68.861  1.00  0.00    -0.234 N  
HETATM   44  C   UNL     1     -11.933  13.923  66.910  1.00  0.00    -0.467 A  
HETATM   45  C   UNL     1     -11.356  11.654  66.281  1.00  0.00    -0.293 A  
ENDBRANCH  12  37
ENDBRANCH   3   5
ENDBRANCH   2   3
TORSDOF 8
ENDMDL
MODEL      179
REMARK 921   NORMALIZED FREE ENERGY PREDICTED BY IDOCK:   -3.28 KCAL/MOL
REMARK 922        TOTAL FREE ENERGY PREDICTED BY IDOCK:   -6.72 KCAL/MOL
REMARK 923 INTER-LIGAND FREE ENERGY PREDICTED BY IDOCK:   -7.29 KCAL/MOL
REMARK 924 INTRA-LIGAND FREE ENERGY PREDICTED BY IDOCK:    0.57 KCAL/MOL
REMARK 927      BINDING AFFINITY PREDICTED BY RF-SCORE:    0.00 PKD
ROOT
HETATM    1  C   UNL     1     -10.975  15.060  71.905  1.00  0.00     0.327 C  
HETATM    2  O   UNL     1     -11.638  15.761  70.848  1.00  0.00    -0.336 OA 
ENDROOT
BRANCH   2   3
HETATM    3  C   UNL     1     -12.782  15.152  70.435  1.00  0.00    -0.333 C  
HETATM    4  O   UNL     1     -13.862  15.715  70.338  1.00  0.00    -0.096 OA 
BRANCH   3   5
HETATM    5  C   UNL     1     -12.535  13.719  70.119  1.00  0.00    -0.332 C  
HETATM    6  C   UNL     1     -12.821  12.744  71.016  1.00  0.00    -0.176 C  
HETATM    7  N   UNL     1     -12.641  11.418  70.665  1.00  0.00    -0.298 NA 
HETATM    8  C   UNL     1     -13.322  12.913  72.432  1.00  0.00    -0.526 C  
HETATM    9  C   UNL     1     -12.007  10.976  69.522  1.00  0.00    -0.342 C  
HETATM   10  C   UNL     1     -11.820   9.477  69.432  1.00  0.00     0.488 C  
HETATM   11  C   UNL     1     -11.615  11.871  68.584  1.00  0.00    -0.366 C  
HETATM   12  C   UNL     1     -11.933  13.365  68.741  1.00  0.00    -0.359 C  
BRANCH  11  13
HETATM   13  C   UNL     1     -10.812  11.368  67.439  1.00  0.00    -0.254 C  
HETATM   14  O   UNL     1     -11.006  11.734  66.289  1.00  0.00    -0.278 OA 
BRANCH  13  15
HETATM   15  O   UNL     1      -9.809  10.552  67.839  1.00  0.00    -0.157 OA 
HETATM   16  C   UNL     1      -7.848   9.084  67.523  1.00  0.00    -0.100 C  
HETATM   17  C   UNL     1      -8.048  11.324  66.343  1.00  0.00    -0.138 C  
HETATM   18  C   UNL     1      -8.834  10.102  66.848  1.00  0.00    -0.132 C  
HETATM   19  C   UNL     1      -9.480   9.332  65.673  1.00  0.00    -0.324 C  
BRANCH  16  20
HETATM   20  N   UNL     1      -7.005   9.538  68.658  1.00  0.00    -0.064 NA 
HETATM   21  C   UNL     1      -7.815  10.239  69.659  1.00  0.00    -0.160 C  
BRANCH  20  22
HETATM   22  C   UNL     1      -6.382   8.383  69.342  1.00  0.00    -0.038 C  
BRANCH  22  23
HETATM   23  C   UNL     1      -7.343   7.340  69.917  1.00  0.00    -0.084 C  
HETATM   24  C   UNL     1      -6.884   6.577  71.187  1.00  0.00    -0.066 C  
HETATM   25  C   UNL     1      -7.839   5.386  71.368  1.00  0.00    -0.110 A  
HETATM   26  C   UNL     1      -6.704   7.511  72.388  1.00  0.00    -0.056 A  
HETATM   27  C   UNL     1      -7.338   4.076  71.382  1.00  0.00    -0.044 A  
HETATM   28  C   UNL     1      -7.735   7.844  73.279  1.00  0.00    -0.186 A  
HETATM   29  C   UNL     1      -8.207   2.981  71.316  1.00  0.00    -0.076 A  
HETATM   30  C   UNL     1      -7.546   8.798  74.282  1.00  0.00     0.032 A  
HETATM   31  C   UNL     1      -6.322   9.440  74.420  1.00  0.00     0.215 A  
HETATM   32  C   UNL     1      -9.586   3.178  71.253  1.00  0.00    -0.229 A  
HETATM   33  C   UNL     1     -10.102   4.467  71.286  1.00  0.00    -0.225 A  
HETATM   34  C   UNL     1      -5.275   9.113  73.566  1.00  0.00    -0.105 A  
HETATM   35  C   UNL     1      -5.464   8.152  72.567  1.00  0.00    -0.039 A  
HETATM   36  C   UNL     1      -9.237   5.559  71.343  1.00  0.00    -0.167 A  
ENDBRANCH  22  23
ENDBRANCH  20  22
ENDBRANCH  16  20
ENDBRANCH  13  15
ENDBRANCH  11  13
BRANCH  12  37
HETATM   37  C   UNL     1     -10.705  14.223  68.422  1.00  0.00    -0.257 A  
HETATM   38  O   UNL     1     -10.860  17.157  65.498  1.00  0.00    -0.391 OA 
HETATM   39  C   UNL     1     -10.802  15.264  67.476  1.00  0.00    -0.304 A  
HETATM   40  O   UNL     1      -8.736  17.639  65.760  1.00  0.00    -0.511 OA 
HETATM   41  C   UNL     1      -8.343  14.732  68.687  1.00  0.00    -0.165 A  
HETATM   42  C   UNL     1      -9.662  15.987  67.104  1.00  0.00    -0.228 A  
HETATM   43  N   UNL     1      -9.761  17.003  66.048  1.00  0.00    -0.254 N  
HETATM   44  C   UNL     1      -8.431  15.727  67.711  1.00  0.00    -0.162 A  
HETATM   45  C   UNL     1      -9.470  13.983  69.036  1.00  0.00     0.108 A  
ENDBRANCH  12  37
ENDBRANCH   3   5
ENDBRANCH   2   3
TORSDOF 8
ENDMDL
MODEL      180
REMARK 921   NORMALIZED FREE ENERGY PREDICTED BY IDOCK:   -3.27 KCAL/MOL
REMARK 922        TOTAL FREE ENERGY PREDICTED BY IDOCK:   -6.71 KCAL/MOL
REMARK 923 INTER-LIGAND FREE ENERGY PREDICTED BY IDOCK:   -8.68 KCAL/MOL
REMARK 924 INTRA-LIGAND FREE ENERGY PREDICTED BY IDOCK:    1.97 KCAL/MOL
REMARK 927      BINDING AFFINITY PREDICTED BY RF-SCORE:    0.00 PKD
ROOT
HETATM    1  C   UNL     1     -10.738  18.047  65.382  1.00  0.00     0.163 C  
HETATM    2  O   UNL     1     -10.417  16.738  65.865  1.00  0.00    -0.346 OA 
ENDROOT
BRANCH   2   3
HETATM    3  C   UNL     1     -10.998  15.742  65.143  1.00  0.00    -0.382 C  
HETATM    4  O   UNL     1     -11.537  15.905  64.059  1.00  0.00    -0.497 OA 
BRANCH   3   5
HETATM    5  C   UNL     1     -10.883  14.438  65.851  1.00  0.00    -0.304 C  
HETATM    6  C   UNL     1     -11.954  13.619  65.990  1.00  0.00    -0.413 C  
HETATM    7  N   UNL     1     -11.796  12.385  66.596  1.00  0.00    -0.563 NA 
HETATM    8  C   UNL     1     -13.380  13.887  65.567  1.00  0.00     0.249 C  
HETATM    9  C   UNL     1     -10.664  11.962  67.259  1.00  0.00    -0.236 C  
HETATM   10  C   UNL     1     -10.787  10.622  67.951  1.00  0.00    -0.328 C  
HETATM   11  C   UNL     1      -9.550  12.734  67.244  1.00  0.00    -0.208 C  
HETATM   12  C   UNL     1      -9.510  14.040  66.437  1.00  0.00    -0.278 C  
BRANCH  11  13
HETATM   13  C   UNL     1      -8.401  12.311  68.086  1.00  0.00    -0.174 C  
HETATM   14  O   UNL     1      -7.760  13.097  68.767  1.00  0.00    -0.100 OA 
BRANCH  13  15
HETATM   15  O   UNL     1      -8.226  10.969  68.072  1.00  0.00    -0.115 OA 
HETATM   16  C   UNL     1      -7.315   8.833  67.230  1.00  0.00    -0.081 C  
HETATM   17  C   UNL     1      -5.851  10.884  67.538  1.00  0.00    -0.045 C  
HETATM   18  C   UNL     1      -7.254  10.399  67.141  1.00  0.00    -0.091 C  
HETATM   19  C   UNL     1      -7.564  10.739  65.664  1.00  0.00    -0.044 C  
BRANCH  16  20
HETATM   20  N   UNL     1      -6.991   8.168  68.518  1.00  0.00    -0.070 NA 
HETATM   21  C   UNL     1      -7.902   8.615  69.576  1.00  0.00    -0.095 C  
BRANCH  20  22
HETATM   22  C   UNL     1      -7.150   6.702  68.405  1.00  0.00    -0.083 C  
BRANCH  22  23
HETATM   23  C   UNL     1      -7.928   6.018  69.532  1.00  0.00    -0.106 C  
HETATM   24  C   UNL     1      -9.367   5.539  69.211  1.00  0.00    -0.153 C  
HETATM   25  C   UNL     1     -10.040   5.203  70.552  1.00  0.00    -0.326 A  
HETATM   26  C   UNL     1      -9.387   4.452  68.133  1.00  0.00    -0.195 A  
HETATM   27  C   UNL     1     -11.214   5.867  70.939  1.00  0.00    -0.278 A  
HETATM   28  C   UNL     1      -9.273   3.081  68.404  1.00  0.00    -0.242 A  
HETATM   29  C   UNL     1     -11.707   5.740  72.242  1.00  0.00    -0.265 A  
HETATM   30  C   UNL     1      -9.171   2.143  67.373  1.00  0.00    -0.149 A  
HETATM   31  C   UNL     1      -9.184   2.554  66.046  1.00  0.00    -0.044 A  
HETATM   32  C   UNL     1     -11.047   4.935  73.170  1.00  0.00    -0.396 A  
HETATM   33  C   UNL     1      -9.911   4.233  72.791  1.00  0.00    -0.194 A  
HETATM   34  C   UNL     1      -9.320   3.905  65.746  1.00  0.00    -0.162 A  
HETATM   35  C   UNL     1      -9.429   4.841  66.780  1.00  0.00    -0.163 A  
HETATM   36  C   UNL     1      -9.413   4.366  71.496  1.00  0.00    -0.215 A  
ENDBRANCH  22  23
ENDBRANCH  20  22
ENDBRANCH  16  20
ENDBRANCH  13  15
ENDBRANCH  11  13
BRANCH  12  37
HETATM   37  C   UNL     1      -8.894  15.176  67.260  1.00  0.00    -0.216 A  
HETATM   38  O   UNL     1      -5.133  16.665  66.356  1.00  0.00    -0.342 OA 
HETATM   39  C   UNL     1      -7.647  15.716  66.889  1.00  0.00    -0.201 A  
HETATM   40  O   UNL     1      -5.182  18.038  68.066  1.00  0.00    -0.148 OA 
HETATM   41  C   UNL     1      -8.932  16.671  69.176  1.00  0.00    -0.145 A  
HETATM   42  C   UNL     1      -7.030  16.683  67.693  1.00  0.00    -0.139 A  
HETATM   43  N   UNL     1      -5.687  17.166  67.344  1.00  0.00    -0.131 N  
HETATM   44  C   UNL     1      -7.672  17.167  68.836  1.00  0.00    -0.230 A  
HETATM   45  C   UNL     1      -9.536  15.680  68.397  1.00  0.00    -0.199 A  
ENDBRANCH  12  37
ENDBRANCH   3   5
ENDBRANCH   2   3
TORSDOF 8
ENDMDL
MODEL      181
REMARK 921   NORMALIZED FREE ENERGY PREDICTED BY IDOCK:   -3.24 KCAL/MOL
REMARK 922        TOTAL FREE ENERGY PREDICTED BY IDOCK:   -6.67 KCAL/MOL
REMARK 923 INTER-LIGAND FREE ENERGY PREDICTED BY IDOCK:   -7.96 KCAL/MOL
REMARK 924 INTRA-LIGAND FREE ENERGY PREDICTED BY IDOCK:    1.29 KCAL/MOL
REMARK 927      BINDING AFFINITY PREDICTED BY RF-SCORE:    0.00 PKD
ROOT
HETATM    1  C   UNL     1     -10.455  19.547  69.037  1.00  0.00     0.110 C  
HETATM    2  O   UNL     1     -10.857  19.460  67.665  1.00  0.00    -0.455 OA 
ENDROOT
BRANCH   2   3
HETATM    3  C   UNL     1      -9.908  18.909  66.862  1.00  0.00    -0.329 C  
HETATM    4  O   UNL     1      -9.999  18.832  65.646  1.00  0.00    -0.436 OA 
BRANCH   3   5
HETATM    5  C   UNL     1      -8.753  18.422  67.664  1.00  0.00    -0.268 C  
HETATM    6  C   UNL     1      -7.597  19.129  67.730  1.00  0.00    -0.253 C  
HETATM    7  N   UNL     1      -6.567  18.679  68.537  1.00  0.00    -0.228 NA 
HETATM    8  C   UNL     1      -7.251  20.400  66.990  1.00  0.00    -0.347 C  
HETATM    9  C   UNL     1      -6.523  17.452  69.163  1.00  0.00    -0.239 C  
HETATM   10  C   UNL     1      -5.228  17.144  69.883  1.00  0.00    -0.190 C  
HETATM   11  C   UNL     1      -7.600  16.631  69.106  1.00  0.00    -0.192 C  
HETATM   12  C   UNL     1      -8.896  17.081  68.416  1.00  0.00    -0.247 C  
BRANCH  11  13
HETATM   13  C   UNL     1      -7.460  15.263  69.671  1.00  0.00    -0.181 C  
HETATM   14  O   UNL     1      -7.495  15.041  70.871  1.00  0.00     0.851 OA 
BRANCH  13  15
HETATM   15  O   UNL     1      -7.387  14.318  68.704  1.00  0.00    -0.111 OA 
HETATM   16  C   UNL     1      -6.240  12.858  67.076  1.00  0.00     0.418 C  
HETATM   17  C   UNL     1      -5.389  13.141  69.451  1.00  0.00    -0.077 C  
HETATM   18  C   UNL     1      -6.069  13.858  68.273  1.00  0.00    -0.112 C  
HETATM   19  C   UNL     1      -5.180  15.001  67.729  1.00  0.00    -0.046 C  
BRANCH  16  20
HETATM   20  N   UNL     1      -6.995  11.596  67.290  1.00  0.00    -0.120 NA 
HETATM   21  C   UNL     1      -6.156  10.596  67.957  1.00  0.00    -0.046 C  
BRANCH  20  22
HETATM   22  C   UNL     1      -8.165  11.828  68.164  1.00  0.00    -0.153 C  
BRANCH  22  23
HETATM   23  C   UNL     1      -8.468  10.735  69.191  1.00  0.00    -0.105 C  
HETATM   24  C   UNL     1      -9.562   9.699  68.824  1.00  0.00    -0.153 C  
HETATM   25  C   UNL     1      -9.912   8.935  70.112  1.00  0.00    -0.207 A  
HETATM   26  C   UNL     1      -9.177   8.861  67.602  1.00  0.00    -0.151 A  
HETATM   27  C   UNL     1     -11.226   8.945  70.604  1.00  0.00    -0.308 A  
HETATM   28  C   UNL     1      -8.442   7.668  67.675  1.00  0.00    -0.117 A  
HETATM   29  C   UNL     1     -11.510   8.451  71.882  1.00  0.00    -0.384 A  
HETATM   30  C   UNL     1      -8.010   7.010  66.520  1.00  0.00    -0.108 A  
HETATM   31  C   UNL     1      -8.306   7.528  65.265  1.00  0.00    -0.112 A  
HETATM   32  C   UNL     1     -10.493   7.926  72.678  1.00  0.00    -0.384 A  
HETATM   33  C   UNL     1      -9.195   7.866  72.188  1.00  0.00    -0.213 A  
HETATM   34  C   UNL     1      -9.052   8.697  65.162  1.00  0.00    -0.045 A  
HETATM   35  C   UNL     1      -9.489   9.349  66.320  1.00  0.00    -0.273 A  
HETATM   36  C   UNL     1      -8.908   8.365  70.919  1.00  0.00    -0.185 A  
ENDBRANCH  22  23
ENDBRANCH  20  22
ENDBRANCH  16  20
ENDBRANCH  13  15
ENDBRANCH  11  13
BRANCH  12  37
HETATM   37  C   UNL     1      -9.446  15.977  67.508  1.00  0.00    -0.223 A  
HETATM   38  O   UNL     1     -11.932  13.022  69.013  1.00  0.00    -0.303 OA 
HETATM   39  C   UNL     1     -10.348  15.026  68.025  1.00  0.00    -0.236 A  
HETATM   40  O   UNL     1     -12.019  12.000  67.074  1.00  0.00    -0.609 OA 
HETATM   41  C   UNL     1      -9.513  14.825  65.369  1.00  0.00     0.115 A  
HETATM   42  C   UNL     1     -10.777  13.956  67.230  1.00  0.00    -0.284 A  
HETATM   43  N   UNL     1     -11.641  12.921  67.814  1.00  0.00    -0.322 N  
HETATM   44  C   UNL     1     -10.365  13.854  65.899  1.00  0.00    -0.318 A  
HETATM   45  C   UNL     1      -9.053  15.875  66.168  1.00  0.00    -0.385 A  
ENDBRANCH  12  37
ENDBRANCH   3   5
ENDBRANCH   2   3
TORSDOF 8
ENDMDL
MODEL      182
REMARK 921   NORMALIZED FREE ENERGY PREDICTED BY IDOCK:   -3.22 KCAL/MOL
REMARK 922        TOTAL FREE ENERGY PREDICTED BY IDOCK:   -6.64 KCAL/MOL
REMARK 923 INTER-LIGAND FREE ENERGY PREDICTED BY IDOCK:   -8.41 KCAL/MOL
REMARK 924 INTRA-LIGAND FREE ENERGY PREDICTED BY IDOCK:    1.77 KCAL/MOL
REMARK 927      BINDING AFFINITY PREDICTED BY RF-SCORE:    0.00 PKD
ROOT
HETATM    1  C   UNL     1      -6.771   7.569  72.903  1.00  0.00    -0.066 C  
HETATM    2  O   UNL     1      -7.130   8.853  72.381  1.00  0.00    -0.318 OA 
ENDROOT
BRANCH   2   3
HETATM    3  C   UNL     1      -6.058   9.655  72.141  1.00  0.00     0.311 C  
HETATM    4  O   UNL     1      -5.134   9.817  72.923  1.00  0.00    -0.135 OA 
BRANCH   3   5
HETATM    5  C   UNL     1      -6.167  10.297  70.803  1.00  0.00    -0.049 C  
HETATM    6  C   UNL     1      -5.801  11.589  70.614  1.00  0.00    -0.087 C  
HETATM    7  N   UNL     1      -5.853  12.135  69.344  1.00  0.00    -0.078 NA 
HETATM    8  C   UNL     1      -5.334  12.577  71.658  1.00  0.00     0.050 C  
HETATM    9  C   UNL     1      -6.430  11.538  68.243  1.00  0.00    -0.054 C  
HETATM   10  C   UNL     1      -6.476  12.396  66.997  1.00  0.00     0.004 C  
HETATM   11  C   UNL     1      -6.893  10.268  68.335  1.00  0.00    -0.061 C  
HETATM   12  C   UNL     1      -6.719   9.459  69.629  1.00  0.00    -0.048 C  
BRANCH  11  13
HETATM   13  C   UNL     1      -7.633   9.713  67.172  1.00  0.00    -0.091 C  
HETATM   14  O   UNL     1      -7.352   8.638  66.666  1.00  0.00    -0.080 OA 
BRANCH  13  15
HETATM   15  O   UNL     1      -8.686  10.489  66.820  1.00  0.00    -0.130 OA 
HETATM   16  C   UNL     1     -10.684  11.098  65.503  1.00  0.00    -0.185 C  
HETATM   17  C   UNL     1     -10.338   8.749  66.401  1.00  0.00    -0.169 C  
HETATM   18  C   UNL     1      -9.627   9.984  65.823  1.00  0.00    -0.231 C  
HETATM   19  C   UNL     1      -8.952   9.656  64.471  1.00  0.00    -0.278 C  
BRANCH  16  20
HETATM   20  N   UNL     1     -11.565  11.594  66.591  1.00  0.00    -0.506 NA 
HETATM   21  C   UNL     1     -11.190  10.997  67.876  1.00  0.00    -0.310 C  
BRANCH  20  22
HETATM   22  C   UNL     1     -11.434  13.060  66.744  1.00  0.00    -0.345 C  
BRANCH  22  23
HETATM   23  C   UNL     1     -12.144  13.679  67.949  1.00  0.00    -0.318 C  
HETATM   24  C   UNL     1     -11.305  13.893  69.235  1.00  0.00    -0.321 C  
HETATM   25  C   UNL     1     -12.292  14.202  70.373  1.00  0.00    -0.428 A  
HETATM   26  C   UNL     1     -10.161  14.888  69.019  1.00  0.00    -0.243 A  
HETATM   27  C   UNL     1     -12.339  13.380  71.510  1.00  0.00    -0.137 A  
HETATM   28  C   UNL     1     -10.291  16.275  69.189  1.00  0.00    -0.272 A  
HETATM   29  C   UNL     1     -13.376  13.510  72.440  1.00  0.00    -0.641 A  
HETATM   30  C   UNL     1      -9.250  17.146  68.857  1.00  0.00    -0.200 A  
HETATM   31  C   UNL     1      -8.054  16.652  68.351  1.00  0.00    -0.208 A  
HETATM   32  C   UNL     1     -14.369  14.472  72.258  1.00  0.00    -0.506 A  
HETATM   33  C   UNL     1     -14.312  15.325  71.164  1.00  0.00    -0.384 A  
HETATM   34  C   UNL     1      -7.889  15.280  68.194  1.00  0.00    -0.122 A  
HETATM   35  C   UNL     1      -8.930  14.409  68.534  1.00  0.00    -0.187 A  
HETATM   36  C   UNL     1     -13.285  15.191  70.232  1.00  0.00    -0.051 A  
ENDBRANCH  22  23
ENDBRANCH  20  22
ENDBRANCH  16  20
ENDBRANCH  13  15
ENDBRANCH  11  13
BRANCH  12  37
HETATM   37  C   UNL     1      -8.017   8.740  70.006  1.00  0.00    -0.108 A  
HETATM   38  O   UNL     1      -8.413   4.647  69.490  1.00  0.00    -0.077 OA 
HETATM   39  C   UNL     1      -8.103   7.338  69.892  1.00  0.00    -0.127 A  
HETATM   40  O   UNL     1     -10.498   4.685  70.170  1.00  0.00    -0.135 OA 
HETATM   41  C   UNL     1     -10.339   8.788  70.725  1.00  0.00    -0.264 A  
HETATM   42  C   UNL     1      -9.316   6.684  70.138  1.00  0.00    -0.158 A  
HETATM   43  N   UNL     1      -9.415   5.234  69.921  1.00  0.00    -0.146 N  
HETATM   44  C   UNL     1     -10.436   7.405  70.560  1.00  0.00    -0.227 A  
HETATM   45  C   UNL     1      -9.140   9.451  70.446  1.00  0.00    -0.302 A  
ENDBRANCH  12  37
ENDBRANCH   3   5
ENDBRANCH   2   3
TORSDOF 8
ENDMDL
MODEL      183
REMARK 921   NORMALIZED FREE ENERGY PREDICTED BY IDOCK:   -3.21 KCAL/MOL
REMARK 922        TOTAL FREE ENERGY PREDICTED BY IDOCK:   -6.62 KCAL/MOL
REMARK 923 INTER-LIGAND FREE ENERGY PREDICTED BY IDOCK:   -5.29 KCAL/MOL
REMARK 924 INTRA-LIGAND FREE ENERGY PREDICTED BY IDOCK:   -1.33 KCAL/MOL
REMARK 927      BINDING AFFINITY PREDICTED BY RF-SCORE:    0.00 PKD
ROOT
HETATM    1  C   UNL     1     -10.621  18.452  67.687  1.00  0.00    -0.408 C  
HETATM    2  O   UNL     1     -11.060  17.255  67.036  1.00  0.00     0.006 OA 
ENDROOT
BRANCH   2   3
HETATM    3  C   UNL     1     -10.134  16.735  66.186  1.00  0.00    -0.345 C  
HETATM    4  O   UNL     1      -9.206  17.370  65.710  1.00  0.00    -0.517 OA 
BRANCH   3   5
HETATM    5  C   UNL     1     -10.406  15.295  65.923  1.00  0.00    -0.346 C  
HETATM    6  C   UNL     1     -11.218  14.909  64.909  1.00  0.00    -0.410 C  
HETATM    7  N   UNL     1     -11.397  13.562  64.652  1.00  0.00    -0.342 NA 
HETATM    8  C   UNL     1     -12.013  15.795  63.978  1.00  0.00     0.146 C  
HETATM    9  C   UNL     1     -10.964  12.532  65.461  1.00  0.00    -0.287 C  
HETATM   10  C   UNL     1     -11.399  11.149  65.027  1.00  0.00     0.097 C  
HETATM   11  C   UNL     1     -10.199  12.807  66.545  1.00  0.00    -0.261 C  
HETATM   12  C   UNL     1      -9.747  14.244  66.844  1.00  0.00    -0.268 C  
BRANCH  11  13
HETATM   13  C   UNL     1      -9.874  11.688  67.467  1.00  0.00    -0.188 C  
HETATM   14  O   UNL     1     -10.548  11.432  68.453  1.00  0.00    -0.185 OA 
BRANCH  13  15
HETATM   15  O   UNL     1      -8.823  10.956  67.029  1.00  0.00    -0.138 OA 
HETATM   16  C   UNL     1      -6.481  10.172  67.022  1.00  0.00    -0.069 C  
HETATM   17  C   UNL     1      -7.815  10.387  69.172  1.00  0.00    -0.134 C  
HETATM   18  C   UNL     1      -7.573  11.003  67.784  1.00  0.00    -0.099 C  
HETATM   19  C   UNL     1      -6.994  12.432  67.902  1.00  0.00    -0.106 C  
BRANCH  16  20
HETATM   20  N   UNL     1      -6.700   8.719  66.804  1.00  0.00    -0.068 NA 
HETATM   21  C   UNL     1      -6.059   8.279  65.560  1.00  0.00    -0.045 C  
BRANCH  20  22
HETATM   22  C   UNL     1      -6.098   7.928  67.899  1.00  0.00    -0.046 C  
BRANCH  22  23
HETATM   23  C   UNL     1      -6.077   6.411  67.705  1.00  0.00    -0.024 C  
HETATM   24  C   UNL     1      -7.131   5.581  68.483  1.00  0.00    -0.066 C  
HETATM   25  C   UNL     1      -6.703   4.107  68.391  1.00  0.00    -0.047 A  
HETATM   26  C   UNL     1      -8.562   5.916  68.052  1.00  0.00    -0.113 A  
HETATM   27  C   UNL     1      -6.447   3.372  69.559  1.00  0.00    -0.033 A  
HETATM   28  C   UNL     1      -9.227   5.281  66.992  1.00  0.00    -0.116 A  
HETATM   29  C   UNL     1      -5.843   2.112  69.489  1.00  0.00    -0.023 A  
HETATM   30  C   UNL     1     -10.484   5.713  66.562  1.00  0.00    -0.309 A  
HETATM   31  C   UNL     1     -11.108   6.788  67.182  1.00  0.00    -0.404 A  
HETATM   32  C   UNL     1      -5.502   1.562  68.254  1.00  0.00    -0.017 A  
HETATM   33  C   UNL     1      -5.791   2.254  67.085  1.00  0.00    -0.019 A  
HETATM   34  C   UNL     1     -10.483   7.423  68.250  1.00  0.00    -0.231 A  
HETATM   35  C   UNL     1      -9.227   6.983  68.684  1.00  0.00    -0.131 A  
HETATM   36  C   UNL     1      -6.385   3.513  67.154  1.00  0.00    -0.036 A  
ENDBRANCH  22  23
ENDBRANCH  20  22
ENDBRANCH  16  20
ENDBRANCH  13  15
ENDBRANCH  11  13
BRANCH  12  37
HETATM   37  C   UNL     1      -9.942  14.585  68.324  1.00  0.00    -0.229 A  
HETATM   38  O   UNL     1     -13.661  14.234  70.119  1.00  0.00     0.457 OA 
HETATM   39  C   UNL     1     -11.198  14.387  68.931  1.00  0.00    -0.284 A  
HETATM   40  O   UNL     1     -12.901  15.012  72.024  1.00  0.00    -0.303 OA 
HETATM   41  C   UNL     1      -9.108  15.481  70.424  1.00  0.00     1.011 A  
HETATM   42  C   UNL     1     -11.412  14.790  70.255  1.00  0.00    -0.260 A  
HETATM   43  N   UNL     1     -12.753  14.666  70.842  1.00  0.00    -0.329 N  
HETATM   44  C   UNL     1     -10.368  15.334  71.007  1.00  0.00     0.444 A  
HETATM   45  C   UNL     1      -8.897  15.114  69.092  1.00  0.00    -0.221 A  
ENDBRANCH  12  37
ENDBRANCH   3   5
ENDBRANCH   2   3
TORSDOF 8
ENDMDL
MODEL      184
REMARK 921   NORMALIZED FREE ENERGY PREDICTED BY IDOCK:   -3.20 KCAL/MOL
REMARK 922        TOTAL FREE ENERGY PREDICTED BY IDOCK:   -6.60 KCAL/MOL
REMARK 923 INTER-LIGAND FREE ENERGY PREDICTED BY IDOCK:   -9.20 KCAL/MOL
REMARK 924 INTRA-LIGAND FREE ENERGY PREDICTED BY IDOCK:    2.60 KCAL/MOL
REMARK 927      BINDING AFFINITY PREDICTED BY RF-SCORE:    0.00 PKD
ROOT
HETATM    1  C   UNL     1      -9.514  18.484  66.061  1.00  0.00    -0.026 C  
HETATM    2  O   UNL     1      -9.843  17.101  66.231  1.00  0.00    -0.281 OA 
ENDROOT
BRANCH   2   3
HETATM    3  C   UNL     1     -10.674  16.624  65.266  1.00  0.00    -0.204 C  
HETATM    4  O   UNL     1     -11.376  17.327  64.556  1.00  0.00    -1.007 OA 
BRANCH   3   5
HETATM    5  C   UNL     1     -10.608  15.139  65.197  1.00  0.00    -0.447 C  
HETATM    6  C   UNL     1     -11.556  14.424  64.543  1.00  0.00    -0.384 C  
HETATM    7  N   UNL     1     -11.428  13.050  64.443  1.00  0.00    -0.346 NA 
HETATM    8  C   UNL     1     -12.813  14.946  63.887  1.00  0.00     0.840 C  
HETATM    9  C   UNL     1     -10.500  12.285  65.117  1.00  0.00    -0.288 C  
HETATM   10  C   UNL     1     -10.650  10.790  64.940  1.00  0.00    -0.258 C  
HETATM   11  C   UNL     1      -9.542  12.892  65.859  1.00  0.00    -0.133 C  
HETATM   12  C   UNL     1      -9.433  14.424  65.900  1.00  0.00    -0.189 C  
BRANCH  11  13
HETATM   13  C   UNL     1      -8.652  12.032  66.681  1.00  0.00    -0.143 C  
HETATM   14  O   UNL     1      -7.709  12.479  67.316  1.00  0.00    -0.159 OA 
BRANCH  13  15
HETATM   15  O   UNL     1      -9.068  10.744  66.705  1.00  0.00    -0.151 OA 
HETATM   16  C   UNL     1      -8.807   8.297  66.501  1.00  0.00    -0.150 C  
HETATM   17  C   UNL     1      -7.131   9.721  67.769  1.00  0.00    -0.087 C  
HETATM   18  C   UNL     1      -8.075   9.683  66.556  1.00  0.00    -0.119 C  
HETATM   19  C   UNL     1      -7.283   9.782  65.231  1.00  0.00    -0.120 C  
BRANCH  16  20
HETATM   20  N   UNL     1      -9.611   7.857  67.671  1.00  0.00    -0.147 NA 
HETATM   21  C   UNL     1     -10.586   6.836  67.276  1.00  0.00    -0.320 C  
BRANCH  20  22
HETATM   22  C   UNL     1      -8.745   7.246  68.702  1.00  0.00    -0.127 C  
BRANCH  22  23
HETATM   23  C   UNL     1      -9.457   6.647  69.916  1.00  0.00    -0.159 C  
HETATM   24  C   UNL     1      -9.676   7.574  71.140  1.00  0.00    -0.168 C  
HETATM   25  C   UNL     1     -10.092   6.677  72.318  1.00  0.00    -0.191 A  
HETATM   26  C   UNL     1     -10.590   8.758  70.812  1.00  0.00    -0.269 A  
HETATM   27  C   UNL     1      -9.325   6.653  73.492  1.00  0.00    -0.165 A  
HETATM   28  C   UNL     1     -11.988   8.718  70.923  1.00  0.00    -0.235 A  
HETATM   29  C   UNL     1      -9.557   5.683  74.474  1.00  0.00    -0.181 A  
HETATM   30  C   UNL     1     -12.781   9.785  70.491  1.00  0.00    -0.059 A  
HETATM   31  C   UNL     1     -12.194  10.917  69.940  1.00  0.00    -0.408 A  
HETATM   32  C   UNL     1     -10.568   4.738  74.305  1.00  0.00    -0.330 A  
HETATM   33  C   UNL     1     -11.368   4.776  73.171  1.00  0.00    -0.380 A  
HETATM   34  C   UNL     1     -10.810  10.994  69.838  1.00  0.00    -0.142 A  
HETATM   35  C   UNL     1     -10.018   9.928  70.279  1.00  0.00    -0.261 A  
HETATM   36  C   UNL     1     -11.132   5.736  72.188  1.00  0.00    -0.327 A  
ENDBRANCH  22  23
ENDBRANCH  20  22
ENDBRANCH  16  20
ENDBRANCH  13  15
ENDBRANCH  11  13
BRANCH  12  37
HETATM   37  C   UNL     1      -9.243  14.922  67.336  1.00  0.00    -0.198 A  
HETATM   38  O   UNL     1     -12.461  15.219  69.931  1.00  0.00    -0.309 OA 
HETATM   39  C   UNL     1     -10.337  14.945  68.223  1.00  0.00    -0.232 A  
HETATM   40  O   UNL     1     -11.203  16.066  71.516  1.00  0.00    -0.295 OA 
HETATM   41  C   UNL     1      -7.856  15.894  69.080  1.00  0.00    -0.216 A  
HETATM   42  C   UNL     1     -10.196  15.492  69.503  1.00  0.00    -0.279 A  
HETATM   43  N   UNL     1     -11.370  15.596  70.381  1.00  0.00    -0.324 N  
HETATM   44  C   UNL     1      -8.955  15.964  69.938  1.00  0.00     0.331 A  
HETATM   45  C   UNL     1      -8.000  15.382  67.787  1.00  0.00    -0.159 A  
ENDBRANCH  12  37
ENDBRANCH   3   5
ENDBRANCH   2   3
TORSDOF 8
ENDMDL
MODEL      185
REMARK 921   NORMALIZED FREE ENERGY PREDICTED BY IDOCK:   -3.16 KCAL/MOL
REMARK 922        TOTAL FREE ENERGY PREDICTED BY IDOCK:   -6.56 KCAL/MOL
REMARK 923 INTER-LIGAND FREE ENERGY PREDICTED BY IDOCK:   -5.63 KCAL/MOL
REMARK 924 INTRA-LIGAND FREE ENERGY PREDICTED BY IDOCK:   -0.92 KCAL/MOL
REMARK 927      BINDING AFFINITY PREDICTED BY RF-SCORE:    0.00 PKD
ROOT
HETATM    1  C   UNL     1      -5.601   4.373  70.579  1.00  0.00    -0.012 C  
HETATM    2  O   UNL     1      -5.296   3.671  69.369  1.00  0.00    -0.011 OA 
ENDROOT
BRANCH   2   3
HETATM    3  C   UNL     1      -6.400   3.216  68.719  1.00  0.00    -0.029 C  
HETATM    4  O   UNL     1      -6.381   2.353  67.855  1.00  0.00    -0.028 OA 
BRANCH   3   5
HETATM    5  C   UNL     1      -7.624   3.908  69.206  1.00  0.00    -0.053 C  
HETATM    6  C   UNL     1      -8.501   3.285  70.031  1.00  0.00    -0.052 C  
HETATM    7  N   UNL     1      -9.594   3.981  70.517  1.00  0.00    -0.179 NA 
HETATM    8  C   UNL     1      -8.458   1.852  70.508  1.00  0.00    -0.084 C  
HETATM    9  C   UNL     1      -9.998   5.228  70.092  1.00  0.00    -0.243 C  
HETATM   10  C   UNL     1     -11.301   5.718  70.684  1.00  0.00    -0.092 C  
HETATM   11  C   UNL     1      -9.232   5.918  69.212  1.00  0.00    -0.134 C  
HETATM   12  C   UNL     1      -7.882   5.359  68.739  1.00  0.00    -0.087 C  
BRANCH  11  13
HETATM   13  C   UNL     1      -9.772   7.192  68.672  1.00  0.00    -0.141 C  
HETATM   14  O   UNL     1     -10.885   7.276  68.176  1.00  0.00    -0.161 OA 
BRANCH  13  15
HETATM   15  O   UNL     1      -8.930   8.232  68.881  1.00  0.00    -0.143 OA 
HETATM   16  C   UNL     1      -8.045  10.194  70.092  1.00  0.00     0.035 C  
HETATM   17  C   UNL     1      -8.662   8.045  71.295  1.00  0.00    -0.159 C  
HETATM   18  C   UNL     1      -9.037   8.979  70.133  1.00  0.00    -0.188 C  
HETATM   19  C   UNL     1     -10.438   9.599  70.346  1.00  0.00    -0.352 C  
BRANCH  16  20
HETATM   20  N   UNL     1      -6.587   9.934  69.967  1.00  0.00    -0.076 NA 
HETATM   21  C   UNL     1      -6.334   8.842  69.022  1.00  0.00    -0.044 C  
BRANCH  20  22
HETATM   22  C   UNL     1      -5.886  11.127  69.444  1.00  0.00    -0.048 C  
BRANCH  22  23
HETATM   23  C   UNL     1      -6.715  12.409  69.346  1.00  0.00    -0.032 C  
HETATM   24  C   UNL     1      -7.061  12.925  67.926  1.00  0.00    -0.127 C  
HETATM   25  C   UNL     1      -7.589  14.361  68.082  1.00  0.00    -0.128 A  
HETATM   26  C   UNL     1      -7.944  11.940  67.154  1.00  0.00    -0.172 A  
HETATM   27  C   UNL     1      -6.944  15.424  67.433  1.00  0.00    -0.222 A  
HETATM   28  C   UNL     1      -9.346  11.940  67.211  1.00  0.00    -0.177 A  
HETATM   29  C   UNL     1      -7.269  16.749  67.745  1.00  0.00    -0.152 A  
HETATM   30  C   UNL     1     -10.097  10.941  66.585  1.00  0.00    -0.264 A  
HETATM   31  C   UNL     1      -9.464   9.920  65.887  1.00  0.00    -0.272 A  
HETATM   32  C   UNL     1      -8.252  17.030  68.693  1.00  0.00    -0.261 A  
HETATM   33  C   UNL     1      -8.933  15.989  69.310  1.00  0.00    -0.228 A  
HETATM   34  C   UNL     1      -8.077   9.908  65.795  1.00  0.00    -0.123 A  
HETATM   35  C   UNL     1      -7.328  10.914  66.415  1.00  0.00    -0.141 A  
HETATM   36  C   UNL     1      -8.605  14.669  69.008  1.00  0.00    -0.097 A  
ENDBRANCH  22  23
ENDBRANCH  20  22
ENDBRANCH  16  20
ENDBRANCH  13  15
ENDBRANCH  11  13
BRANCH  12  37
HETATM   37  C   UNL     1      -7.729   5.502  67.222  1.00  0.00    -0.100 A  
HETATM   38  O   UNL     1     -10.256   3.485  64.628  1.00  0.00    -0.161 OA 
HETATM   39  C   UNL     1      -8.645   4.866  66.361  1.00  0.00    -0.110 A  
HETATM   40  O   UNL     1      -9.178   4.238  62.871  1.00  0.00    -0.125 OA 
HETATM   41  C   UNL     1      -6.513   6.306  65.277  1.00  0.00    -0.039 A  
HETATM   42  C   UNL     1      -8.455   4.908  64.974  1.00  0.00    -0.142 A  
HETATM   43  N   UNL     1      -9.364   4.160  64.095  1.00  0.00    -0.155 N  
HETATM   44  C   UNL     1      -7.392   5.631  64.428  1.00  0.00    -0.065 A  
HETATM   45  C   UNL     1      -6.677   6.238  66.663  1.00  0.00    -0.060 A  
ENDBRANCH  12  37
ENDBRANCH   3   5
ENDBRANCH   2   3
TORSDOF 8
ENDMDL
MODEL      186
REMARK 921   NORMALIZED FREE ENERGY PREDICTED BY IDOCK:   -3.10 KCAL/MOL
REMARK 922        TOTAL FREE ENERGY PREDICTED BY IDOCK:   -6.46 KCAL/MOL
REMARK 923 INTER-LIGAND FREE ENERGY PREDICTED BY IDOCK:   -6.97 KCAL/MOL
REMARK 924 INTRA-LIGAND FREE ENERGY PREDICTED BY IDOCK:    0.51 KCAL/MOL
REMARK 927      BINDING AFFINITY PREDICTED BY RF-SCORE:    0.00 PKD
ROOT
HETATM    1  C   UNL     1     -11.341  16.151  70.771  1.00  0.00    -0.368 C  
HETATM    2  O   UNL     1     -11.388  14.790  70.328  1.00  0.00    -0.255 OA 
ENDROOT
BRANCH   2   3
HETATM    3  C   UNL     1     -11.725  14.663  69.017  1.00  0.00    -0.306 C  
HETATM    4  O   UNL     1     -12.171  15.570  68.332  1.00  0.00    -0.095 OA 
BRANCH   3   5
HETATM    5  C   UNL     1     -11.473  13.276  68.538  1.00  0.00    -0.347 C  
HETATM    6  C   UNL     1     -11.978  12.204  69.197  1.00  0.00    -0.255 C  
HETATM    7  N   UNL     1     -11.779  10.934  68.687  1.00  0.00    -0.412 NA 
HETATM    8  C   UNL     1     -12.755  12.202  70.493  1.00  0.00    -0.071 C  
HETATM    9  C   UNL     1     -10.939  10.617  67.641  1.00  0.00    -0.310 C  
HETATM   10  C   UNL     1     -10.795   9.138  67.358  1.00  0.00    -0.140 C  
HETATM   11  C   UNL     1     -10.325  11.608  66.950  1.00  0.00    -0.253 C  
HETATM   12  C   UNL     1     -10.610  13.083  67.271  1.00  0.00    -0.247 C  
BRANCH  11  13
HETATM   13  C   UNL     1      -9.321  11.221  65.925  1.00  0.00    -0.219 C  
HETATM   14  O   UNL     1      -9.129  11.877  64.913  1.00  0.00     0.123 OA 
BRANCH  13  15
HETATM   15  O   UNL     1      -8.606  10.133  66.298  1.00  0.00    -0.128 OA 
HETATM   16  C   UNL     1      -7.099   8.210  65.943  1.00  0.00    -0.064 C  
HETATM   17  C   UNL     1      -6.605  10.496  64.958  1.00  0.00    -0.014 C  
HETATM   18  C   UNL     1      -7.724   9.505  65.317  1.00  0.00    -0.111 C  
HETATM   19  C   UNL     1      -8.474   9.029  64.051  1.00  0.00    -0.175 C  
BRANCH  16  20
HETATM   20  N   UNL     1      -6.243   8.330  67.152  1.00  0.00    -0.054 NA 
HETATM   21  C   UNL     1      -7.063   8.541  68.349  1.00  0.00    -0.084 C  
BRANCH  20  22
HETATM   22  C   UNL     1      -5.471   7.088  67.372  1.00  0.00    -0.020 C  
BRANCH  22  23
HETATM   23  C   UNL     1      -6.092   6.067  68.328  1.00  0.00    -0.021 C  
HETATM   24  C   UNL     1      -7.151   5.098  67.741  1.00  0.00    -0.066 C  
HETATM   25  C   UNL     1      -7.850   4.420  68.931  1.00  0.00    -0.070 A  
HETATM   26  C   UNL     1      -6.561   4.181  66.666  1.00  0.00    -0.046 A  
HETATM   27  C   UNL     1      -9.237   4.546  69.100  1.00  0.00    -0.194 A  
HETATM   28  C   UNL     1      -5.963   2.942  66.941  1.00  0.00    -0.024 A  
HETATM   29  C   UNL     1      -9.850   4.132  70.288  1.00  0.00    -0.239 A  
HETATM   30  C   UNL     1      -5.330   2.204  65.937  1.00  0.00    -0.005 A  
HETATM   31  C   UNL     1      -5.283   2.686  64.635  1.00  0.00    -0.008 A  
HETATM   32  C   UNL     1      -9.091   3.570  71.314  1.00  0.00    -0.180 A  
HETATM   33  C   UNL     1      -7.724   3.394  71.144  1.00  0.00    -0.051 A  
HETATM   34  C   UNL     1      -5.888   3.900  64.329  1.00  0.00    -0.014 A  
HETATM   35  C   UNL     1      -6.528   4.633  65.334  1.00  0.00    -0.036 A  
HETATM   36  C   UNL     1      -7.110   3.814  69.965  1.00  0.00    -0.041 A  
ENDBRANCH  22  23
ENDBRANCH  20  22
ENDBRANCH  16  20
ENDBRANCH  13  15
ENDBRANCH  11  13
BRANCH  12  37
HETATM   37  C   UNL     1      -9.311  13.891  67.341  1.00  0.00    -0.228 A  
HETATM   38  O   UNL     1      -9.032  17.634  65.585  1.00  0.00    -0.386 OA 
HETATM   39  C   UNL     1      -9.262  15.191  66.801  1.00  0.00    -0.277 A  
HETATM   40  O   UNL     1      -6.916  17.817  66.130  1.00  0.00    -0.250 OA 
HETATM   41  C   UNL     1      -6.956  14.078  67.913  1.00  0.00    -0.168 A  
HETATM   42  C   UNL     1      -8.053  15.897  66.771  1.00  0.00    -0.266 A  
HETATM   43  N   UNL     1      -7.998  17.212  66.118  1.00  0.00    -0.294 N  
HETATM   44  C   UNL     1      -6.898  15.345  67.330  1.00  0.00    -0.143 A  
HETATM   45  C   UNL     1      -8.152  13.354  67.914  1.00  0.00    -0.162 A  
ENDBRANCH  12  37
ENDBRANCH   3   5
ENDBRANCH   2   3
TORSDOF 8
ENDMDL
MODEL      187
REMARK 921   NORMALIZED FREE ENERGY PREDICTED BY IDOCK:   -2.96 KCAL/MOL
REMARK 922        TOTAL FREE ENERGY PREDICTED BY IDOCK:   -6.26 KCAL/MOL
REMARK 923 INTER-LIGAND FREE ENERGY PREDICTED BY IDOCK:   -5.44 KCAL/MOL
REMARK 924 INTRA-LIGAND FREE ENERGY PREDICTED BY IDOCK:   -0.82 KCAL/MOL
REMARK 927      BINDING AFFINITY PREDICTED BY RF-SCORE:    0.00 PKD
ROOT
HETATM    1  C   UNL     1      -8.628   4.840  73.146  1.00  0.00    -0.106 C  
HETATM    2  O   UNL     1      -8.247   5.374  71.873  1.00  0.00    -0.115 OA 
ENDROOT
BRANCH   2   3
HETATM    3  C   UNL     1      -9.271   5.987  71.220  1.00  0.00    -0.146 C  
HETATM    4  O   UNL     1     -10.245   6.472  71.773  1.00  0.00    -0.188 OA 
BRANCH   3   5
HETATM    5  C   UNL     1      -9.036   5.986  69.750  1.00  0.00    -0.145 C  
HETATM    6  C   UNL     1      -9.198   4.858  69.015  1.00  0.00    -0.119 C  
HETATM    7  N   UNL     1      -9.035   4.909  67.642  1.00  0.00    -0.107 NA 
HETATM    8  C   UNL     1      -9.531   3.472  69.516  1.00  0.00    -0.236 C  
HETATM    9  C   UNL     1      -8.532   5.982  66.938  1.00  0.00    -0.109 C  
HETATM   10  C   UNL     1      -8.329   5.741  65.458  1.00  0.00    -0.140 C  
HETATM   11  C   UNL     1      -8.269   7.144  67.585  1.00  0.00    -0.114 C  
HETATM   12  C   UNL     1      -8.593   7.304  69.077  1.00  0.00    -0.129 C  
BRANCH  11  13
HETATM   13  C   UNL     1      -7.597   8.226  66.820  1.00  0.00    -0.091 C  
HETATM   14  O   UNL     1      -6.675   8.010  66.047  1.00  0.00    -0.052 OA 
BRANCH  13  15
HETATM   15  O   UNL     1      -8.185   9.430  67.015  1.00  0.00    -0.114 OA 
HETATM   16  C   UNL     1      -8.353  11.891  66.901  1.00  0.00    -0.169 C  
HETATM   17  C   UNL     1      -7.595  10.507  64.912  1.00  0.00    -0.006 C  
HETATM   18  C   UNL     1      -7.556  10.619  66.445  1.00  0.00    -0.138 C  
HETATM   19  C   UNL     1      -6.111  10.836  66.951  1.00  0.00    -0.071 C  
BRANCH  16  20
HETATM   20  N   UNL     1      -9.779  12.031  66.507  1.00  0.00    -0.211 NA 
HETATM   21  C   UNL     1     -10.660  11.794  67.655  1.00  0.00    -0.205 C  
BRANCH  20  22
HETATM   22  C   UNL     1     -10.057  13.402  66.027  1.00  0.00    -0.304 C  
BRANCH  22  23
HETATM   23  C   UNL     1      -8.994  14.457  66.341  1.00  0.00    -0.122 C  
HETATM   24  C   UNL     1      -9.491  15.846  66.819  1.00  0.00    -0.254 C  
HETATM   25  C   UNL     1      -8.291  16.805  66.744  1.00  0.00    -0.272 A  
HETATM   26  C   UNL     1     -10.233  15.765  68.155  1.00  0.00    -0.230 A  
HETATM   27  C   UNL     1      -8.355  17.955  65.944  1.00  0.00     0.056 A  
HETATM   28  C   UNL     1      -9.602  15.852  69.405  1.00  0.00    -0.265 A  
HETATM   29  C   UNL     1      -7.205  18.709  65.688  1.00  0.00    -0.156 A  
HETATM   30  C   UNL     1     -10.311  15.646  70.592  1.00  0.00     0.115 A  
HETATM   31  C   UNL     1     -11.668  15.351  70.557  1.00  0.00    -0.356 A  
HETATM   32  C   UNL     1      -5.980  18.336  66.241  1.00  0.00    -0.212 A  
HETATM   33  C   UNL     1      -5.908  17.228  67.074  1.00  0.00    -0.199 A  
HETATM   34  C   UNL     1     -12.325  15.281  69.334  1.00  0.00    -0.168 A  
HETATM   35  C   UNL     1     -11.615  15.495  68.147  1.00  0.00    -0.313 A  
HETATM   36  C   UNL     1      -7.051  16.470  67.323  1.00  0.00    -0.205 A  
ENDBRANCH  22  23
ENDBRANCH  20  22
ENDBRANCH  16  20
ENDBRANCH  13  15
ENDBRANCH  11  13
BRANCH  12  37
HETATM   37  C   UNL     1      -7.427   7.958  69.825  1.00  0.00    -0.088 A  
HETATM   38  O   UNL     1      -7.241  12.072  70.299  1.00  0.00     0.698 OA 
HETATM   39  C   UNL     1      -7.422   9.351  70.038  1.00  0.00    -0.107 A  
HETATM   40  O   UNL     1      -5.298  11.945  71.308  1.00  0.00    -0.286 OA 
HETATM   41  C   UNL     1      -5.257   7.821  70.910  1.00  0.00    -0.026 A  
HETATM   42  C   UNL     1      -6.315   9.970  70.630  1.00  0.00    -0.100 A  
HETATM   43  N   UNL     1      -6.285  11.433  70.758  1.00  0.00     0.134 N  
HETATM   44  C   UNL     1      -5.231   9.207  71.072  1.00  0.00    -0.031 A  
HETATM   45  C   UNL     1      -6.344   7.201  70.287  1.00  0.00    -0.034 A  
ENDBRANCH  12  37
ENDBRANCH   3   5
ENDBRANCH   2   3
TORSDOF 8
ENDMDL
MODEL      188
REMARK 921   NORMALIZED FREE ENERGY PREDICTED BY IDOCK:   -2.90 KCAL/MOL
REMARK 922        TOTAL FREE ENERGY PREDICTED BY IDOCK:   -6.17 KCAL/MOL
REMARK 923 INTER-LIGAND FREE ENERGY PREDICTED BY IDOCK:   -5.75 KCAL/MOL
REMARK 924 INTRA-LIGAND FREE ENERGY PREDICTED BY IDOCK:   -0.42 KCAL/MOL
REMARK 927      BINDING AFFINITY PREDICTED BY RF-SCORE:    0.00 PKD
ROOT
HETATM    1  C   UNL     1      -5.738   7.470  70.202  1.00  0.00    -0.024 C  
HETATM    2  O   UNL     1      -5.241   6.129  70.136  1.00  0.00    -0.012 OA 
ENDROOT
BRANCH   2   3
HETATM    3  C   UNL     1      -5.988   5.243  70.848  1.00  0.00    -0.021 C  
HETATM    4  O   UNL     1      -5.646   4.096  71.091  1.00  0.00    -0.007 OA 
BRANCH   3   5
HETATM    5  C   UNL     1      -7.267   5.864  71.289  1.00  0.00    -0.078 C  
HETATM    6  C   UNL     1      -7.531   6.068  72.603  1.00  0.00    -0.095 C  
HETATM    7  N   UNL     1      -8.702   6.706  72.973  1.00  0.00    -0.121 NA 
HETATM    8  C   UNL     1      -6.688   5.656  73.787  1.00  0.00    -0.080 C  
HETATM    9  C   UNL     1      -9.748   7.006  72.126  1.00  0.00    -0.147 C  
HETATM   10  C   UNL     1     -10.972   7.588  72.799  1.00  0.00    -0.410 C  
HETATM   11  C   UNL     1      -9.620   6.780  70.796  1.00  0.00    -0.173 C  
HETATM   12  C   UNL     1      -8.298   6.264  70.210  1.00  0.00    -0.126 C  
BRANCH  11  13
HETATM   13  C   UNL     1     -10.818   6.983  69.940  1.00  0.00    -0.251 C  
HETATM   14  O   UNL     1     -11.878   6.412  70.147  1.00  0.00    -0.409 OA 
BRANCH  13  15
HETATM   15  O   UNL     1     -10.611   7.925  68.990  1.00  0.00    -0.219 OA 
HETATM   16  C   UNL     1     -10.494  10.224  68.097  1.00  0.00    -0.190 C  
HETATM   17  C   UNL     1      -9.471   9.604  70.336  1.00  0.00    -0.280 C  
HETATM   18  C   UNL     1     -10.644   9.333  69.379  1.00  0.00    -0.223 C  
HETATM   19  C   UNL     1     -11.990   9.750  70.016  1.00  0.00    -0.006 C  
BRANCH  16  20
HETATM   20  N   UNL     1      -9.256  10.119  67.282  1.00  0.00    -0.138 NA 
HETATM   21  C   UNL     1      -9.540   9.499  65.985  1.00  0.00    -0.251 C  
BRANCH  20  22
HETATM   22  C   UNL     1      -8.697  11.459  67.005  1.00  0.00    -0.160 C  
BRANCH  22  23
HETATM   23  C   UNL     1      -9.568  12.652  67.405  1.00  0.00    -0.194 C  
HETATM   24  C   UNL     1      -9.117  13.481  68.635  1.00  0.00    -0.008 C  
HETATM   25  C   UNL     1     -10.297  14.385  69.028  1.00  0.00    -0.204 A  
HETATM   26  C   UNL     1      -7.765  14.163  68.407  1.00  0.00    -0.140 A  
HETATM   27  C   UNL     1     -10.860  14.293  70.310  1.00  0.00     0.274 A  
HETATM   28  C   UNL     1      -7.620  15.433  67.828  1.00  0.00    -0.167 A  
HETATM   29  C   UNL     1     -12.066  14.938  70.606  1.00  0.00    -0.366 A  
HETATM   30  C   UNL     1      -6.358  15.953  67.528  1.00  0.00    -0.198 A  
HETATM   31  C   UNL     1      -5.212  15.218  67.804  1.00  0.00    -0.078 A  
HETATM   32  C   UNL     1     -12.716  15.696  69.633  1.00  0.00     0.168 A  
HETATM   33  C   UNL     1     -12.149  15.836  68.373  1.00  0.00     0.132 A  
HETATM   34  C   UNL     1      -5.324  13.967  68.399  1.00  0.00    -0.101 A  
HETATM   35  C   UNL     1      -6.588  13.451  68.705  1.00  0.00    -0.091 A  
HETATM   36  C   UNL     1     -10.953  15.188  68.074  1.00  0.00    -0.295 A  
ENDBRANCH  22  23
ENDBRANCH  20  22
ENDBRANCH  16  20
ENDBRANCH  13  15
ENDBRANCH  11  13
BRANCH  12  37
HETATM   37  C   UNL     1      -8.546   5.127  69.214  1.00  0.00    -0.100 A  
HETATM   38  O   UNL     1      -7.364   5.468  65.256  1.00  0.00    -0.069 OA 
HETATM   39  C   UNL     1      -8.070   5.235  67.892  1.00  0.00    -0.099 A  
HETATM   40  O   UNL     1      -8.229   3.517  64.749  1.00  0.00    -0.090 OA 
HETATM   41  C   UNL     1      -9.536   2.982  68.644  1.00  0.00    -0.094 A  
HETATM   42  C   UNL     1      -8.379   4.248  66.949  1.00  0.00    -0.101 A  
HETATM   43  N   UNL     1      -7.957   4.422  65.552  1.00  0.00    -0.094 N  
HETATM   44  C   UNL     1      -9.109   3.116  67.322  1.00  0.00    -0.201 A  
HETATM   45  C   UNL     1      -9.262   3.982  69.582  1.00  0.00    -0.217 A  
ENDBRANCH  12  37
ENDBRANCH   3   5
ENDBRANCH   2   3
TORSDOF 8
ENDMDL
MODEL      189
REMARK 921   NORMALIZED FREE ENERGY PREDICTED BY IDOCK:   -2.87 KCAL/MOL
REMARK 922        TOTAL FREE ENERGY PREDICTED BY IDOCK:   -6.12 KCAL/MOL
REMARK 923 INTER-LIGAND FREE ENERGY PREDICTED BY IDOCK:   -5.25 KCAL/MOL
REMARK 924 INTRA-LIGAND FREE ENERGY PREDICTED BY IDOCK:   -0.86 KCAL/MOL
REMARK 927      BINDING AFFINITY PREDICTED BY RF-SCORE:    0.00 PKD
ROOT
HETATM    1  C   UNL     1     -11.644   6.711  67.099  1.00  0.00     0.652 C  
HETATM    2  O   UNL     1     -10.664   7.526  66.448  1.00  0.00     0.085 OA 
ENDROOT
BRANCH   2   3
HETATM    3  C   UNL     1      -9.440   6.938  66.372  1.00  0.00    -0.120 C  
HETATM    4  O   UNL     1      -9.259   5.730  66.353  1.00  0.00    -0.143 OA 
BRANCH   3   5
HETATM    5  C   UNL     1      -8.363   7.963  66.313  1.00  0.00    -0.126 C  
HETATM    6  C   UNL     1      -7.693   8.211  65.160  1.00  0.00    -0.107 C  
HETATM    7  N   UNL     1      -6.743   9.216  65.124  1.00  0.00    -0.072 NA 
HETATM    8  C   UNL     1      -7.836   7.491  63.839  1.00  0.00    -0.114 C  
HETATM    9  C   UNL     1      -6.260   9.895  66.223  1.00  0.00    -0.067 C  
HETATM   10  C   UNL     1      -5.128  10.858  65.937  1.00  0.00    -0.124 C  
HETATM   11  C   UNL     1      -6.810   9.676  67.442  1.00  0.00    -0.083 C  
HETATM   12  C   UNL     1      -8.014   8.737  67.604  1.00  0.00    -0.106 C  
BRANCH  11  13
HETATM   13  C   UNL     1      -6.169  10.319  68.618  1.00  0.00    -0.047 C  
HETATM   14  O   UNL     1      -5.132   9.901  69.111  1.00  0.00    -0.036 OA 
BRANCH  13  15
HETATM   15  O   UNL     1      -6.814  11.447  68.998  1.00  0.00    -0.084 OA 
HETATM   16  C   UNL     1      -6.989  13.723  69.939  1.00  0.00     0.262 C  
HETATM   17  C   UNL     1      -5.182  13.101  68.268  1.00  0.00    -0.086 C  
HETATM   18  C   UNL     1      -6.022  12.589  69.449  1.00  0.00    -0.101 C  
HETATM   19  C   UNL     1      -5.127  12.257  70.666  1.00  0.00    -0.120 C  
BRANCH  16  20
HETATM   20  N   UNL     1      -7.946  14.325  68.975  1.00  0.00    -0.080 NA 
HETATM   21  C   UNL     1      -7.628  13.916  67.604  1.00  0.00    -0.178 C  
BRANCH  20  22
HETATM   22  C   UNL     1      -9.325  13.866  69.251  1.00  0.00     0.481 C  
BRANCH  22  23
HETATM   23  C   UNL     1     -10.179  13.520  68.030  1.00  0.00    -0.243 C  
HETATM   24  C   UNL     1     -10.313  12.021  67.658  1.00  0.00    -0.213 C  
HETATM   25  C   UNL     1     -10.918  11.958  66.246  1.00  0.00    -0.345 A  
HETATM   26  C   UNL     1     -11.019  11.216  68.753  1.00  0.00    -0.268 A  
HETATM   27  C   UNL     1     -10.222  11.321  65.207  1.00  0.00    -0.328 A  
HETATM   28  C   UNL     1     -12.410  11.051  68.827  1.00  0.00     0.172 A  
HETATM   29  C   UNL     1     -10.647  11.452  63.881  1.00  0.00    -0.452 A  
HETATM   30  C   UNL     1     -13.008  10.413  69.916  1.00  0.00     0.250 A  
HETATM   31  C   UNL     1     -12.229   9.920  70.956  1.00  0.00    -0.446 A  
HETATM   32  C   UNL     1     -11.781  12.204  63.575  1.00  0.00    -0.579 A  
HETATM   33  C   UNL     1     -12.510  12.801  64.596  1.00  0.00    -0.525 A  
HETATM   34  C   UNL     1     -10.846  10.049  70.899  1.00  0.00    -0.276 A  
HETATM   35  C   UNL     1     -10.249  10.682  69.803  1.00  0.00    -0.098 A  
HETATM   36  C   UNL     1     -12.082  12.680  65.916  1.00  0.00    -0.459 A  
ENDBRANCH  22  23
ENDBRANCH  20  22
ENDBRANCH  16  20
ENDBRANCH  13  15
ENDBRANCH  11  13
BRANCH  12  37
HETATM   37  C   UNL     1      -7.819   7.793  68.794  1.00  0.00    -0.123 A  
HETATM   38  O   UNL     1     -10.991   6.800  71.269  1.00  0.00    -0.237 OA 
HETATM   39  C   UNL     1      -8.925   7.411  69.578  1.00  0.00    -0.144 A  
HETATM   40  O   UNL     1      -9.696   5.611  72.581  1.00  0.00    -0.154 OA 
HETATM   41  C   UNL     1      -6.377   6.506  70.269  1.00  0.00    -0.039 A  
HETATM   42  C   UNL     1      -8.741   6.632  70.726  1.00  0.00    -0.143 A  
HETATM   43  N   UNL     1      -9.893   6.322  71.585  1.00  0.00    -0.165 N  
HETATM   44  C   UNL     1      -7.468   6.173  71.073  1.00  0.00    -0.085 A  
HETATM   45  C   UNL     1      -6.549   7.314  69.141  1.00  0.00    -0.041 A  
ENDBRANCH  12  37
ENDBRANCH   3   5
ENDBRANCH   2   3
TORSDOF 8
ENDMDL
MODEL      190
REMARK 921   NORMALIZED FREE ENERGY PREDICTED BY IDOCK:   -2.83 KCAL/MOL
REMARK 922        TOTAL FREE ENERGY PREDICTED BY IDOCK:   -6.06 KCAL/MOL
REMARK 923 INTER-LIGAND FREE ENERGY PREDICTED BY IDOCK:   -6.05 KCAL/MOL
REMARK 924 INTRA-LIGAND FREE ENERGY PREDICTED BY IDOCK:   -0.01 KCAL/MOL
REMARK 927      BINDING AFFINITY PREDICTED BY RF-SCORE:    0.00 PKD
ROOT
HETATM    1  C   UNL     1      -8.586  15.480  69.642  1.00  0.00    -0.119 C  
HETATM    2  O   UNL     1      -8.799  15.119  68.273  1.00  0.00    -0.165 OA 
ENDROOT
BRANCH   2   3
HETATM    3  C   UNL     1     -10.113  15.077  67.927  1.00  0.00    -0.226 C  
HETATM    4  O   UNL     1     -10.607  15.740  67.028  1.00  0.00    -0.309 OA 
BRANCH   3   5
HETATM    5  C   UNL     1     -10.857  14.118  68.787  1.00  0.00    -0.271 C  
HETATM    6  C   UNL     1     -11.480  14.529  69.919  1.00  0.00    -0.270 C  
HETATM    7  N   UNL     1     -12.218  13.622  70.660  1.00  0.00    -0.358 NA 
HETATM    8  C   UNL     1     -11.466  15.911  70.528  1.00  0.00    -0.412 C  
HETATM    9  C   UNL     1     -12.238  12.258  70.459  1.00  0.00    -0.300 C  
HETATM   10  C   UNL     1     -13.021  11.470  71.487  1.00  0.00    -0.485 C  
HETATM   11  C   UNL     1     -11.591  11.728  69.394  1.00  0.00    -0.386 C  
HETATM   12  C   UNL     1     -10.897  12.632  68.365  1.00  0.00    -0.268 C  
BRANCH  11  13
HETATM   13  C   UNL     1     -11.518  10.247  69.293  1.00  0.00    -0.160 C  
HETATM   14  O   UNL     1     -12.035   9.624  68.378  1.00  0.00     0.645 OA 
BRANCH  13  15
HETATM   15  O   UNL     1     -10.747   9.707  70.266  1.00  0.00    -0.237 OA 
HETATM   16  C   UNL     1     -10.071   7.978  71.894  1.00  0.00    -0.203 C  
HETATM   17  C   UNL     1     -10.712   7.393  69.508  1.00  0.00    -0.233 C  
HETATM   18  C   UNL     1     -11.009   8.333  70.688  1.00  0.00    -0.240 C  
HETATM   19  C   UNL     1     -12.449   8.129  71.213  1.00  0.00    -0.269 C  
BRANCH  16  20
HETATM   20  N   UNL     1      -8.598   8.005  71.698  1.00  0.00    -0.119 NA 
HETATM   21  C   UNL     1      -7.969   8.953  72.622  1.00  0.00     0.382 C  
BRANCH  20  22
HETATM   22  C   UNL     1      -8.008   6.677  71.977  1.00  0.00    -0.102 C  
BRANCH  22  23
HETATM   23  C   UNL     1      -8.363   5.560  70.994  1.00  0.00    -0.121 C  
HETATM   24  C   UNL     1      -7.280   4.485  70.720  1.00  0.00    -0.041 C  
HETATM   25  C   UNL     1      -7.734   3.691  69.483  1.00  0.00    -0.051 A  
HETATM   26  C   UNL     1      -6.936   3.679  71.975  1.00  0.00    -0.031 A  
HETATM   27  C   UNL     1      -6.922   3.640  68.340  1.00  0.00    -0.050 A  
HETATM   28  C   UNL     1      -7.617   2.516  72.367  1.00  0.00    -0.052 A  
HETATM   29  C   UNL     1      -7.417   3.119  67.139  1.00  0.00    -0.070 A  
HETATM   30  C   UNL     1      -7.344   1.892  73.587  1.00  0.00    -0.032 A  
HETATM   31  C   UNL     1      -6.382   2.413  74.443  1.00  0.00    -0.016 A  
HETATM   32  C   UNL     1      -8.719   2.626  67.068  1.00  0.00    -0.137 A  
HETATM   33  C   UNL     1      -9.520   2.625  68.203  1.00  0.00    -0.217 A  
HETATM   34  C   UNL     1      -5.675   3.551  74.071  1.00  0.00    -0.004 A  
HETATM   35  C   UNL     1      -5.945   4.170  72.845  1.00  0.00    -0.015 A  
HETATM   36  C   UNL     1      -9.033   3.152  69.397  1.00  0.00    -0.178 A  
ENDBRANCH  22  23
ENDBRANCH  20  22
ENDBRANCH  16  20
ENDBRANCH  13  15
ENDBRANCH  11  13
BRANCH  12  37
HETATM   37  C   UNL     1      -9.501  12.103  68.021  1.00  0.00    -0.201 A  
HETATM   38  O   UNL     1      -8.768  10.219  64.403  1.00  0.00    -0.175 OA 
HETATM   39  C   UNL     1      -9.258  11.533  66.757  1.00  0.00    -0.187 A  
HETATM   40  O   UNL     1      -6.687   9.800  64.955  1.00  0.00    -0.094 OA 
HETATM   41  C   UNL     1      -7.206  11.607  68.647  1.00  0.00    -0.104 A  
HETATM   42  C   UNL     1      -8.014  10.956  66.471  1.00  0.00    -0.152 A  
HETATM   43  N   UNL     1      -7.808  10.280  65.182  1.00  0.00    -0.141 N  
HETATM   44  C   UNL     1      -6.983  10.995  67.413  1.00  0.00    -0.086 A  
HETATM   45  C   UNL     1      -8.456  12.152  68.952  1.00  0.00     0.204 A  
ENDBRANCH  12  37
ENDBRANCH   3   5
ENDBRANCH   2   3
TORSDOF 8
ENDMDL
MODEL      191
REMARK 921   NORMALIZED FREE ENERGY PREDICTED BY IDOCK:   -2.82 KCAL/MOL
REMARK 922        TOTAL FREE ENERGY PREDICTED BY IDOCK:   -6.06 KCAL/MOL
REMARK 923 INTER-LIGAND FREE ENERGY PREDICTED BY IDOCK:   -7.81 KCAL/MOL
REMARK 924 INTRA-LIGAND FREE ENERGY PREDICTED BY IDOCK:    1.75 KCAL/MOL
REMARK 927      BINDING AFFINITY PREDICTED BY RF-SCORE:    0.00 PKD
ROOT
HETATM    1  C   UNL     1      -5.367  18.024  66.373  1.00  0.00    -0.161 C  
HETATM    2  O   UNL     1      -5.492  16.644  66.732  1.00  0.00    -0.311 OA 
ENDROOT
BRANCH   2   3
HETATM    3  C   UNL     1      -6.299  16.439  67.807  1.00  0.00    -0.140 C  
HETATM    4  O   UNL     1      -5.945  16.583  68.967  1.00  0.00    -0.138 OA 
BRANCH   3   5
HETATM    5  C   UNL     1      -7.661  16.024  67.376  1.00  0.00    -0.200 C  
HETATM    6  C   UNL     1      -8.722  16.857  67.505  1.00  0.00    -0.208 C  
HETATM    7  N   UNL     1      -9.962  16.463  67.034  1.00  0.00    -0.255 NA 
HETATM    8  C   UNL     1      -8.746  18.226  68.144  1.00  0.00    -0.293 C  
HETATM    9  C   UNL     1     -10.281  15.196  66.594  1.00  0.00    -0.266 C  
HETATM   10  C   UNL     1     -11.740  14.983  66.253  1.00  0.00    -0.096 C  
HETATM   11  C   UNL     1      -9.309  14.258  66.489  1.00  0.00    -0.292 C  
HETATM   12  C   UNL     1      -7.843  14.609  66.782  1.00  0.00     0.272 C  
BRANCH  11  13
HETATM   13  C   UNL     1      -9.717  12.870  66.148  1.00  0.00    -0.248 C  
HETATM   14  O   UNL     1      -9.999  12.529  65.010  1.00  0.00    -0.255 OA 
BRANCH  13  15
HETATM   15  O   UNL     1      -9.646  12.042  67.217  1.00  0.00    -0.180 OA 
HETATM   16  C   UNL     1     -10.317  11.167  69.426  1.00  0.00    -0.057 C  
HETATM   17  C   UNL     1     -12.026  11.729  67.635  1.00  0.00    -0.106 C  
HETATM   18  C   UNL     1     -10.676  12.139  68.248  1.00  0.00    -0.223 C  
HETATM   19  C   UNL     1     -10.759  13.545  68.886  1.00  0.00    -0.228 C  
BRANCH  16  20
HETATM   20  N   UNL     1     -10.230   9.708  69.160  1.00  0.00    -0.192 NA 
HETATM   21  C   UNL     1     -10.220   9.443  67.718  1.00  0.00    -0.222 C  
BRANCH  20  22
HETATM   22  C   UNL     1      -8.974   9.150  69.707  1.00  0.00    -0.162 C  
BRANCH  22  23
HETATM   23  C   UNL     1      -9.004   7.670  70.095  1.00  0.00    -0.146 C  
HETATM   24  C   UNL     1      -9.552   7.315  71.501  1.00  0.00    -0.164 C  
HETATM   25  C   UNL     1      -9.176   5.850  71.777  1.00  0.00    -0.157 A  
HETATM   26  C   UNL     1     -11.028   7.695  71.658  1.00  0.00    -0.267 A  
HETATM   27  C   UNL     1      -8.386   5.521  72.888  1.00  0.00    -0.116 A  
HETATM   28  C   UNL     1     -12.092   6.846  71.318  1.00  0.00    -0.419 A  
HETATM   29  C   UNL     1      -7.850   4.236  73.025  1.00  0.00    -0.086 A  
HETATM   30  C   UNL     1     -13.416   7.290  71.363  1.00  0.00    -0.400 A  
HETATM   31  C   UNL     1     -13.708   8.591  71.754  1.00  0.00    -0.444 A  
HETATM   32  C   UNL     1      -8.108   3.258  72.065  1.00  0.00    -0.063 A  
HETATM   33  C   UNL     1      -8.927   3.553  70.982  1.00  0.00    -0.158 A  
HETATM   34  C   UNL     1     -12.675   9.447  72.119  1.00  0.00    -0.460 A  
HETATM   35  C   UNL     1     -11.350   8.998  72.080  1.00  0.00    -0.395 A  
HETATM   36  C   UNL     1      -9.455   4.835  70.840  1.00  0.00    -0.230 A  
ENDBRANCH  22  23
ENDBRANCH  20  22
ENDBRANCH  16  20
ENDBRANCH  13  15
ENDBRANCH  11  13
BRANCH  12  37
HETATM   37  C   UNL     1      -7.187  13.538  67.659  1.00  0.00    -0.175 A  
HETATM   38  O   UNL     1      -5.680  10.053  65.996  1.00  0.00    -0.055 OA 
HETATM   39  C   UNL     1      -6.616  12.396  67.064  1.00  0.00    -0.002 A  
HETATM   40  O   UNL     1      -5.135   9.258  67.967  1.00  0.00    -0.034 OA 
HETATM   41  C   UNL     1      -6.617  12.640  69.845  1.00  0.00     0.132 A  
HETATM   42  C   UNL     1      -6.105  11.365  67.863  1.00  0.00    -0.050 A  
HETATM   43  N   UNL     1      -5.600  10.139  67.229  1.00  0.00    -0.042 N  
HETATM   44  C   UNL     1      -6.100  11.486  69.255  1.00  0.00    -0.068 A  
HETATM   45  C   UNL     1      -7.161  13.656  69.054  1.00  0.00    -0.049 A  
ENDBRANCH  12  37
ENDBRANCH   3   5
ENDBRANCH   2   3
TORSDOF 8
ENDMDL
MODEL      192
REMARK 921   NORMALIZED FREE ENERGY PREDICTED BY IDOCK:   -2.77 KCAL/MOL
REMARK 922        TOTAL FREE ENERGY PREDICTED BY IDOCK:   -5.97 KCAL/MOL
REMARK 923 INTER-LIGAND FREE ENERGY PREDICTED BY IDOCK:   -7.29 KCAL/MOL
REMARK 924 INTRA-LIGAND FREE ENERGY PREDICTED BY IDOCK:    1.32 KCAL/MOL
REMARK 927      BINDING AFFINITY PREDICTED BY RF-SCORE:    0.00 PKD
ROOT
HETATM    1  C   UNL     1     -10.613  18.242  68.017  1.00  0.00    -0.325 C  
HETATM    2  O   UNL     1     -11.127  16.969  68.422  1.00  0.00    -0.320 OA 
ENDROOT
BRANCH   2   3
HETATM    3  C   UNL     1     -10.766  15.954  67.591  1.00  0.00    -0.312 C  
HETATM    4  O   UNL     1     -11.510  15.442  66.769  1.00  0.00    -0.206 OA 
BRANCH   3   5
HETATM    5  C   UNL     1      -9.348  15.563  67.819  1.00  0.00    -0.195 C  
HETATM    6  C   UNL     1      -8.328  16.375  67.448  1.00  0.00    -0.164 C  
HETATM    7  N   UNL     1      -7.025  16.009  67.735  1.00  0.00    -0.131 NA 
HETATM    8  C   UNL     1      -8.419  17.688  66.707  1.00  0.00    -0.274 C  
HETATM    9  C   UNL     1      -6.630  14.778  68.214  1.00  0.00    -0.116 C  
HETATM   10  C   UNL     1      -5.133  14.581  68.322  1.00  0.00    -0.113 C  
HETATM   11  C   UNL     1      -7.566  13.860  68.556  1.00  0.00    -0.134 C  
HETATM   12  C   UNL     1      -9.062  14.199  68.485  1.00  0.00    -0.176 C  
BRANCH  11  13
HETATM   13  C   UNL     1      -7.099  12.500  68.933  1.00  0.00    -0.073 C  
HETATM   14  O   UNL     1      -6.684  12.234  70.051  1.00  0.00     0.071 OA 
BRANCH  13  15
HETATM   15  O   UNL     1      -7.278  11.605  67.933  1.00  0.00    -0.075 OA 
HETATM   16  C   UNL     1      -6.556  10.084  66.127  1.00  0.00    -0.088 C  
HETATM   17  C   UNL     1      -5.397  10.124  68.386  1.00  0.00    -0.035 C  
HETATM   18  C   UNL     1      -6.101  10.988  67.326  1.00  0.00    -0.066 C  
HETATM   19  C   UNL     1      -5.127  12.022  66.714  1.00  0.00     0.026 C  
BRANCH  16  20
HETATM   20  N   UNL     1      -7.455   8.930  66.391  1.00  0.00    -0.087 NA 
HETATM   21  C   UNL     1      -7.718   8.185  65.156  1.00  0.00    -0.107 C  
BRANCH  20  22
HETATM   22  C   UNL     1      -6.828   7.984  67.339  1.00  0.00    -0.070 C  
BRANCH  22  23
HETATM   23  C   UNL     1      -7.547   6.648  67.536  1.00  0.00    -0.105 C  
HETATM   24  C   UNL     1      -7.842   6.209  68.994  1.00  0.00    -0.100 C  
HETATM   25  C   UNL     1      -8.251   4.728  68.946  1.00  0.00    -0.082 A  
HETATM   26  C   UNL     1      -8.798   7.171  69.705  1.00  0.00    -0.141 A  
HETATM   27  C   UNL     1      -7.517   3.769  69.661  1.00  0.00    -0.052 A  
HETATM   28  C   UNL     1     -10.196   7.053  69.665  1.00  0.00    -0.212 A  
HETATM   29  C   UNL     1      -7.734   2.403  69.448  1.00  0.00    -0.046 A  
HETATM   30  C   UNL     1     -11.022   8.030  70.226  1.00  0.00    -0.242 A  
HETATM   31  C   UNL     1     -10.471   9.146  70.844  1.00  0.00    -0.347 A  
HETATM   32  C   UNL     1      -8.696   1.976  68.534  1.00  0.00    -0.118 A  
HETATM   33  C   UNL     1      -9.464   2.911  67.852  1.00  0.00    -0.203 A  
HETATM   34  C   UNL     1      -9.089   9.278  70.918  1.00  0.00    -0.288 A  
HETATM   35  C   UNL     1      -8.264   8.295  70.362  1.00  0.00    -0.114 A  
HETATM   36  C   UNL     1      -9.244   4.272  68.056  1.00  0.00    -0.182 A  
ENDBRANCH  22  23
ENDBRANCH  20  22
ENDBRANCH  16  20
ENDBRANCH  13  15
ENDBRANCH  11  13
BRANCH  12  37
HETATM   37  C   UNL     1      -9.850  13.067  67.819  1.00  0.00    -0.224 A  
HETATM   38  O   UNL     1     -10.040  12.744  63.692  1.00  0.00    -0.378 OA 
HETATM   39  C   UNL     1      -9.840  12.933  66.417  1.00  0.00    -0.268 A  
HETATM   40  O   UNL     1     -11.388  11.018  63.812  1.00  0.00    -0.053 OA 
HETATM   41  C   UNL     1     -11.373  11.177  67.951  1.00  0.00    -0.378 A  
HETATM   42  C   UNL     1     -10.637  11.965  65.795  1.00  0.00    -0.267 A  
HETATM   43  N   UNL     1     -10.688  11.902  64.327  1.00  0.00    -0.311 N  
HETATM   44  C   UNL     1     -11.402  11.081  66.559  1.00  0.00     0.047 A  
HETATM   45  C   UNL     1     -10.607  12.165  68.577  1.00  0.00    -0.252 A  
ENDBRANCH  12  37
ENDBRANCH   3   5
ENDBRANCH   2   3
TORSDOF 8
ENDMDL
MODEL      193
REMARK 921   NORMALIZED FREE ENERGY PREDICTED BY IDOCK:   -2.73 KCAL/MOL
REMARK 922        TOTAL FREE ENERGY PREDICTED BY IDOCK:   -5.92 KCAL/MOL
REMARK 923 INTER-LIGAND FREE ENERGY PREDICTED BY IDOCK:   -7.60 KCAL/MOL
REMARK 924 INTRA-LIGAND FREE ENERGY PREDICTED BY IDOCK:    1.69 KCAL/MOL
REMARK 927      BINDING AFFINITY PREDICTED BY RF-SCORE:    0.00 PKD
ROOT
HETATM    1  C   UNL     1     -10.832  18.744  65.289  1.00  0.00     0.581 C  
HETATM    2  O   UNL     1     -10.145  17.498  65.450  1.00  0.00    -0.526 OA 
ENDROOT
BRANCH   2   3
HETATM    3  C   UNL     1     -10.832  16.437  64.949  1.00  0.00    -0.250 C  
HETATM    4  O   UNL     1     -11.470  16.462  63.908  1.00  0.00    -1.063 OA 
BRANCH   3   5
HETATM    5  C   UNL     1     -10.696  15.251  65.837  1.00  0.00    -0.340 C  
HETATM    6  C   UNL     1     -11.678  14.320  65.920  1.00  0.00    -0.372 C  
HETATM    7  N   UNL     1     -11.491  13.197  66.706  1.00  0.00    -0.327 NA 
HETATM    8  C   UNL     1     -13.032  14.348  65.250  1.00  0.00    -0.104 C  
HETATM    9  C   UNL     1     -10.447  13.006  67.587  1.00  0.00    -0.225 C  
HETATM   10  C   UNL     1     -10.538  11.751  68.427  1.00  0.00    -0.239 C  
HETATM   11  C   UNL     1      -9.440  13.910  67.638  1.00  0.00    -0.212 C  
HETATM   12  C   UNL     1      -9.407  15.107  66.677  1.00  0.00    -0.291 C  
BRANCH  11  13
HETATM   13  C   UNL     1      -8.410  13.742  68.697  1.00  0.00    -0.067 C  
HETATM   14  O   UNL     1      -8.187  14.599  69.538  1.00  0.00    -0.019 OA 
BRANCH  13  15
HETATM   15  O   UNL     1      -7.840  12.514  68.664  1.00  0.00    -0.120 OA 
HETATM   16  C   UNL     1      -5.970  10.913  68.478  1.00  0.00    -0.043 C  
HETATM   17  C   UNL     1      -5.823  12.979  69.947  1.00  0.00    -0.132 C  
HETATM   18  C   UNL     1      -6.383  12.419  68.629  1.00  0.00    -0.073 C  
HETATM   19  C   UNL     1      -5.761  13.140  67.410  1.00  0.00     0.029 C  
BRANCH  16  20
HETATM   20  N   UNL     1      -6.355   9.947  69.540  1.00  0.00    -0.044 NA 
HETATM   21  C   UNL     1      -7.796  10.010  69.800  1.00  0.00    -0.177 C  
BRANCH  20  22
HETATM   22  C   UNL     1      -6.054   8.561  69.120  1.00  0.00    -0.042 C  
BRANCH  22  23
HETATM   23  C   UNL     1      -6.532   8.159  67.723  1.00  0.00    -0.053 C  
HETATM   24  C   UNL     1      -7.162   6.751  67.567  1.00  0.00    -0.090 C  
HETATM   25  C   UNL     1      -7.247   6.460  66.059  1.00  0.00    -0.075 A  
HETATM   26  C   UNL     1      -8.452   6.603  68.377  1.00  0.00    -0.125 A  
HETATM   27  C   UNL     1      -6.594   5.342  65.518  1.00  0.00    -0.041 A  
HETATM   28  C   UNL     1      -9.724   6.939  67.888  1.00  0.00    -0.136 A  
HETATM   29  C   UNL     1      -6.473   5.191  64.132  1.00  0.00    -0.037 A  
HETATM   30  C   UNL     1     -10.851   6.902  68.713  1.00  0.00    -0.238 A  
HETATM   31  C   UNL     1     -10.735   6.526  70.045  1.00  0.00    -0.302 A  
HETATM   32  C   UNL     1      -7.015   6.142  63.269  1.00  0.00    -0.046 A  
HETATM   33  C   UNL     1      -7.706   7.230  63.787  1.00  0.00    -0.120 A  
HETATM   34  C   UNL     1      -9.491   6.165  70.551  1.00  0.00    -0.182 A  
HETATM   35  C   UNL     1      -8.365   6.196  69.721  1.00  0.00    -0.124 A  
HETATM   36  C   UNL     1      -7.821   7.387  65.167  1.00  0.00    -0.123 A  
ENDBRANCH  22  23
ENDBRANCH  20  22
ENDBRANCH  16  20
ENDBRANCH  13  15
ENDBRANCH  11  13
BRANCH  12  37
HETATM   37  C   UNL     1      -9.069  16.401  67.423  1.00  0.00    -0.206 A  
HETATM   38  O   UNL     1      -5.339  18.167  67.042  1.00  0.00    -0.130 OA 
HETATM   39  C   UNL     1      -7.821  17.023  67.221  1.00  0.00    -0.198 A  
HETATM   40  O   UNL     1      -5.850  19.738  68.485  1.00  0.00    -0.219 OA 
HETATM   41  C   UNL     1      -9.622  18.121  69.049  1.00  0.00    -0.168 A  
HETATM   42  C   UNL     1      -7.464  18.149  67.973  1.00  0.00    -0.240 A  
HETATM   43  N   UNL     1      -6.123  18.728  67.819  1.00  0.00    -0.192 N  
HETATM   44  C   UNL     1      -8.365  18.704  68.886  1.00  0.00    -0.217 A  
HETATM   45  C   UNL     1      -9.970  16.976  68.327  1.00  0.00    -0.285 A  
ENDBRANCH  12  37
ENDBRANCH   3   5
ENDBRANCH   2   3
TORSDOF 8
ENDMDL
MODEL      194
REMARK 921   NORMALIZED FREE ENERGY PREDICTED BY IDOCK:   -2.72 KCAL/MOL
REMARK 922        TOTAL FREE ENERGY PREDICTED BY IDOCK:   -5.90 KCAL/MOL
REMARK 923 INTER-LIGAND FREE ENERGY PREDICTED BY IDOCK:   -7.69 KCAL/MOL
REMARK 924 INTRA-LIGAND FREE ENERGY PREDICTED BY IDOCK:    1.78 KCAL/MOL
REMARK 927      BINDING AFFINITY PREDICTED BY RF-SCORE:    0.00 PKD
ROOT
HETATM    1  C   UNL     1      -9.965  19.440  68.815  1.00  0.00    -0.444 C  
HETATM    2  O   UNL     1     -10.863  18.749  67.940  1.00  0.00    -0.345 OA 
ENDROOT
BRANCH   2   3
HETATM    3  C   UNL     1     -10.248  18.221  66.847  1.00  0.00    -0.375 C  
HETATM    4  O   UNL     1     -10.690  18.291  65.711  1.00  0.00    -0.468 OA 
BRANCH   3   5
HETATM    5  C   UNL     1      -8.973  17.554  67.227  1.00  0.00    -0.238 C  
HETATM    6  C   UNL     1      -7.795  17.922  66.665  1.00  0.00    -0.241 C  
HETATM    7  N   UNL     1      -6.621  17.326  67.089  1.00  0.00    -0.156 NA 
HETATM    8  C   UNL     1      -7.576  18.935  65.565  1.00  0.00     0.202 C  
HETATM    9  C   UNL     1      -6.539  16.232  67.924  1.00  0.00    -0.134 C  
HETATM   10  C   UNL     1      -5.143  15.688  68.134  1.00  0.00    -0.118 C  
HETATM   11  C   UNL     1      -7.665  15.736  68.492  1.00  0.00    -0.137 C  
HETATM   12  C   UNL     1      -9.022  16.421  68.276  1.00  0.00    -0.206 C  
BRANCH  11  13
HETATM   13  C   UNL     1      -7.552  14.474  69.269  1.00  0.00    -0.073 C  
HETATM   14  O   UNL     1      -7.273  14.458  70.459  1.00  0.00     0.296 OA 
BRANCH  13  15
HETATM   15  O   UNL     1      -7.881  13.389  68.530  1.00  0.00    -0.133 OA 
HETATM   16  C   UNL     1      -7.432  11.321  67.257  1.00  0.00    -0.126 C  
HETATM   17  C   UNL     1      -6.359  11.762  69.515  1.00  0.00    -0.123 C  
HETATM   18  C   UNL     1      -6.838  12.417  68.209  1.00  0.00    -0.080 C  
HETATM   19  C   UNL     1      -5.654  13.039  67.432  1.00  0.00     0.011 C  
BRANCH  16  20
HETATM   20  N   UNL     1      -8.556  10.477  67.738  1.00  0.00    -0.118 NA 
HETATM   21  C   UNL     1      -9.128   9.696  66.636  1.00  0.00    -0.148 C  
BRANCH  20  22
HETATM   22  C   UNL     1      -8.087   9.508  68.752  1.00  0.00    -0.096 C  
BRANCH  22  23
HETATM   23  C   UNL     1      -8.585   8.070  68.596  1.00  0.00    -0.128 C  
HETATM   24  C   UNL     1      -7.631   6.935  69.049  1.00  0.00    -0.104 C  
HETATM   25  C   UNL     1      -8.201   5.618  68.495  1.00  0.00    -0.106 A  
HETATM   26  C   UNL     1      -7.343   6.989  70.552  1.00  0.00    -0.076 A  
HETATM   27  C   UNL     1      -7.430   4.824  67.633  1.00  0.00    -0.078 A  
HETATM   28  C   UNL     1      -8.135   6.354  71.521  1.00  0.00    -0.113 A  
HETATM   29  C   UNL     1      -8.009   3.751  66.946  1.00  0.00    -0.095 A  
HETATM   30  C   UNL     1      -7.898   6.540  72.886  1.00  0.00    -0.101 A  
HETATM   31  C   UNL     1      -6.863   7.362  73.314  1.00  0.00    -0.068 A  
HETATM   32  C   UNL     1      -9.358   3.447  67.122  1.00  0.00    -0.224 A  
HETATM   33  C   UNL     1     -10.125   4.194  68.007  1.00  0.00     0.103 A  
HETATM   34  C   UNL     1      -6.049   7.986  72.376  1.00  0.00    -0.047 A  
HETATM   35  C   UNL     1      -6.282   7.792  71.010  1.00  0.00    -0.034 A  
HETATM   36  C   UNL     1      -9.552   5.268  68.686  1.00  0.00    -0.183 A  
ENDBRANCH  22  23
ENDBRANCH  20  22
ENDBRANCH  16  20
ENDBRANCH  13  15
ENDBRANCH  11  13
BRANCH  12  37
HETATM   37  C   UNL     1     -10.110  15.393  67.950  1.00  0.00    -0.226 A  
HETATM   38  O   UNL     1     -11.818  15.223  64.178  1.00  0.00    -0.406 OA 
HETATM   39  C   UNL     1     -10.623  15.305  66.641  1.00  0.00    -0.304 A  
HETATM   40  O   UNL     1     -13.200  13.634  64.791  1.00  0.00    -0.522 OA 
HETATM   41  C   UNL     1     -11.667  13.659  68.640  1.00  0.00    -0.389 A  
HETATM   42  C   UNL     1     -11.687  14.439  66.358  1.00  0.00    -0.386 A  
HETATM   43  N   UNL     1     -12.274  14.429  65.011  1.00  0.00    -0.417 N  
HETATM   44  C   UNL     1     -12.209  13.611  67.354  1.00  0.00    -0.283 A  
HETATM   45  C   UNL     1     -10.629  14.546  68.937  1.00  0.00    -0.249 A  
ENDBRANCH  12  37
ENDBRANCH   3   5
ENDBRANCH   2   3
TORSDOF 8
ENDMDL
MODEL      195
REMARK 921   NORMALIZED FREE ENERGY PREDICTED BY IDOCK:   -2.65 KCAL/MOL
REMARK 922        TOTAL FREE ENERGY PREDICTED BY IDOCK:   -5.81 KCAL/MOL
REMARK 923 INTER-LIGAND FREE ENERGY PREDICTED BY IDOCK:   -5.91 KCAL/MOL
REMARK 924 INTRA-LIGAND FREE ENERGY PREDICTED BY IDOCK:    0.11 KCAL/MOL
REMARK 927      BINDING AFFINITY PREDICTED BY RF-SCORE:    0.00 PKD
ROOT
HETATM    1  C   UNL     1      -9.106  11.040  62.436  1.00  0.00    -0.281 C  
HETATM    2  O   UNL     1      -9.636  11.855  63.486  1.00  0.00    -0.277 OA 
ENDROOT
BRANCH   2   3
HETATM    3  C   UNL     1     -10.184  11.135  64.501  1.00  0.00    -0.324 C  
HETATM    4  O   UNL     1     -10.143   9.917  64.579  1.00  0.00    -0.145 OA 
BRANCH   3   5
HETATM    5  C   UNL     1     -10.833  12.032  65.496  1.00  0.00    -0.336 C  
HETATM    6  C   UNL     1     -11.700  12.999  65.108  1.00  0.00    -0.343 C  
HETATM    7  N   UNL     1     -12.335  13.771  66.065  1.00  0.00    -0.453 NA 
HETATM    8  C   UNL     1     -12.078  13.385  63.697  1.00  0.00    -0.513 C  
HETATM    9  C   UNL     1     -12.031  13.782  67.410  1.00  0.00    -0.388 C  
HETATM   10  C   UNL     1     -12.780  14.812  68.228  1.00  0.00     0.908 C  
HETATM   11  C   UNL     1     -11.126  12.902  67.900  1.00  0.00    -0.283 C  
HETATM   12  C   UNL     1     -10.487  11.842  66.990  1.00  0.00    -0.253 C  
BRANCH  11  13
HETATM   13  C   UNL     1     -10.723  13.041  69.324  1.00  0.00     0.074 C  
HETATM   14  O   UNL     1     -10.440  14.119  69.824  1.00  0.00     0.086 OA 
BRANCH  13  15
HETATM   15  O   UNL     1     -10.802  11.867  69.993  1.00  0.00     0.252 OA 
HETATM   16  C   UNL     1     -11.929  10.101  71.301  1.00  0.00    -0.382 C  
HETATM   17  C   UNL     1     -12.999  11.129  69.241  1.00  0.00     1.094 C  
HETATM   18  C   UNL     1     -12.110  11.415  70.463  1.00  0.00    -0.394 C  
HETATM   19  C   UNL     1     -12.787  12.423  71.420  1.00  0.00    -0.360 C  
BRANCH  16  20
HETATM   20  N   UNL     1     -11.361   8.895  70.643  1.00  0.00    -0.263 NA 
HETATM   21  C   UNL     1     -10.132   9.230  69.918  1.00  0.00    -0.209 C  
BRANCH  20  22
HETATM   22  C   UNL     1     -11.002   7.871  71.648  1.00  0.00    -0.238 C  
BRANCH  22  23
HETATM   23  C   UNL     1     -10.542   6.519  71.101  1.00  0.00    -0.271 C  
HETATM   24  C   UNL     1      -9.045   6.376  70.725  1.00  0.00    -0.151 C  
HETATM   25  C   UNL     1      -8.905   5.081  69.907  1.00  0.00    -0.130 A  
HETATM   26  C   UNL     1      -8.128   6.532  71.941  1.00  0.00    -0.104 A  
HETATM   27  C   UNL     1      -8.396   5.123  68.601  1.00  0.00    -0.088 A  
HETATM   28  C   UNL     1      -7.749   5.468  72.775  1.00  0.00    -0.098 A  
HETATM   29  C   UNL     1      -8.475   3.999  67.770  1.00  0.00    -0.102 A  
HETATM   30  C   UNL     1      -7.013   5.688  73.942  1.00  0.00    -0.082 A  
HETATM   31  C   UNL     1      -6.635   6.975  74.302  1.00  0.00    -0.082 A  
HETATM   32  C   UNL     1      -9.046   2.816  68.238  1.00  0.00    -0.227 A  
HETATM   33  C   UNL     1      -9.512   2.743  69.544  1.00  0.00    -0.147 A  
HETATM   34  C   UNL     1      -6.976   8.046  73.484  1.00  0.00    -0.145 A  
HETATM   35  C   UNL     1      -7.707   7.823  72.311  1.00  0.00    -0.115 A  
HETATM   36  C   UNL     1      -9.442   3.863  70.369  1.00  0.00    -0.252 A  
ENDBRANCH  22  23
ENDBRANCH  20  22
ENDBRANCH  16  20
ENDBRANCH  13  15
ENDBRANCH  11  13
BRANCH  12  37
HETATM   37  C   UNL     1      -8.974  11.764  67.216  1.00  0.00    -0.172 A  
HETATM   38  O   UNL     1      -7.165   8.198  68.306  1.00  0.00    -0.088 OA 
HETATM   39  C   UNL     1      -8.371  10.526  67.514  1.00  0.00    -0.118 A  
HETATM   40  O   UNL     1      -5.198   9.155  68.466  1.00  0.00    -0.034 OA 
HETATM   41  C   UNL     1      -6.801  12.832  67.429  1.00  0.00    -0.137 A  
HETATM   42  C   UNL     1      -7.007  10.461  67.821  1.00  0.00    -0.083 A  
HETATM   43  N   UNL     1      -6.414   9.178  68.223  1.00  0.00    -0.055 N  
HETATM   44  C   UNL     1      -6.217  11.613  67.776  1.00  0.00    -0.059 A  
HETATM   45  C   UNL     1      -8.170  12.908  67.157  1.00  0.00    -0.142 A  
ENDBRANCH  12  37
ENDBRANCH   3   5
ENDBRANCH   2   3
TORSDOF 8
ENDMDL
MODEL      196
REMARK 921   NORMALIZED FREE ENERGY PREDICTED BY IDOCK:   -2.65 KCAL/MOL
REMARK 922        TOTAL FREE ENERGY PREDICTED BY IDOCK:   -5.80 KCAL/MOL
REMARK 923 INTER-LIGAND FREE ENERGY PREDICTED BY IDOCK:   -6.29 KCAL/MOL
REMARK 924 INTRA-LIGAND FREE ENERGY PREDICTED BY IDOCK:    0.49 KCAL/MOL
REMARK 927      BINDING AFFINITY PREDICTED BY RF-SCORE:    0.00 PKD
ROOT
HETATM    1  C   UNL     1      -6.905   4.036  71.451  1.00  0.00    -0.031 C  
HETATM    2  O   UNL     1      -7.033   3.454  70.149  1.00  0.00    -0.034 OA 
ENDROOT
BRANCH   2   3
HETATM    3  C   UNL     1      -8.297   3.523  69.652  1.00  0.00    -0.052 C  
HETATM    4  O   UNL     1      -9.015   2.552  69.466  1.00  0.00    -0.084 OA 
BRANCH   3   5
HETATM    5  C   UNL     1      -8.679   4.933  69.371  1.00  0.00    -0.108 C  
HETATM    6  C   UNL     1      -9.619   5.566  70.115  1.00  0.00    -0.170 C  
HETATM    7  N   UNL     1      -9.903   6.898  69.868  1.00  0.00    -0.165 NA 
HETATM    8  C   UNL     1     -10.461   4.983  71.226  1.00  0.00    -0.213 C  
HETATM    9  C   UNL     1      -9.444   7.624  68.790  1.00  0.00    -0.152 C  
HETATM   10  C   UNL     1     -10.003   9.025  68.674  1.00  0.00    -0.187 C  
HETATM   11  C   UNL     1      -8.549   7.066  67.939  1.00  0.00    -0.126 C  
HETATM   12  C   UNL     1      -7.983   5.663  68.200  1.00  0.00    -0.097 C  
BRANCH  11  13
HETATM   13  C   UNL     1      -8.189   7.828  66.714  1.00  0.00    -0.120 C  
HETATM   14  O   UNL     1      -8.599   7.521  65.605  1.00  0.00    -0.145 OA 
BRANCH  13  15
HETATM   15  O   UNL     1      -7.448   8.926  66.996  1.00  0.00    -0.086 OA 
HETATM   16  C   UNL     1      -5.359  10.190  67.360  1.00  0.00    -0.041 C  
HETATM   17  C   UNL     1      -5.639   8.606  65.397  1.00  0.00    -0.046 C  
HETATM   18  C   UNL     1      -5.995   8.841  66.874  1.00  0.00    -0.057 C  
HETATM   19  C   UNL     1      -5.377   7.747  67.776  1.00  0.00    -0.032 C  
BRANCH  16  20
HETATM   20  N   UNL     1      -5.694  11.448  66.644  1.00  0.00    -0.132 NA 
HETATM   21  C   UNL     1      -6.454  11.164  65.423  1.00  0.00     0.410 C  
BRANCH  20  22
HETATM   22  C   UNL     1      -6.543  12.319  67.485  1.00  0.00    -0.141 C  
BRANCH  22  23
HETATM   23  C   UNL     1      -7.819  12.854  66.832  1.00  0.00     0.105 C  
HETATM   24  C   UNL     1      -8.566  13.999  67.565  1.00  0.00    -0.196 C  
HETATM   25  C   UNL     1      -9.952  14.125  66.910  1.00  0.00    -0.261 A  
HETATM   26  C   UNL     1      -7.722  15.273  67.656  1.00  0.00    -0.185 A  
HETATM   27  C   UNL     1     -11.113  13.964  67.680  1.00  0.00    -0.295 A  
HETATM   28  C   UNL     1      -7.705  16.270  66.669  1.00  0.00    -0.286 A  
HETATM   29  C   UNL     1     -12.365  13.851  67.064  1.00  0.00    -0.287 A  
HETATM   30  C   UNL     1      -6.821  17.350  66.746  1.00  0.00    -0.247 A  
HETATM   31  C   UNL     1      -5.937  17.461  67.811  1.00  0.00    -0.147 A  
HETATM   32  C   UNL     1     -12.476  13.914  65.676  1.00  0.00    -0.538 A  
HETATM   33  C   UNL     1     -11.342  14.121  64.901  1.00  0.00    -0.365 A  
HETATM   34  C   UNL     1      -5.948  16.500  68.816  1.00  0.00    -0.132 A  
HETATM   35  C   UNL     1      -6.838  15.423  68.742  1.00  0.00    -0.113 A  
HETATM   36  C   UNL     1     -10.094  14.225  65.512  1.00  0.00    -0.370 A  
ENDBRANCH  22  23
ENDBRANCH  20  22
ENDBRANCH  16  20
ENDBRANCH  13  15
ENDBRANCH  11  13
BRANCH  12  37
HETATM   37  C   UNL     1      -7.993   4.820  66.922  1.00  0.00    -0.103 A  
HETATM   38  O   UNL     1     -11.509   4.169  64.825  1.00  0.00    -0.198 OA 
HETATM   39  C   UNL     1      -9.185   4.673  66.185  1.00  0.00    -0.140 A  
HETATM   40  O   UNL     1     -10.496   2.866  63.380  1.00  0.00    -0.174 OA 
HETATM   41  C   UNL     1      -6.879   3.347  65.341  1.00  0.00    -0.052 A  
HETATM   42  C   UNL     1      -9.227   3.824  65.073  1.00  0.00    -0.149 A  
HETATM   43  N   UNL     1     -10.502   3.607  64.374  1.00  0.00    -0.209 N  
HETATM   44  C   UNL     1      -8.074   3.162  64.645  1.00  0.00    -0.086 A  
HETATM   45  C   UNL     1      -6.839   4.165  66.474  1.00  0.00    -0.055 A  
ENDBRANCH  12  37
ENDBRANCH   3   5
ENDBRANCH   2   3
TORSDOF 8
ENDMDL
MODEL      197
REMARK 921   NORMALIZED FREE ENERGY PREDICTED BY IDOCK:   -2.64 KCAL/MOL
REMARK 922        TOTAL FREE ENERGY PREDICTED BY IDOCK:   -5.79 KCAL/MOL
REMARK 923 INTER-LIGAND FREE ENERGY PREDICTED BY IDOCK:   -5.24 KCAL/MOL
REMARK 924 INTRA-LIGAND FREE ENERGY PREDICTED BY IDOCK:   -0.55 KCAL/MOL
REMARK 927      BINDING AFFINITY PREDICTED BY RF-SCORE:    0.00 PKD
ROOT
HETATM    1  C   UNL     1     -11.507  18.730  67.217  1.00  0.00     0.879 C  
HETATM    2  O   UNL     1     -11.014  17.514  67.790  1.00  0.00    -0.314 OA 
ENDROOT
BRANCH   2   3
HETATM    3  C   UNL     1     -10.418  16.695  66.882  1.00  0.00    -0.271 C  
HETATM    4  O   UNL     1     -10.909  16.393  65.805  1.00  0.00    -0.257 OA 
BRANCH   3   5
HETATM    5  C   UNL     1      -9.097  16.225  67.379  1.00  0.00    -0.203 C  
HETATM    6  C   UNL     1      -7.943  16.781  66.935  1.00  0.00    -0.213 C  
HETATM    7  N   UNL     1      -6.735  16.365  67.467  1.00  0.00    -0.137 NA 
HETATM    8  C   UNL     1      -7.781  17.837  65.867  1.00  0.00    -0.133 C  
HETATM    9  C   UNL     1      -6.563  15.280  68.301  1.00  0.00    -0.112 C  
HETATM   10  C   UNL     1      -5.125  14.953  68.641  1.00  0.00    -0.095 C  
HETATM   11  C   UNL     1      -7.647  14.605  68.755  1.00  0.00    -0.138 C  
HETATM   12  C   UNL     1      -9.067  15.077  68.413  1.00  0.00    -0.184 C  
BRANCH  11  13
HETATM   13  C   UNL     1      -7.413  13.360  69.533  1.00  0.00     0.501 C  
HETATM   14  O   UNL     1      -7.154  13.370  70.727  1.00  0.00     1.139 OA 
BRANCH  13  15
HETATM   15  O   UNL     1      -7.612  12.248  68.787  1.00  0.00    -0.110 OA 
HETATM   16  C   UNL     1      -7.071   9.999  67.922  1.00  0.00    -0.085 C  
HETATM   17  C   UNL     1      -6.898  10.561  70.392  1.00  0.00    -0.012 C  
HETATM   18  C   UNL     1      -6.712  11.112  68.969  1.00  0.00    -0.085 C  
HETATM   19  C   UNL     1      -5.231  11.468  68.698  1.00  0.00    -0.043 C  
BRANCH  16  20
HETATM   20  N   UNL     1      -8.421   9.380  67.958  1.00  0.00    -0.120 NA 
HETATM   21  C   UNL     1      -8.513   8.279  66.995  1.00  0.00    -0.122 C  
BRANCH  20  22
HETATM   22  C   UNL     1      -8.699   8.808  69.293  1.00  0.00    -0.135 C  
BRANCH  22  23
HETATM   23  C   UNL     1      -9.006   7.310  69.336  1.00  0.00    -0.139 C  
HETATM   24  C   UNL     1      -9.400   6.704  70.708  1.00  0.00    -0.159 C  
HETATM   25  C   UNL     1      -9.329   5.175  70.564  1.00  0.00    -0.210 A  
HETATM   26  C   UNL     1     -10.708   7.292  71.243  1.00  0.00    -0.243 A  
HETATM   27  C   UNL     1      -8.475   4.427  71.388  1.00  0.00    -0.109 A  
HETATM   28  C   UNL     1     -11.977   6.772  70.945  1.00  0.00    -0.437 A  
HETATM   29  C   UNL     1      -8.230   3.075  71.119  1.00  0.00    -0.077 A  
HETATM   30  C   UNL     1     -13.143   7.422  71.359  1.00  0.00    -0.401 A  
HETATM   31  C   UNL     1     -13.068   8.605  72.083  1.00  0.00    -0.423 A  
HETATM   32  C   UNL     1      -8.848   2.449  70.037  1.00  0.00    -0.139 A  
HETATM   33  C   UNL     1      -9.733   3.162  69.239  1.00  0.00     0.052 A  
HETATM   34  C   UNL     1     -11.824   9.132  72.412  1.00  0.00    -0.112 A  
HETATM   35  C   UNL     1     -10.658   8.475  72.004  1.00  0.00    -0.408 A  
HETATM   36  C   UNL     1      -9.971   4.510  69.500  1.00  0.00    -0.235 A  
ENDBRANCH  22  23
ENDBRANCH  20  22
ENDBRANCH  16  20
ENDBRANCH  13  15
ENDBRANCH  11  13
BRANCH  12  37
HETATM   37  C   UNL     1      -9.947  13.901  67.978  1.00  0.00    -0.241 A  
HETATM   38  O   UNL     1     -12.283  11.858  70.725  1.00  0.00    -0.376 OA 
HETATM   39  C   UNL     1     -10.789  13.269  68.915  1.00  0.00    -0.245 A  
HETATM   40  O   UNL     1     -12.968  10.436  69.202  1.00  0.00     0.338 OA 
HETATM   41  C   UNL     1     -10.678  12.303  66.298  1.00  0.00    -0.293 A  
HETATM   42  C   UNL     1     -11.519  12.131  68.551  1.00  0.00    -0.300 A  
HETATM   43  N   UNL     1     -12.317  11.427  69.565  1.00  0.00    -0.209 N  
HETATM   44  C   UNL     1     -11.470  11.647  67.242  1.00  0.00    -0.350 A  
HETATM   45  C   UNL     1      -9.918  13.418  66.664  1.00  0.00    -0.277 A  
ENDBRANCH  12  37
ENDBRANCH   3   5
ENDBRANCH   2   3
TORSDOF 8
ENDMDL
MODEL      198
REMARK 921   NORMALIZED FREE ENERGY PREDICTED BY IDOCK:   -2.64 KCAL/MOL
REMARK 922        TOTAL FREE ENERGY PREDICTED BY IDOCK:   -5.79 KCAL/MOL
REMARK 923 INTER-LIGAND FREE ENERGY PREDICTED BY IDOCK:   -6.33 KCAL/MOL
REMARK 924 INTRA-LIGAND FREE ENERGY PREDICTED BY IDOCK:    0.55 KCAL/MOL
REMARK 927      BINDING AFFINITY PREDICTED BY RF-SCORE:    0.00 PKD
ROOT
HETATM    1  C   UNL     1      -8.912  11.445  63.597  1.00  0.00     0.123 C  
HETATM    2  O   UNL     1      -8.021  10.455  64.120  1.00  0.00    -0.147 OA 
ENDROOT
BRANCH   2   3
HETATM    3  C   UNL     1      -7.806  10.577  65.457  1.00  0.00    -0.138 C  
HETATM    4  O   UNL     1      -6.989  11.337  65.954  1.00  0.00     0.038 OA 
BRANCH   3   5
HETATM    5  C   UNL     1      -8.701   9.667  66.222  1.00  0.00    -0.156 C  
HETATM    6  C   UNL     1      -8.876   8.376  65.845  1.00  0.00    -0.175 C  
HETATM    7  N   UNL     1      -9.663   7.540  66.617  1.00  0.00    -0.209 NA 
HETATM    8  C   UNL     1      -8.315   7.690  64.621  1.00  0.00    -0.005 C  
HETATM    9  C   UNL     1     -10.461   7.942  67.667  1.00  0.00    -0.234 C  
HETATM   10  C   UNL     1     -11.328   6.856  68.267  1.00  0.00     0.058 C  
HETATM   11  C   UNL     1     -10.418   9.230  68.088  1.00  0.00    -0.263 C  
HETATM   12  C   UNL     1      -9.437  10.230  67.458  1.00  0.00    -0.171 C  
BRANCH  11  13
HETATM   13  C   UNL     1     -11.394   9.654  69.125  1.00  0.00     0.071 C  
HETATM   14  O   UNL     1     -12.368  10.345  68.867  1.00  0.00    -0.129 OA 
BRANCH  13  15
HETATM   15  O   UNL     1     -11.121   9.111  70.334  1.00  0.00    -0.241 OA 
HETATM   16  C   UNL     1     -11.595   8.505  72.681  1.00  0.00    -0.214 C  
HETATM   17  C   UNL     1     -13.298   8.139  70.834  1.00  0.00     0.233 C  
HETATM   18  C   UNL     1     -12.182   9.068  71.339  1.00  0.00    -0.323 C  
HETATM   19  C   UNL     1     -12.738  10.468  71.688  1.00  0.00    -0.550 C  
BRANCH  16  20
HETATM   20  N   UNL     1     -11.038   7.128  72.706  1.00  0.00    -0.293 NA 
HETATM   21  C   UNL     1     -12.037   6.155  72.255  1.00  0.00    -0.184 C  
BRANCH  20  22
HETATM   22  C   UNL     1      -9.882   7.014  71.790  1.00  0.00    -0.162 C  
BRANCH  22  23
HETATM   23  C   UNL     1      -8.990   5.785  71.976  1.00  0.00    -0.140 C  
HETATM   24  C   UNL     1      -7.600   5.806  71.289  1.00  0.00    -0.104 C  
HETATM   25  C   UNL     1      -7.051   4.371  71.338  1.00  0.00    -0.043 A  
HETATM   26  C   UNL     1      -6.700   6.914  71.842  1.00  0.00    -0.057 A  
HETATM   27  C   UNL     1      -6.730   3.697  70.150  1.00  0.00    -0.033 A  
HETATM   28  C   UNL     1      -5.857   6.754  72.952  1.00  0.00    -0.042 A  
HETATM   29  C   UNL     1      -6.449   2.326  70.164  1.00  0.00    -0.028 A  
HETATM   30  C   UNL     1      -5.152   7.834  73.490  1.00  0.00    -0.041 A  
HETATM   31  C   UNL     1      -5.271   9.099  72.929  1.00  0.00    -0.081 A  
HETATM   32  C   UNL     1      -6.465   1.615  71.363  1.00  0.00    -0.019 A  
HETATM   33  C   UNL     1      -6.734   2.276  72.555  1.00  0.00    -0.018 A  
HETATM   34  C   UNL     1      -6.081   9.284  71.814  1.00  0.00    -0.021 A  
HETATM   35  C   UNL     1      -6.780   8.199  71.272  1.00  0.00    -0.046 A  
HETATM   36  C   UNL     1      -7.023   3.639  72.542  1.00  0.00    -0.043 A  
ENDBRANCH  22  23
ENDBRANCH  20  22
ENDBRANCH  16  20
ENDBRANCH  13  15
ENDBRANCH  11  13
BRANCH  12  37
HETATM   37  C   UNL     1     -10.132  11.559  67.147  1.00  0.00    -0.223 A  
HETATM   38  O   UNL     1      -9.322  14.959  69.375  1.00  0.00    -0.151 OA 
HETATM   39  C   UNL     1      -9.787  12.718  67.869  1.00  0.00    -0.223 A  
HETATM   40  O   UNL     1     -10.804  16.133  68.263  1.00  0.00    -0.297 OA 
HETATM   41  C   UNL     1     -11.800  12.851  65.941  1.00  0.00    -0.476 A  
HETATM   42  C   UNL     1     -10.487  13.913  67.662  1.00  0.00    -0.245 A  
HETATM   43  N   UNL     1     -10.179  15.087  68.490  1.00  0.00    -0.222 N  
HETATM   44  C   UNL     1     -11.492  13.984  66.695  1.00  0.00    -0.377 A  
HETATM   45  C   UNL     1     -11.129  11.646  66.168  1.00  0.00    -0.335 A  
ENDBRANCH  12  37
ENDBRANCH   3   5
ENDBRANCH   2   3
TORSDOF 8
ENDMDL
MODEL      199
REMARK 921   NORMALIZED FREE ENERGY PREDICTED BY IDOCK:   -2.61 KCAL/MOL
REMARK 922        TOTAL FREE ENERGY PREDICTED BY IDOCK:   -5.74 KCAL/MOL
REMARK 923 INTER-LIGAND FREE ENERGY PREDICTED BY IDOCK:   -5.46 KCAL/MOL
REMARK 924 INTRA-LIGAND FREE ENERGY PREDICTED BY IDOCK:   -0.29 KCAL/MOL
REMARK 927      BINDING AFFINITY PREDICTED BY RF-SCORE:    0.00 PKD
ROOT
HETATM    1  C   UNL     1      -7.517   6.983  63.731  1.00  0.00    -0.096 C  
HETATM    2  O   UNL     1      -7.426   5.586  64.030  1.00  0.00    -0.055 OA 
ENDROOT
BRANCH   2   3
HETATM    3  C   UNL     1      -7.055   5.335  65.314  1.00  0.00    -0.066 C  
HETATM    4  O   UNL     1      -5.928   5.004  65.650  1.00  0.00    -0.021 OA 
BRANCH   3   5
HETATM    5  C   UNL     1      -8.202   5.522  66.243  1.00  0.00    -0.111 C  
HETATM    6  C   UNL     1      -9.449   5.107  65.910  1.00  0.00    -0.156 C  
HETATM    7  N   UNL     1     -10.479   5.237  66.825  1.00  0.00    -0.270 NA 
HETATM    8  C   UNL     1      -9.899   4.504  64.600  1.00  0.00    -0.023 C  
HETATM    9  C   UNL     1     -10.407   5.933  68.012  1.00  0.00    -0.208 C  
HETATM   10  C   UNL     1     -11.709   6.039  68.775  1.00  0.00     0.951 C  
HETATM   11  C   UNL     1      -9.221   6.453  68.415  1.00  0.00    -0.120 C  
HETATM   12  C   UNL     1      -7.941   6.212  67.601  1.00  0.00    -0.106 C  
BRANCH  11  13
HETATM   13  C   UNL     1      -9.217   7.315  69.625  1.00  0.00    -0.143 C  
HETATM   14  O   UNL     1      -8.488   7.100  70.582  1.00  0.00    -0.134 OA 
BRANCH  13  15
HETATM   15  O   UNL     1     -10.031   8.387  69.490  1.00  0.00    -0.182 OA 
HETATM   16  C   UNL     1     -10.961  10.591  70.105  1.00  0.00    -0.270 C  
HETATM   17  C   UNL     1      -8.460  10.155  70.074  1.00  0.00    -0.036 C  
HETATM   18  C   UNL     1      -9.834   9.533  70.375  1.00  0.00    -0.271 C  
HETATM   19  C   UNL     1      -9.963   9.167  71.872  1.00  0.00    -0.164 C  
BRANCH  16  20
HETATM   20  N   UNL     1     -11.067  11.208  68.758  1.00  0.00    -0.214 NA 
HETATM   21  C   UNL     1     -11.871  10.369  67.864  1.00  0.00     0.744 C  
BRANCH  20  22
HETATM   22  C   UNL     1     -11.742  12.522  68.836  1.00  0.00    -0.322 C  
BRANCH  22  23
HETATM   23  C   UNL     1     -10.829  13.745  68.948  1.00  0.00    -0.268 C  
HETATM   24  C   UNL     1     -11.490  15.090  69.346  1.00  0.00    -0.320 C  
HETATM   25  C   UNL     1     -10.461  16.198  69.069  1.00  0.00    -0.261 A  
HETATM   26  C   UNL     1     -12.097  15.041  70.752  1.00  0.00    -0.377 A  
HETATM   27  C   UNL     1     -10.767  17.239  68.179  1.00  0.00    -0.363 A  
HETATM   28  C   UNL     1     -11.383  15.346  71.920  1.00  0.00    -0.466 A  
HETATM   29  C   UNL     1      -9.771  18.120  67.745  1.00  0.00    -0.294 A  
HETATM   30  C   UNL     1     -11.950  15.164  73.185  1.00  0.00    -0.470 A  
HETATM   31  C   UNL     1     -13.244  14.675  73.310  1.00  0.00    -0.411 A  
HETATM   32  C   UNL     1      -8.462  17.986  68.206  1.00  0.00    -0.293 A  
HETATM   33  C   UNL     1      -8.151  16.991  69.124  1.00  0.00    -0.052 A  
HETATM   34  C   UNL     1     -13.983  14.385  72.169  1.00  0.00    -0.607 A  
HETATM   35  C   UNL     1     -13.416  14.576  70.904  1.00  0.00    -0.266 A  
HETATM   36  C   UNL     1      -9.140  16.107  69.550  1.00  0.00    -0.029 A  
ENDBRANCH  22  23
ENDBRANCH  20  22
ENDBRANCH  16  20
ENDBRANCH  13  15
ENDBRANCH  11  13
BRANCH  12  37
HETATM   37  C   UNL     1      -7.145   7.510  67.433  1.00  0.00    -0.085 A  
HETATM   38  O   UNL     1      -8.170  10.277  64.523  1.00  0.00    -0.160 OA 
HETATM   39  C   UNL     1      -7.556   8.469  66.487  1.00  0.00    -0.088 A  
HETATM   40  O   UNL     1      -6.470  11.564  65.039  1.00  0.00     0.900 OA 
HETATM   41  C   UNL     1      -5.241   8.918  67.980  1.00  0.00    -0.035 A  
HETATM   42  C   UNL     1      -6.779   9.611  66.257  1.00  0.00    -0.076 A  
HETATM   43  N   UNL     1      -7.170  10.553  65.199  1.00  0.00    -0.075 N  
HETATM   44  C   UNL     1      -5.622   9.841  67.005  1.00  0.00    -0.046 A  
HETATM   45  C   UNL     1      -5.994   7.759  68.190  1.00  0.00    -0.040 A  
ENDBRANCH  12  37
ENDBRANCH   3   5
ENDBRANCH   2   3
TORSDOF 8
ENDMDL
MODEL      200
REMARK 921   NORMALIZED FREE ENERGY PREDICTED BY IDOCK:   -2.57 KCAL/MOL
REMARK 922        TOTAL FREE ENERGY PREDICTED BY IDOCK:   -5.69 KCAL/MOL
REMARK 923 INTER-LIGAND FREE ENERGY PREDICTED BY IDOCK:   -6.84 KCAL/MOL
REMARK 924 INTRA-LIGAND FREE ENERGY PREDICTED BY IDOCK:    1.14 KCAL/MOL
REMARK 927      BINDING AFFINITY PREDICTED BY RF-SCORE:    0.00 PKD
ROOT
HETATM    1  C   UNL     1     -11.830  16.115  72.822  1.00  0.00    -0.473 C  
HETATM    2  O   UNL     1     -11.647  14.978  71.972  1.00  0.00    -0.395 OA 
ENDROOT
BRANCH   2   3
HETATM    3  C   UNL     1     -12.793  14.576  71.358  1.00  0.00    -0.336 C  
HETATM    4  O   UNL     1     -13.890  15.071  71.562  1.00  0.00    -0.408 OA 
BRANCH   3   5
HETATM    5  C   UNL     1     -12.523  13.460  70.412  1.00  0.00    -0.322 C  
HETATM    6  C   UNL     1     -12.403  12.182  70.849  1.00  0.00    -0.273 C  
HETATM    7  N   UNL     1     -12.218  11.161  69.934  1.00  0.00    -0.321 NA 
HETATM    8  C   UNL     1     -12.428  11.692  72.278  1.00  0.00     0.970 C  
HETATM    9  C   UNL     1     -11.951  11.333  68.592  1.00  0.00    -0.243 C  
HETATM   10  C   UNL     1     -11.657  10.060  67.828  1.00  0.00     0.589 C  
HETATM   11  C   UNL     1     -11.977  12.577  68.057  1.00  0.00    -0.281 C  
HETATM   12  C   UNL     1     -12.371  13.792  68.910  1.00  0.00    -0.067 C  
BRANCH  11  13
HETATM   13  C   UNL     1     -11.546  12.734  66.644  1.00  0.00    -0.370 C  
HETATM   14  O   UNL     1     -11.769  13.746  65.997  1.00  0.00    -0.335 OA 
BRANCH  13  15
HETATM   15  O   UNL     1     -10.814  11.679  66.214  1.00  0.00    -0.267 OA 
HETATM   16  C   UNL     1      -9.284  10.480  64.690  1.00  0.00    -0.235 C  
HETATM   17  C   UNL     1      -8.827  12.860  65.447  1.00  0.00     1.185 C  
HETATM   18  C   UNL     1      -9.930  11.860  65.065  1.00  0.00    -0.248 C  
HETATM   19  C   UNL     1     -10.683  12.320  63.794  1.00  0.00    -0.494 C  
BRANCH  16  20
HETATM   20  N   UNL     1      -8.422   9.792  65.685  1.00  0.00    -0.134 NA 
HETATM   21  C   UNL     1      -8.100  10.686  66.801  1.00  0.00    -0.131 C  
BRANCH  20  22
HETATM   22  C   UNL     1      -9.119   8.620  66.260  1.00  0.00    -0.186 C  
BRANCH  22  23
HETATM   23  C   UNL     1      -9.004   8.443  67.776  1.00  0.00    -0.140 C  
HETATM   24  C   UNL     1      -9.773   7.256  68.411  1.00  0.00    -0.151 C  
HETATM   25  C   UNL     1      -9.777   7.483  69.932  1.00  0.00    -0.171 A  
HETATM   26  C   UNL     1      -9.259   5.902  67.913  1.00  0.00    -0.108 A  
HETATM   27  C   UNL     1     -10.991   7.590  70.626  1.00  0.00    -0.263 A  
HETATM   28  C   UNL     1      -8.204   5.199  68.513  1.00  0.00    -0.089 A  
HETATM   29  C   UNL     1     -11.014   8.021  71.958  1.00  0.00    -0.342 A  
HETATM   30  C   UNL     1      -7.694   4.030  67.942  1.00  0.00    -0.067 A  
HETATM   31  C   UNL     1      -8.229   3.534  66.760  1.00  0.00    -0.095 A  
HETATM   32  C   UNL     1      -9.826   8.331  72.618  1.00  0.00    -0.357 A  
HETATM   33  C   UNL     1      -8.612   8.185  71.961  1.00  0.00    -0.216 A  
HETATM   34  C   UNL     1      -9.290   4.198  66.155  1.00  0.00    -0.167 A  
HETATM   35  C   UNL     1      -9.804   5.364  66.732  1.00  0.00    -0.190 A  
HETATM   36  C   UNL     1      -8.588   7.765  70.633  1.00  0.00    -0.127 A  
ENDBRANCH  22  23
ENDBRANCH  20  22
ENDBRANCH  16  20
ENDBRANCH  13  15
ENDBRANCH  11  13
BRANCH  12  37
HETATM   37  C   UNL     1     -11.406  14.959  68.683  1.00  0.00    -0.309 A  
HETATM   38  O   UNL     1      -7.324  14.485  69.224  1.00  0.00    -0.144 OA 
HETATM   39  C   UNL     1     -10.016  14.756  68.801  1.00  0.00    -0.234 A  
HETATM   40  O   UNL     1      -6.943  16.601  68.791  1.00  0.00    -0.163 OA 
HETATM   41  C   UNL     1     -10.987  17.312  68.239  1.00  0.00    -0.188 A  
HETATM   42  C   UNL     1      -9.134  15.837  68.694  1.00  0.00    -0.204 A  
HETATM   43  N   UNL     1      -7.697  15.624  68.915  1.00  0.00    -0.166 N  
HETATM   44  C   UNL     1      -9.615  17.118  68.409  1.00  0.00    -0.281 A  
HETATM   45  C   UNL     1     -11.876  16.243  68.380  1.00  0.00     0.111 A  
ENDBRANCH  12  37
ENDBRANCH   3   5
ENDBRANCH   2   3
TORSDOF 8
ENDMDL
MODEL      201
REMARK 921   NORMALIZED FREE ENERGY PREDICTED BY IDOCK:   -2.46 KCAL/MOL
REMARK 922        TOTAL FREE ENERGY PREDICTED BY IDOCK:   -5.53 KCAL/MOL
REMARK 923 INTER-LIGAND FREE ENERGY PREDICTED BY IDOCK:   -8.67 KCAL/MOL
REMARK 924 INTRA-LIGAND FREE ENERGY PREDICTED BY IDOCK:    3.14 KCAL/MOL
REMARK 927      BINDING AFFINITY PREDICTED BY RF-SCORE:    0.00 PKD
ROOT
HETATM    1  C   UNL     1      -8.829  17.864  66.318  1.00  0.00    -0.163 C  
HETATM    2  O   UNL     1      -9.832  16.863  66.523  1.00  0.00    -0.268 OA 
ENDROOT
BRANCH   2   3
HETATM    3  C   UNL     1     -10.507  16.539  65.388  1.00  0.00    -0.269 C  
HETATM    4  O   UNL     1     -11.030  17.354  64.643  1.00  0.00    -0.959 OA 
BRANCH   3   5
HETATM    5  C   UNL     1     -10.517  15.065  65.180  1.00  0.00    -0.438 C  
HETATM    6  C   UNL     1     -11.525  14.458  64.507  1.00  0.00    -0.345 C  
HETATM    7  N   UNL     1     -11.469  13.095  64.276  1.00  0.00    -0.366 NA 
HETATM    8  C   UNL     1     -12.780  15.095  63.958  1.00  0.00     0.521 C  
HETATM    9  C   UNL     1     -10.552  12.230  64.834  1.00  0.00    -0.293 C  
HETATM   10  C   UNL     1     -10.783  10.766  64.528  1.00  0.00    -0.147 C  
HETATM   11  C   UNL     1      -9.537  12.721  65.585  1.00  0.00    -0.054 C  
HETATM   12  C   UNL     1      -9.350  14.235  65.761  1.00  0.00     0.026 C  
BRANCH  11  13
HETATM   13  C   UNL     1      -8.657  11.748  66.283  1.00  0.00    -0.062 C  
HETATM   14  O   UNL     1      -7.521  12.026  66.636  1.00  0.00    -0.034 OA 
BRANCH  13  15
HETATM   15  O   UNL     1      -9.295  10.585  66.551  1.00  0.00    -0.158 OA 
HETATM   16  C   UNL     1      -9.475   8.138  66.838  1.00  0.00    -0.191 C  
HETATM   17  C   UNL     1      -7.556   9.466  67.838  1.00  0.00    -0.087 C  
HETATM   18  C   UNL     1      -8.507   9.357  66.635  1.00  0.00    -0.126 C  
HETATM   19  C   UNL     1      -7.728   9.051  65.335  1.00  0.00    -0.095 C  
BRANCH  16  20
HETATM   20  N   UNL     1     -10.329   8.087  68.052  1.00  0.00    -0.210 NA 
HETATM   21  C   UNL     1     -11.066   6.821  68.115  1.00  0.00    -0.144 C  
BRANCH  20  22
HETATM   22  C   UNL     1      -9.503   8.163  69.277  1.00  0.00    -0.159 C  
BRANCH  22  23
HETATM   23  C   UNL     1      -9.665   7.015  70.275  1.00  0.00    -0.177 C  
HETATM   24  C   UNL     1     -10.100   7.384  71.717  1.00  0.00    -0.197 C  
HETATM   25  C   UNL     1      -9.870   6.139  72.590  1.00  0.00    -0.178 A  
HETATM   26  C   UNL     1     -11.496   8.011  71.755  1.00  0.00    -0.324 A  
HETATM   27  C   UNL     1      -9.012   6.203  73.698  1.00  0.00    -0.128 A  
HETATM   28  C   UNL     1     -12.682   7.269  71.867  1.00  0.00    -0.312 A  
HETATM   29  C   UNL     1      -8.618   5.035  74.360  1.00  0.00    -0.113 A  
HETATM   30  C   UNL     1     -13.934   7.884  71.771  1.00  0.00    -0.483 A  
HETATM   31  C   UNL     1     -14.029   9.254  71.564  1.00  0.00    -0.261 A  
HETATM   32  C   UNL     1      -9.087   3.792  73.938  1.00  0.00    -0.093 A  
HETATM   33  C   UNL     1      -9.975   3.715  72.873  1.00  0.00    -0.210 A  
HETATM   34  C   UNL     1     -12.871  10.018  71.472  1.00  0.00    -0.537 A  
HETATM   35  C   UNL     1     -11.619   9.401  71.576  1.00  0.00    -0.467 A  
HETATM   36  C   UNL     1     -10.362   4.876  72.206  1.00  0.00    -0.267 A  
ENDBRANCH  22  23
ENDBRANCH  20  22
ENDBRANCH  16  20
ENDBRANCH  13  15
ENDBRANCH  11  13
BRANCH  12  37
HETATM   37  C   UNL     1      -9.078  14.588  67.226  1.00  0.00    -0.217 A  
HETATM   38  O   UNL     1      -5.225  15.346  68.554  1.00  0.00    -0.088 OA 
HETATM   39  C   UNL     1      -7.771  14.914  67.639  1.00  0.00    -0.197 A  
HETATM   40  O   UNL     1      -5.906  15.600  70.623  1.00  0.00    -0.096 OA 
HETATM   41  C   UNL     1      -9.826  14.833  69.525  1.00  0.00    -0.003 A  
HETATM   42  C   UNL     1      -7.494  15.139  68.993  1.00  0.00    -0.161 A  
HETATM   43  N   UNL     1      -6.109  15.383  69.419  1.00  0.00    -0.114 N  
HETATM   44  C   UNL     1      -8.521  15.103  69.940  1.00  0.00     0.198 A  
HETATM   45  C   UNL     1     -10.102  14.572  68.180  1.00  0.00    -0.227 A  
ENDBRANCH  12  37
ENDBRANCH   3   5
ENDBRANCH   2   3
TORSDOF 8
ENDMDL
MODEL      202
REMARK 921   NORMALIZED FREE ENERGY PREDICTED BY IDOCK:   -2.40 KCAL/MOL
REMARK 922        TOTAL FREE ENERGY PREDICTED BY IDOCK:   -5.44 KCAL/MOL
REMARK 923 INTER-LIGAND FREE ENERGY PREDICTED BY IDOCK:   -4.76 KCAL/MOL
REMARK 924 INTRA-LIGAND FREE ENERGY PREDICTED BY IDOCK:   -0.68 KCAL/MOL
REMARK 927      BINDING AFFINITY PREDICTED BY RF-SCORE:    0.00 PKD
ROOT
HETATM    1  C   UNL     1     -10.575   4.223  70.238  1.00  0.00     0.930 C  
HETATM    2  O   UNL     1     -10.026   4.342  68.921  1.00  0.00    -0.113 OA 
ENDROOT
BRANCH   2   3
HETATM    3  C   UNL     1     -10.528   5.396  68.223  1.00  0.00    -0.120 C  
HETATM    4  O   UNL     1     -11.640   5.868  68.398  1.00  0.00     0.331 OA 
BRANCH   3   5
HETATM    5  C   UNL     1      -9.538   5.889  67.227  1.00  0.00    -0.122 C  
HETATM    6  C   UNL     1      -9.514   5.401  65.962  1.00  0.00    -0.146 C  
HETATM    7  N   UNL     1      -8.625   5.929  65.043  1.00  0.00    -0.109 NA 
HETATM    8  C   UNL     1     -10.358   4.287  65.388  1.00  0.00    -0.217 C  
HETATM    9  C   UNL     1      -7.601   6.805  65.337  1.00  0.00    -0.090 C  
HETATM   10  C   UNL     1      -6.684   7.133  64.179  1.00  0.00    -0.047 C  
HETATM   11  C   UNL     1      -7.487   7.306  66.591  1.00  0.00    -0.088 C  
HETATM   12  C   UNL     1      -8.527   6.969  67.670  1.00  0.00    -0.123 C  
BRANCH  11  13
HETATM   13  C   UNL     1      -6.291   8.132  66.902  1.00  0.00    -0.056 C  
HETATM   14  O   UNL     1      -5.157   7.777  66.620  1.00  0.00    -0.023 OA 
BRANCH  13  15
HETATM   15  O   UNL     1      -6.624   9.331  67.435  1.00  0.00    -0.063 OA 
HETATM   16  C   UNL     1      -6.974  11.775  67.418  1.00  0.00    -0.121 C  
HETATM   17  C   UNL     1      -7.819  10.289  65.541  1.00  0.00    -0.152 C  
HETATM   18  C   UNL     1      -6.683  10.497  66.556  1.00  0.00    -0.105 C  
HETATM   19  C   UNL     1      -5.341  10.779  65.841  1.00  0.00    -0.130 C  
BRANCH  16  20
HETATM   20  N   UNL     1      -8.242  11.857  68.187  1.00  0.00    -0.151 NA 
HETATM   21  C   UNL     1      -8.399  10.686  69.055  1.00  0.00    -0.152 C  
BRANCH  20  22
HETATM   22  C   UNL     1      -8.247  13.047  69.065  1.00  0.00     0.384 C  
BRANCH  22  23
HETATM   23  C   UNL     1      -8.860  14.319  68.477  1.00  0.00    -0.176 C  
HETATM   24  C   UNL     1     -10.355  14.263  68.068  1.00  0.00    -0.229 C  
HETATM   25  C   UNL     1     -10.638  15.513  67.218  1.00  0.00    -0.299 A  
HETATM   26  C   UNL     1     -11.272  14.019  69.270  1.00  0.00    -0.304 A  
HETATM   27  C   UNL     1     -11.108  15.380  65.903  1.00  0.00    -0.247 A  
HETATM   28  C   UNL     1     -11.800  15.043  70.070  1.00  0.00    -0.360 A  
HETATM   29  C   UNL     1     -11.152  16.487  65.048  1.00  0.00    -0.174 A  
HETATM   30  C   UNL     1     -12.529  14.756  71.228  1.00  0.00    -0.391 A  
HETATM   31  C   UNL     1     -12.750  13.439  71.610  1.00  0.00    -0.360 A  
HETATM   32  C   UNL     1     -10.745  17.742  65.498  1.00  0.00    -0.009 A  
HETATM   33  C   UNL     1     -10.322  17.901  66.811  1.00  0.00    -0.357 A  
HETATM   34  C   UNL     1     -12.258  12.403  70.824  1.00  0.00    -0.336 A  
HETATM   35  C   UNL     1     -11.536  12.693  69.661  1.00  0.00    -0.252 A  
HETATM   36  C   UNL     1     -10.269  16.798  67.662  1.00  0.00    -0.289 A  
ENDBRANCH  22  23
ENDBRANCH  20  22
ENDBRANCH  16  20
ENDBRANCH  13  15
ENDBRANCH  11  13
BRANCH  12  37
HETATM   37  C   UNL     1      -7.847   6.601  68.992  1.00  0.00    -0.111 A  
HETATM   38  O   UNL     1      -5.785   3.029  69.403  1.00  0.00    -0.020 OA 
HETATM   39  C   UNL     1      -7.089   5.417  69.086  1.00  0.00    -0.057 A  
HETATM   40  O   UNL     1      -5.360   3.429  71.518  1.00  0.00    -0.003 OA 
HETATM   41  C   UNL     1      -7.407   7.027  71.344  1.00  0.00    -0.080 A  
HETATM   42  C   UNL     1      -6.549   5.021  70.316  1.00  0.00    -0.035 A  
HETATM   43  N   UNL     1      -5.844   3.736  70.418  1.00  0.00    -0.017 N  
HETATM   44  C   UNL     1      -6.702   5.826  71.447  1.00  0.00    -0.061 A  
HETATM   45  C   UNL     1      -7.979   7.409  70.127  1.00  0.00    -0.112 A  
ENDBRANCH  12  37
ENDBRANCH   3   5
ENDBRANCH   2   3
TORSDOF 8
ENDMDL
MODEL      203
REMARK 921   NORMALIZED FREE ENERGY PREDICTED BY IDOCK:   -2.39 KCAL/MOL
REMARK 922        TOTAL FREE ENERGY PREDICTED BY IDOCK:   -5.42 KCAL/MOL
REMARK 923 INTER-LIGAND FREE ENERGY PREDICTED BY IDOCK:   -5.15 KCAL/MOL
REMARK 924 INTRA-LIGAND FREE ENERGY PREDICTED BY IDOCK:   -0.27 KCAL/MOL
REMARK 927      BINDING AFFINITY PREDICTED BY RF-SCORE:    0.00 PKD
ROOT
HETATM    1  C   UNL     1     -11.987  10.515  68.510  1.00  0.00     0.236 C  
HETATM    2  O   UNL     1     -11.133   9.673  69.290  1.00  0.00    -0.208 OA 
ENDROOT
BRANCH   2   3
HETATM    3  C   UNL     1     -11.426   9.692  70.618  1.00  0.00    -0.306 C  
HETATM    4  O   UNL     1     -11.564  10.712  71.276  1.00  0.00    -0.202 OA 
BRANCH   3   5
HETATM    5  C   UNL     1     -11.558   8.309  71.152  1.00  0.00    -0.310 C  
HETATM    6  C   UNL     1     -12.737   7.858  71.647  1.00  0.00    -0.330 C  
HETATM    7  N   UNL     1     -12.841   6.546  72.074  1.00  0.00    -0.183 NA 
HETATM    8  C   UNL     1     -14.020   8.636  71.823  1.00  0.00    -0.492 C  
HETATM    9  C   UNL     1     -11.786   5.671  72.223  1.00  0.00    -0.138 C  
HETATM   10  C   UNL     1     -12.143   4.332  72.831  1.00  0.00     0.459 C  
HETATM   11  C   UNL     1     -10.545   6.041  71.823  1.00  0.00    -0.277 C  
HETATM   12  C   UNL     1     -10.312   7.396  71.138  1.00  0.00    -0.209 C  
BRANCH  11  13
HETATM   13  C   UNL     1      -9.415   5.127  72.130  1.00  0.00    -0.140 C  
HETATM   14  O   UNL     1      -9.353   4.484  73.167  1.00  0.00    -0.120 OA 
BRANCH  13  15
HETATM   15  O   UNL     1      -8.542   5.032  71.100  1.00  0.00    -0.119 OA 
HETATM   16  C   UNL     1      -7.746   4.249  68.897  1.00  0.00    -0.058 C  
HETATM   17  C   UNL     1     -10.113   5.102  69.240  1.00  0.00    -0.283 C  
HETATM   18  C   UNL     1      -8.958   4.324  69.891  1.00  0.00    -0.096 C  
HETATM   19  C   UNL     1      -9.359   2.855  70.162  1.00  0.00    -0.212 C  
BRANCH  16  20
HETATM   20  N   UNL     1      -7.159   5.510  68.375  1.00  0.00    -0.068 NA 
HETATM   21  C   UNL     1      -6.321   6.152  69.392  1.00  0.00    -0.041 C  
BRANCH  20  22
HETATM   22  C   UNL     1      -6.289   5.240  67.210  1.00  0.00    -0.036 C  
BRANCH  22  23
HETATM   23  C   UNL     1      -6.994   4.780  65.933  1.00  0.00    -0.063 C  
HETATM   24  C   UNL     1      -8.305   5.511  65.542  1.00  0.00    -0.136 C  
HETATM   25  C   UNL     1      -8.981   4.670  64.446  1.00  0.00    -0.142 A  
HETATM   26  C   UNL     1      -8.070   6.992  65.236  1.00  0.00    -0.134 A  
HETATM   27  C   UNL     1     -10.274   4.163  64.643  1.00  0.00    -0.195 A  
HETATM   28  C   UNL     1      -7.728   7.482  63.967  1.00  0.00    -0.125 A  
HETATM   29  C   UNL     1     -10.809   3.217  63.762  1.00  0.00    -0.161 A  
HETATM   30  C   UNL     1      -7.403   8.827  63.772  1.00  0.00    -0.099 A  
HETATM   31  C   UNL     1      -7.414   9.715  64.840  1.00  0.00    -0.118 A  
HETATM   32  C   UNL     1     -10.069   2.779  62.665  1.00  0.00    -0.101 A  
HETATM   33  C   UNL     1      -8.806   3.306  62.428  1.00  0.00    -0.084 A  
HETATM   34  C   UNL     1      -7.772   9.262  66.105  1.00  0.00    -0.096 A  
HETATM   35  C   UNL     1      -8.105   7.917  66.297  1.00  0.00    -0.110 A  
HETATM   36  C   UNL     1      -8.269   4.241  63.310  1.00  0.00    -0.091 A  
ENDBRANCH  22  23
ENDBRANCH  20  22
ENDBRANCH  16  20
ENDBRANCH  13  15
ENDBRANCH  11  13
BRANCH  12  37
HETATM   37  C   UNL     1      -9.085   8.103  71.723  1.00  0.00    -0.229 A  
HETATM   38  O   UNL     1      -6.453  10.174  69.281  1.00  0.00    -0.044 OA 
HETATM   39  C   UNL     1      -8.245   8.862  70.885  1.00  0.00    -0.207 A  
HETATM   40  O   UNL     1      -5.133  10.640  70.970  1.00  0.00    -0.074 OA 
HETATM   41  C   UNL     1      -7.603   8.589  73.588  1.00  0.00    -0.068 A  
HETATM   42  C   UNL     1      -7.068   9.427  71.391  1.00  0.00     0.141 A  
HETATM   43  N   UNL     1      -6.155  10.134  70.482  1.00  0.00    -0.096 N  
HETATM   44  C   UNL     1      -6.746   9.296  72.744  1.00  0.00     0.517 A  
HETATM   45  C   UNL     1      -8.762   7.992  73.081  1.00  0.00    -0.300 A  
ENDBRANCH  12  37
ENDBRANCH   3   5
ENDBRANCH   2   3
TORSDOF 8
ENDMDL
MODEL      204
REMARK 921   NORMALIZED FREE ENERGY PREDICTED BY IDOCK:   -2.22 KCAL/MOL
REMARK 922        TOTAL FREE ENERGY PREDICTED BY IDOCK:   -5.17 KCAL/MOL
REMARK 923 INTER-LIGAND FREE ENERGY PREDICTED BY IDOCK:   -7.63 KCAL/MOL
REMARK 924 INTRA-LIGAND FREE ENERGY PREDICTED BY IDOCK:    2.46 KCAL/MOL
REMARK 927      BINDING AFFINITY PREDICTED BY RF-SCORE:    0.00 PKD
ROOT
HETATM    1  C   UNL     1      -6.984   5.779  72.484  1.00  0.00    -0.083 C  
HETATM    2  O   UNL     1      -6.904   6.811  71.495  1.00  0.00    -0.063 OA 
ENDROOT
BRANCH   2   3
HETATM    3  C   UNL     1      -6.977   8.064  72.019  1.00  0.00    -0.075 C  
HETATM    4  O   UNL     1      -6.987   8.308  73.215  1.00  0.00    -0.116 OA 
BRANCH   3   5
HETATM    5  C   UNL     1      -7.039   9.086  70.939  1.00  0.00    -0.098 C  
HETATM    6  C   UNL     1      -6.292  10.216  70.999  1.00  0.00     0.072 C  
HETATM    7  N   UNL     1      -6.325  11.114  69.947  1.00  0.00    -0.129 NA 
HETATM    8  C   UNL     1      -5.391  10.666  72.126  1.00  0.00     0.271 C  
HETATM    9  C   UNL     1      -7.207  11.067  68.888  1.00  0.00    -0.103 C  
HETATM   10  C   UNL     1      -7.127  12.239  67.934  1.00  0.00    -0.105 C  
HETATM   11  C   UNL     1      -8.050  10.014  68.763  1.00  0.00    -0.106 C  
HETATM   12  C   UNL     1      -7.987   8.835  69.745  1.00  0.00    -0.095 C  
BRANCH  11  13
HETATM   13  C   UNL     1      -9.078  10.071  67.691  1.00  0.00    -0.134 C  
HETATM   14  O   UNL     1      -9.368   9.102  67.006  1.00  0.00    -0.140 OA 
BRANCH  13  15
HETATM   15  O   UNL     1      -9.695  11.275  67.640  1.00  0.00    -0.168 OA 
HETATM   16  C   UNL     1     -11.567  12.820  67.185  1.00  0.00    -0.364 C  
HETATM   17  C   UNL     1     -11.916  10.614  68.392  1.00  0.00     0.108 C  
HETATM   18  C   UNL     1     -11.112  11.322  67.288  1.00  0.00    -0.305 C  
HETATM   19  C   UNL     1     -11.409  10.705  65.901  1.00  0.00     0.598 C  
BRANCH  16  20
HETATM   20  N   UNL     1     -11.480  13.688  68.388  1.00  0.00    -0.288 NA 
HETATM   21  C   UNL     1     -11.560  12.887  69.612  1.00  0.00    -0.248 C  
BRANCH  20  22
HETATM   22  C   UNL     1     -10.185  14.402  68.425  1.00  0.00    -0.243 C  
BRANCH  22  23
HETATM   23  C   UNL     1     -10.200  15.855  67.948  1.00  0.00    -0.251 C  
HETATM   24  C   UNL     1      -9.604  16.149  66.547  1.00  0.00    -0.285 C  
HETATM   25  C   UNL     1      -9.430  17.673  66.440  1.00  0.00    -0.274 A  
HETATM   26  C   UNL     1     -10.391  15.460  65.429  1.00  0.00    -0.422 A  
HETATM   27  C   UNL     1      -8.161  18.224  66.206  1.00  0.00    -0.241 A  
HETATM   28  C   UNL     1     -11.500  16.032  64.788  1.00  0.00    -0.201 A  
HETATM   29  C   UNL     1      -7.949  19.601  66.332  1.00  0.00    -0.332 A  
HETATM   30  C   UNL     1     -12.256  15.308  63.862  1.00  0.00     0.134 A  
HETATM   31  C   UNL     1     -11.920  13.996  63.554  1.00  0.00     0.042 A  
HETATM   32  C   UNL     1      -9.002  20.448  66.677  1.00  0.00    -0.296 A  
HETATM   33  C   UNL     1     -10.275  19.925  66.866  1.00  0.00    -0.600 A  
HETATM   34  C   UNL     1     -10.813  13.410  64.156  1.00  0.00    -0.313 A  
HETATM   35  C   UNL     1     -10.052  14.140  65.077  1.00  0.00    -0.326 A  
HETATM   36  C   UNL     1     -10.486  18.553  66.749  1.00  0.00    -0.432 A  
ENDBRANCH  22  23
ENDBRANCH  20  22
ENDBRANCH  16  20
ENDBRANCH  13  15
ENDBRANCH  11  13
BRANCH  12  37
HETATM   37  C   UNL     1      -9.389   8.432  70.210  1.00  0.00    -0.167 A  
HETATM   38  O   UNL     1     -11.948  11.208  71.919  1.00  0.00     0.445 OA 
HETATM   39  C   UNL     1     -10.269   9.407  70.720  1.00  0.00    -0.368 A  
HETATM   40  O   UNL     1     -13.482   9.684  72.285  1.00  0.00    -0.441 OA 
HETATM   41  C   UNL     1     -11.075   6.736  70.648  1.00  0.00    -0.338 A  
HETATM   42  C   UNL     1     -11.513   9.032  71.239  1.00  0.00    -0.320 A  
HETATM   43  N   UNL     1     -12.378  10.049  71.855  1.00  0.00    -0.335 N  
HETATM   44  C   UNL     1     -11.922   7.697  71.202  1.00  0.00    -0.319 A  
HETATM   45  C   UNL     1      -9.816   7.099  70.161  1.00  0.00    -0.180 A  
ENDBRANCH  12  37
ENDBRANCH   3   5
ENDBRANCH   2   3
TORSDOF 8
ENDMDL
MODEL      205
REMARK 921   NORMALIZED FREE ENERGY PREDICTED BY IDOCK:   -2.12 KCAL/MOL
REMARK 922        TOTAL FREE ENERGY PREDICTED BY IDOCK:   -5.02 KCAL/MOL
REMARK 923 INTER-LIGAND FREE ENERGY PREDICTED BY IDOCK:   -6.83 KCAL/MOL
REMARK 924 INTRA-LIGAND FREE ENERGY PREDICTED BY IDOCK:    1.81 KCAL/MOL
REMARK 927      BINDING AFFINITY PREDICTED BY RF-SCORE:    0.00 PKD
ROOT
HETATM    1  C   UNL     1      -7.712   4.375  73.963  1.00  0.00    -0.085 C  
HETATM    2  O   UNL     1      -7.995   5.664  73.410  1.00  0.00    -0.109 OA 
ENDROOT
BRANCH   2   3
HETATM    3  C   UNL     1      -9.312   5.850  73.127  1.00  0.00    -0.139 C  
HETATM    4  O   UNL     1     -10.163   6.110  73.963  1.00  0.00    -0.244 OA 
BRANCH   3   5
HETATM    5  C   UNL     1      -9.566   5.698  71.669  1.00  0.00    -0.184 C  
HETATM    6  C   UNL     1      -9.987   4.518  71.150  1.00  0.00    -0.187 C  
HETATM    7  N   UNL     1     -10.277   4.430  69.800  1.00  0.00    -0.031 NA 
HETATM    8  C   UNL     1     -10.178   3.208  71.878  1.00  0.00    -0.063 C  
HETATM    9  C   UNL     1     -10.001   5.401  68.861  1.00  0.00    -0.180 C  
HETATM   10  C   UNL     1     -10.295   5.011  67.429  1.00  0.00    -0.174 C  
HETATM   11  C   UNL     1      -9.512   6.600  69.260  1.00  0.00    -0.141 C  
HETATM   12  C   UNL     1      -9.330   6.918  70.751  1.00  0.00    -0.161 C  
BRANCH  11  13
HETATM   13  C   UNL     1      -9.095   7.563  68.208  1.00  0.00    -0.132 C  
HETATM   14  O   UNL     1      -8.454   7.226  67.225  1.00  0.00    -0.117 OA 
BRANCH  13  15
HETATM   15  O   UNL     1      -9.586   8.805  68.431  1.00  0.00    -0.144 OA 
HETATM   16  C   UNL     1     -10.017  11.177  67.897  1.00  0.00    -0.173 C  
HETATM   17  C   UNL     1     -10.357   9.336  66.183  1.00  0.00    -0.118 C  
HETATM   18  C   UNL     1      -9.490   9.799  67.364  1.00  0.00    -0.152 C  
HETATM   19  C   UNL     1      -8.033  10.061  66.916  1.00  0.00    -0.113 C  
BRANCH  16  20
HETATM   20  N   UNL     1     -11.429  11.287  68.347  1.00  0.00    -0.283 NA 
HETATM   21  C   UNL     1     -11.510  11.286  69.810  1.00  0.00    -0.310 C  
BRANCH  20  22
HETATM   22  C   UNL     1     -12.028  12.559  67.885  1.00  0.00    -0.223 C  
BRANCH  22  23
HETATM   23  C   UNL     1     -12.503  13.518  68.978  1.00  0.00     0.170 C  
HETATM   24  C   UNL     1     -11.415  14.181  69.863  1.00  0.00    -0.288 C  
HETATM   25  C   UNL     1     -12.135  14.814  71.065  1.00  0.00    -0.391 A  
HETATM   26  C   UNL     1     -10.486  15.089  69.052  1.00  0.00    -0.245 A  
HETATM   27  C   UNL     1     -11.810  14.419  72.371  1.00  0.00     0.180 A  
HETATM   28  C   UNL     1     -10.741  16.446  68.807  1.00  0.00    -0.321 A  
HETATM   29  C   UNL     1     -12.605  14.813  73.453  1.00  0.00    -0.556 A  
HETATM   30  C   UNL     1      -9.923  17.195  67.957  1.00  0.00    -0.295 A  
HETATM   31  C   UNL     1      -8.830  16.606  67.334  1.00  0.00    -0.198 A  
HETATM   32  C   UNL     1     -13.723  15.620  73.248  1.00  0.00    -0.330 A  
HETATM   33  C   UNL     1     -14.033  16.060  71.967  1.00  0.00     0.139 A  
HETATM   34  C   UNL     1      -8.540  15.268  67.577  1.00  0.00    -0.190 A  
HETATM   35  C   UNL     1      -9.355  14.522  68.435  1.00  0.00    -0.208 A  
HETATM   36  C   UNL     1     -13.247  15.661  70.888  1.00  0.00    -0.355 A  
ENDBRANCH  22  23
ENDBRANCH  20  22
ENDBRANCH  16  20
ENDBRANCH  13  15
ENDBRANCH  11  13
BRANCH  12  37
HETATM   37  C   UNL     1      -7.968   7.568  71.012  1.00  0.00    -0.095 A  
HETATM   38  O   UNL     1      -7.262  11.521  69.984  1.00  0.00     0.162 OA 
HETATM   39  C   UNL     1      -7.774   8.933  70.723  1.00  0.00    -0.126 A  
HETATM   40  O   UNL     1      -5.168  11.394  70.624  1.00  0.00    -0.094 OA 
HETATM   41  C   UNL     1      -5.638   7.417  71.687  1.00  0.00    -0.036 A  
HETATM   42  C   UNL     1      -6.506   9.510  70.863  1.00  0.00    -0.094 A  
HETATM   43  N   UNL     1      -6.299  10.910  70.465  1.00  0.00    -0.090 N  
HETATM   44  C   UNL     1      -5.436   8.756  71.349  1.00  0.00    -0.039 A  
HETATM   45  C   UNL     1      -6.893   6.826  71.515  1.00  0.00    -0.066 A  
ENDBRANCH  12  37
ENDBRANCH   3   5
ENDBRANCH   2   3
TORSDOF 8
ENDMDL
MODEL      206
REMARK 921   NORMALIZED FREE ENERGY PREDICTED BY IDOCK:   -2.07 KCAL/MOL
REMARK 922        TOTAL FREE ENERGY PREDICTED BY IDOCK:   -4.95 KCAL/MOL
REMARK 923 INTER-LIGAND FREE ENERGY PREDICTED BY IDOCK:   -5.34 KCAL/MOL
REMARK 924 INTRA-LIGAND FREE ENERGY PREDICTED BY IDOCK:    0.39 KCAL/MOL
REMARK 927      BINDING AFFINITY PREDICTED BY RF-SCORE:    0.00 PKD
ROOT
HETATM    1  C   UNL     1      -6.001  16.254  67.717  1.00  0.00    -0.138 C  
HETATM    2  O   UNL     1      -6.945  16.826  68.628  1.00  0.00    -0.161 OA 
ENDROOT
BRANCH   2   3
HETATM    3  C   UNL     1      -8.001  16.011  68.890  1.00  0.00    -0.212 C  
HETATM    4  O   UNL     1      -8.149  15.394  69.934  1.00  0.00    -0.137 OA 
BRANCH   3   5
HETATM    5  C   UNL     1      -8.943  15.978  67.739  1.00  0.00    -0.188 C  
HETATM    6  C   UNL     1      -9.908  16.920  67.596  1.00  0.00    -0.259 C  
HETATM    7  N   UNL     1     -10.725  16.897  66.480  1.00  0.00    -0.161 NA 
HETATM    8  C   UNL     1     -10.247  18.043  68.548  1.00  0.00    -0.392 C  
HETATM    9  C   UNL     1     -10.781  15.877  65.555  1.00  0.00    -0.372 C  
HETATM   10  C   UNL     1     -11.851  16.029  64.495  1.00  0.00    -0.027 C  
HETATM   11  C   UNL     1      -9.906  14.846  65.639  1.00  0.00    -0.372 C  
HETATM   12  C   UNL     1      -8.804  14.836  66.709  1.00  0.00    -0.281 C  
BRANCH  11  13
HETATM   13  C   UNL     1     -10.092  13.700  64.711  1.00  0.00    -0.239 C  
HETATM   14  O   UNL     1     -10.040  13.823  63.497  1.00  0.00     1.153 OA 
BRANCH  13  15
HETATM   15  O   UNL     1     -10.226  12.526  65.372  1.00  0.00    -0.277 OA 
HETATM   16  C   UNL     1     -11.470  10.623  66.337  1.00  0.00     0.742 C  
HETATM   17  C   UNL     1     -11.958  11.496  64.003  1.00  0.00    -0.126 C  
HETATM   18  C   UNL     1     -11.546  11.900  65.428  1.00  0.00    -0.223 C  
HETATM   19  C   UNL     1     -12.614  12.807  66.081  1.00  0.00     0.256 C  
BRANCH  16  20
HETATM   20  N   UNL     1     -10.574   9.506  65.942  1.00  0.00     0.174 NA 
HETATM   21  C   UNL     1      -9.245  10.009  65.583  1.00  0.00    -0.186 C  
BRANCH  20  22
HETATM   22  C   UNL     1     -10.387   8.563  67.066  1.00  0.00    -0.309 C  
BRANCH  22  23
HETATM   23  C   UNL     1     -10.074   7.114  66.687  1.00  0.00    -0.229 C  
HETATM   24  C   UNL     1      -8.969   6.391  67.500  1.00  0.00    -0.116 C  
HETATM   25  C   UNL     1      -8.613   5.105  66.735  1.00  0.00    -0.109 A  
HETATM   26  C   UNL     1      -9.346   6.238  68.977  1.00  0.00    -0.127 A  
HETATM   27  C   UNL     1      -7.300   4.889  66.292  1.00  0.00    -0.078 A  
HETATM   28  C   UNL     1     -10.068   5.150  69.489  1.00  0.00    -0.316 A  
HETATM   29  C   UNL     1      -7.011   3.845  65.406  1.00  0.00    -0.061 A  
HETATM   30  C   UNL     1     -10.493   5.124  70.820  1.00  0.00    -0.263 A  
HETATM   31  C   UNL     1     -10.202   6.183  71.671  1.00  0.00    -0.235 A  
HETATM   32  C   UNL     1      -8.024   2.994  64.965  1.00  0.00    -0.082 A  
HETATM   33  C   UNL     1      -9.321   3.165  65.430  1.00  0.00    -0.127 A  
HETATM   34  C   UNL     1      -9.467   7.264  71.197  1.00  0.00    -0.156 A  
HETATM   35  C   UNL     1      -9.037   7.284  69.866  1.00  0.00    -0.141 A  
HETATM   36  C   UNL     1      -9.612   4.209  66.306  1.00  0.00    -0.209 A  
ENDBRANCH  22  23
ENDBRANCH  20  22
ENDBRANCH  16  20
ENDBRANCH  13  15
ENDBRANCH  11  13
BRANCH  12  37
HETATM   37  C   UNL     1      -8.712  13.467  67.389  1.00  0.00    -0.209 A  
HETATM   38  O   UNL     1     -11.764  12.092  69.832  1.00  0.00    -0.314 OA 
HETATM   39  C   UNL     1      -9.793  12.988  68.155  1.00  0.00    -0.228 A  
HETATM   40  O   UNL     1     -10.651  10.268  70.327  1.00  0.00    -0.282 OA 
HETATM   41  C   UNL     1      -7.463  11.463  67.966  1.00  0.00    -0.100 A  
HETATM   42  C   UNL     1      -9.678  11.785  68.863  1.00  0.00     0.021 A  
HETATM   43  N   UNL     1     -10.778  11.349  69.733  1.00  0.00     0.022 N  
HETATM   44  C   UNL     1      -8.515  11.017  68.767  1.00  0.00    -0.144 A  
HETATM   45  C   UNL     1      -7.558  12.680  67.286  1.00  0.00    -0.121 A  
ENDBRANCH  12  37
ENDBRANCH   3   5
ENDBRANCH   2   3
TORSDOF 8
ENDMDL
MODEL      207
REMARK 921   NORMALIZED FREE ENERGY PREDICTED BY IDOCK:   -2.04 KCAL/MOL
REMARK 922        TOTAL FREE ENERGY PREDICTED BY IDOCK:   -4.91 KCAL/MOL
REMARK 923 INTER-LIGAND FREE ENERGY PREDICTED BY IDOCK:   -4.70 KCAL/MOL
REMARK 924 INTRA-LIGAND FREE ENERGY PREDICTED BY IDOCK:   -0.20 KCAL/MOL
REMARK 927      BINDING AFFINITY PREDICTED BY RF-SCORE:    0.00 PKD
ROOT
HETATM    1  C   UNL     1     -10.466  20.005  69.178  1.00  0.00     0.131 C  
HETATM    2  O   UNL     1     -10.329  18.580  69.154  1.00  0.00    -0.236 OA 
ENDROOT
BRANCH   2   3
HETATM    3  C   UNL     1     -10.067  18.087  67.914  1.00  0.00    -0.355 C  
HETATM    4  O   UNL     1     -10.759  18.301  66.930  1.00  0.00    -0.352 OA 
BRANCH   3   5
HETATM    5  C   UNL     1      -8.830  17.261  67.923  1.00  0.00    -0.235 C  
HETATM    6  C   UNL     1      -7.727  17.641  67.232  1.00  0.00    -0.204 C  
HETATM    7  N   UNL     1      -6.573  16.883  67.316  1.00  0.00    -0.155 NA 
HETATM    8  C   UNL     1      -7.580  18.835  66.318  1.00  0.00    -0.287 C  
HETATM    9  C   UNL     1      -6.477  15.640  67.905  1.00  0.00    -0.149 C  
HETATM   10  C   UNL     1      -5.136  14.957  67.750  1.00  0.00    -0.021 C  
HETATM   11  C   UNL     1      -7.543  15.128  68.568  1.00  0.00    -0.120 C  
HETATM   12  C   UNL     1      -8.832  15.946  68.735  1.00  0.00    -0.213 C  
BRANCH  11  13
HETATM   13  C   UNL     1      -7.445  13.730  69.064  1.00  0.00     0.002 C  
HETATM   14  O   UNL     1      -6.947  13.450  70.143  1.00  0.00     0.331 OA 
BRANCH  13  15
HETATM   15  O   UNL     1      -8.047  12.850  68.230  1.00  0.00    -0.143 OA 
HETATM   16  C   UNL     1      -8.144  10.914  66.701  1.00  0.00    -0.147 C  
HETATM   17  C   UNL     1      -6.907  10.810  68.915  1.00  0.00    -0.069 C  
HETATM   18  C   UNL     1      -7.273  11.717  67.729  1.00  0.00    -0.097 C  
HETATM   19  C   UNL     1      -6.010  12.149  66.948  1.00  0.00    -0.009 C  
BRANCH  16  20
HETATM   20  N   UNL     1      -9.414  10.291  67.158  1.00  0.00    -0.156 NA 
HETATM   21  C   UNL     1     -10.153   9.728  66.025  1.00  0.00    -0.251 C  
BRANCH  20  22
HETATM   22  C   UNL     1      -9.143   9.176  68.092  1.00  0.00    -0.132 C  
BRANCH  22  23
HETATM   23  C   UNL     1      -9.256   7.765  67.510  1.00  0.00    -0.147 C  
HETATM   24  C   UNL     1      -7.987   6.875  67.555  1.00  0.00    -0.112 C  
HETATM   25  C   UNL     1      -8.248   5.670  66.636  1.00  0.00    -0.105 A  
HETATM   26  C   UNL     1      -7.546   6.572  68.990  1.00  0.00    -0.100 A  
HETATM   27  C   UNL     1      -7.402   5.419  65.545  1.00  0.00    -0.073 A  
HETATM   28  C   UNL     1      -8.018   5.482  69.737  1.00  0.00    -0.090 A  
HETATM   29  C   UNL     1      -7.753   4.472  64.576  1.00  0.00    -0.081 A  
HETATM   30  C   UNL     1      -7.677   5.324  71.084  1.00  0.00    -0.101 A  
HETATM   31  C   UNL     1      -6.855   6.250  71.713  1.00  0.00    -0.065 A  
HETATM   32  C   UNL     1      -8.942   3.753  64.692  1.00  0.00    -0.125 A  
HETATM   33  C   UNL     1      -9.767   3.955  65.790  1.00  0.00    -0.169 A  
HETATM   34  C   UNL     1      -6.354   7.327  70.991  1.00  0.00    -0.036 A  
HETATM   35  C   UNL     1      -6.690   7.479  69.641  1.00  0.00    -0.040 A  
HETATM   36  C   UNL     1      -9.424   4.903  66.752  1.00  0.00    -0.154 A  
ENDBRANCH  22  23
ENDBRANCH  20  22
ENDBRANCH  16  20
ENDBRANCH  13  15
ENDBRANCH  11  13
BRANCH  12  37
HETATM   37  C   UNL     1     -10.067  15.093  68.430  1.00  0.00    -0.225 A  
HETATM   38  O   UNL     1     -11.965  12.945  71.423  1.00  0.00     0.249 OA 
HETATM   39  C   UNL     1     -10.739  14.431  69.475  1.00  0.00    -0.133 A  
HETATM   40  O   UNL     1     -13.392  12.076  70.001  1.00  0.00     1.010 OA 
HETATM   41  C   UNL     1     -11.624  14.102  66.848  1.00  0.00    -0.410 A  
HETATM   42  C   UNL     1     -11.807  13.569  69.193  1.00  0.00    -0.340 A  
HETATM   43  N   UNL     1     -12.435  12.813  70.285  1.00  0.00    -0.168 N  
HETATM   44  C   UNL     1     -12.255  13.405  67.881  1.00  0.00    -0.149 A  
HETATM   45  C   UNL     1     -10.535  14.935  67.120  1.00  0.00    -0.271 A  
ENDBRANCH  12  37
ENDBRANCH   3   5
ENDBRANCH   2   3
TORSDOF 8
ENDMDL
MODEL      208
REMARK 921   NORMALIZED FREE ENERGY PREDICTED BY IDOCK:   -2.03 KCAL/MOL
REMARK 922        TOTAL FREE ENERGY PREDICTED BY IDOCK:   -4.89 KCAL/MOL
REMARK 923 INTER-LIGAND FREE ENERGY PREDICTED BY IDOCK:   -8.39 KCAL/MOL
REMARK 924 INTRA-LIGAND FREE ENERGY PREDICTED BY IDOCK:    3.50 KCAL/MOL
REMARK 927      BINDING AFFINITY PREDICTED BY RF-SCORE:    0.00 PKD
ROOT
HETATM    1  C   UNL     1      -8.841  17.450  65.867  1.00  0.00     0.070 C  
HETATM    2  O   UNL     1      -9.927  16.642  66.333  1.00  0.00    -0.271 OA 
ENDROOT
BRANCH   2   3
HETATM    3  C   UNL     1     -10.667  16.105  65.327  1.00  0.00    -0.368 C  
HETATM    4  O   UNL     1     -11.408  16.749  64.600  1.00  0.00    -0.773 OA 
BRANCH   3   5
HETATM    5  C   UNL     1     -10.448  14.636  65.235  1.00  0.00    -0.420 C  
HETATM    6  C   UNL     1     -11.163  13.873  64.371  1.00  0.00    -0.329 C  
HETATM    7  N   UNL     1     -10.888  12.521  64.265  1.00  0.00    -0.337 NA 
HETATM    8  C   UNL     1     -12.294  14.314  63.472  1.00  0.00     0.271 C  
HETATM    9  C   UNL     1     -10.057  11.809  65.104  1.00  0.00    -0.259 C  
HETATM   10  C   UNL     1     -10.023  10.316  64.859  1.00  0.00    -0.393 C  
HETATM   11  C   UNL     1      -9.341  12.461  66.052  1.00  0.00    -0.116 C  
HETATM   12  C   UNL     1      -9.388  13.993  66.156  1.00  0.00    -0.143 C  
BRANCH  11  13
HETATM   13  C   UNL     1      -8.570  11.644  67.024  1.00  0.00    -0.169 C  
HETATM   14  O   UNL     1      -7.864  12.143  67.887  1.00  0.00    -0.126 OA 
BRANCH  13  15
HETATM   15  O   UNL     1      -8.820  10.320  66.889  1.00  0.00    -0.132 OA 
HETATM   16  C   UNL     1      -8.229   7.927  66.756  1.00  0.00    -0.116 C  
HETATM   17  C   UNL     1      -7.252   9.450  68.537  1.00  0.00    -0.072 C  
HETATM   18  C   UNL     1      -7.721   9.376  67.074  1.00  0.00    -0.091 C  
HETATM   19  C   UNL     1      -6.545   9.623  66.100  1.00  0.00    -0.078 C  
BRANCH  16  20
HETATM   20  N   UNL     1      -9.325   7.348  67.577  1.00  0.00    -0.129 NA 
HETATM   21  C   UNL     1      -9.693   6.016  67.086  1.00  0.00    -0.131 C  
BRANCH  20  22
HETATM   22  C   UNL     1      -8.895   7.184  68.982  1.00  0.00    -0.131 C  
BRANCH  22  23
HETATM   23  C   UNL     1      -9.946   7.491  70.051  1.00  0.00    -0.186 C  
HETATM   24  C   UNL     1     -10.982   6.382  70.368  1.00  0.00    -0.367 C  
HETATM   25  C   UNL     1     -12.101   7.032  71.198  1.00  0.00    -0.412 A  
HETATM   26  C   UNL     1     -10.325   5.127  70.949  1.00  0.00    -0.282 A  
HETATM   27  C   UNL     1     -13.426   7.013  70.737  1.00  0.00     0.316 A  
HETATM   28  C   UNL     1     -10.089   4.933  72.319  1.00  0.00    -0.247 A  
HETATM   29  C   UNL     1     -14.408   7.790  71.361  1.00  0.00    -0.513 A  
HETATM   30  C   UNL     1      -9.373   3.826  72.782  1.00  0.00    -0.143 A  
HETATM   31  C   UNL     1      -8.878   2.885  71.887  1.00  0.00    -0.116 A  
HETATM   32  C   UNL     1     -14.086   8.581  72.463  1.00  0.00    -0.322 A  
HETATM   33  C   UNL     1     -12.790   8.575  72.962  1.00  0.00     0.386 A  
HETATM   34  C   UNL     1      -9.116   3.040  70.526  1.00  0.00    -0.190 A  
HETATM   35  C   UNL     1      -9.840   4.145  70.065  1.00  0.00    -0.245 A  
HETATM   36  C   UNL     1     -11.809   7.809  72.337  1.00  0.00    -0.371 A  
ENDBRANCH  22  23
ENDBRANCH  20  22
ENDBRANCH  16  20
ENDBRANCH  13  15
ENDBRANCH  11  13
BRANCH  12  37
HETATM   37  C   UNL     1      -9.557  14.439  67.612  1.00  0.00    -0.214 A  
HETATM   38  O   UNL     1     -13.035  13.603  69.706  1.00  0.00     0.182 OA 
HETATM   39  C   UNL     1     -10.716  14.080  68.327  1.00  0.00    -0.262 A  
HETATM   40  O   UNL     1     -12.324  14.692  71.472  1.00  0.00    -0.320 OA 
HETATM   41  C   UNL     1      -8.785  15.676  69.556  1.00  0.00    -0.199 A  
HETATM   42  C   UNL     1     -10.925  14.567  69.623  1.00  0.00    -0.193 A  
HETATM   43  N   UNL     1     -12.183  14.262  70.318  1.00  0.00    -0.322 N  
HETATM   44  C   UNL     1      -9.959  15.363  70.243  1.00  0.00     0.033 A  
HETATM   45  C   UNL     1      -8.587  15.222  68.249  1.00  0.00    -0.159 A  
ENDBRANCH  12  37
ENDBRANCH   3   5
ENDBRANCH   2   3
TORSDOF 8
ENDMDL
MODEL      209
REMARK 921   NORMALIZED FREE ENERGY PREDICTED BY IDOCK:   -2.02 KCAL/MOL
REMARK 922        TOTAL FREE ENERGY PREDICTED BY IDOCK:   -4.87 KCAL/MOL
REMARK 923 INTER-LIGAND FREE ENERGY PREDICTED BY IDOCK:   -6.69 KCAL/MOL
REMARK 924 INTRA-LIGAND FREE ENERGY PREDICTED BY IDOCK:    1.82 KCAL/MOL
REMARK 927      BINDING AFFINITY PREDICTED BY RF-SCORE:    0.00 PKD
ROOT
HETATM    1  C   UNL     1     -10.311  18.890  67.501  1.00  0.00    -0.426 C  
HETATM    2  O   UNL     1     -10.824  17.642  67.022  1.00  0.00    -0.225 OA 
ENDROOT
BRANCH   2   3
HETATM    3  C   UNL     1      -9.920  16.936  66.290  1.00  0.00    -0.309 C  
HETATM    4  O   UNL     1      -8.851  17.382  65.905  1.00  0.00    -0.526 OA 
BRANCH   3   5
HETATM    5  C   UNL     1     -10.413  15.556  66.029  1.00  0.00    -0.335 C  
HETATM    6  C   UNL     1     -11.211  15.286  64.967  1.00  0.00    -0.403 C  
HETATM    7  N   UNL     1     -11.597  13.981  64.718  1.00  0.00    -0.363 NA 
HETATM    8  C   UNL     1     -11.784  16.267  63.972  1.00  0.00     0.480 C  
HETATM    9  C   UNL     1     -11.397  12.914  65.569  1.00  0.00    -0.307 C  
HETATM   10  C   UNL     1     -12.029  11.612  65.126  1.00  0.00     0.187 C  
HETATM   11  C   UNL     1     -10.669  13.085  66.699  1.00  0.00    -0.285 C  
HETATM   12  C   UNL     1     -10.001  14.433  67.007  1.00  0.00    -0.257 C  
BRANCH  11  13
HETATM   13  C   UNL     1     -10.597  11.951  67.656  1.00  0.00    -0.211 C  
HETATM   14  O   UNL     1     -11.357  11.845  68.607  1.00  0.00    -0.228 OA 
BRANCH  13  15
HETATM   15  O   UNL     1      -9.671  11.033  67.291  1.00  0.00    -0.164 OA 
HETATM   16  C   UNL     1      -7.421  10.017  67.230  1.00  0.00    -0.091 C  
HETATM   17  C   UNL     1      -8.466  10.826  69.398  1.00  0.00     0.000 C  
HETATM   18  C   UNL     1      -8.341  11.104  67.891  1.00  0.00    -0.129 C  
HETATM   19  C   UNL     1      -7.634  12.454  67.630  1.00  0.00    -0.141 C  
BRANCH  16  20
HETATM   20  N   UNL     1      -7.786   8.583  67.362  1.00  0.00    -0.097 NA 
HETATM   21  C   UNL     1      -6.588   7.758  67.549  1.00  0.00    -0.063 C  
BRANCH  20  22
HETATM   22  C   UNL     1      -8.644   8.368  68.547  1.00  0.00    -0.136 C  
BRANCH  22  23
HETATM   23  C   UNL     1      -7.985   7.678  69.743  1.00  0.00    -0.116 C  
HETATM   24  C   UNL     1      -8.439   8.122  71.157  1.00  0.00    -0.146 C  
HETATM   25  C   UNL     1      -7.423   7.548  72.159  1.00  0.00    -0.080 A  
HETATM   26  C   UNL     1      -9.917   7.814  71.413  1.00  0.00    -0.207 A  
HETATM   27  C   UNL     1      -6.702   8.405  73.003  1.00  0.00    -0.106 A  
HETATM   28  C   UNL     1     -10.382   6.597  71.933  1.00  0.00    -0.219 A  
HETATM   29  C   UNL     1      -5.621   7.923  73.750  1.00  0.00    -0.053 A  
HETATM   30  C   UNL     1     -11.749   6.323  72.027  1.00  0.00    -0.374 A  
HETATM   31  C   UNL     1     -12.684   7.262  71.608  1.00  0.00    -0.410 A  
HETATM   32  C   UNL     1      -5.258   6.579  73.680  1.00  0.00    -0.041 A  
HETATM   33  C   UNL     1      -5.992   5.706  72.886  1.00  0.00    -0.036 A  
HETATM   34  C   UNL     1     -12.253   8.486  71.110  1.00  0.00    -0.260 A  
HETATM   35  C   UNL     1     -10.883   8.761  71.023  1.00  0.00    -0.321 A  
HETATM   36  C   UNL     1      -7.062   6.186  72.134  1.00  0.00    -0.083 A  
ENDBRANCH  22  23
ENDBRANCH  20  22
ENDBRANCH  16  20
ENDBRANCH  13  15
ENDBRANCH  11  13
BRANCH  12  37
HETATM   37  C   UNL     1     -10.232  14.839  68.466  1.00  0.00    -0.232 A  
HETATM   38  O   UNL     1     -13.639  13.639  70.498  1.00  0.00     0.300 OA 
HETATM   39  C   UNL     1     -11.360  14.358  69.159  1.00  0.00    -0.308 A  
HETATM   40  O   UNL     1     -13.061  14.765  72.289  1.00  0.00    -0.314 OA 
HETATM   41  C   UNL     1      -9.610  16.116  70.438  1.00  0.00     1.145 A  
HETATM   42  C   UNL     1     -11.633  14.804  70.458  1.00  0.00    -0.279 A  
HETATM   43  N   UNL     1     -12.864  14.368  71.131  1.00  0.00    -0.329 N  
HETATM   44  C   UNL     1     -10.757  15.680  71.103  1.00  0.00     0.056 A  
HETATM   45  C   UNL     1      -9.352  15.703  69.128  1.00  0.00    -0.252 A  
ENDBRANCH  12  37
ENDBRANCH   3   5
ENDBRANCH   2   3
TORSDOF 8
ENDMDL
MODEL      210
REMARK 921   NORMALIZED FREE ENERGY PREDICTED BY IDOCK:   -2.01 KCAL/MOL
REMARK 922        TOTAL FREE ENERGY PREDICTED BY IDOCK:   -4.86 KCAL/MOL
REMARK 923 INTER-LIGAND FREE ENERGY PREDICTED BY IDOCK:   -6.27 KCAL/MOL
REMARK 924 INTRA-LIGAND FREE ENERGY PREDICTED BY IDOCK:    1.41 KCAL/MOL
REMARK 927      BINDING AFFINITY PREDICTED BY RF-SCORE:    0.00 PKD
ROOT
HETATM    1  C   UNL     1      -7.682   4.374  73.974  1.00  0.00    -0.085 C  
HETATM    2  O   UNL     1      -7.948   5.672  73.433  1.00  0.00    -0.109 OA 
ENDROOT
BRANCH   2   3
HETATM    3  C   UNL     1      -9.270   5.903  73.214  1.00  0.00    -0.132 C  
HETATM    4  O   UNL     1     -10.073   6.177  74.093  1.00  0.00    -0.232 OA 
BRANCH   3   5
HETATM    5  C   UNL     1      -9.598   5.778  71.768  1.00  0.00    -0.178 C  
HETATM    6  C   UNL     1     -10.072   4.616  71.254  1.00  0.00    -0.175 C  
HETATM    7  N   UNL     1     -10.428   4.555  69.919  1.00  0.00     0.191 NA 
HETATM    8  C   UNL     1     -10.260   3.300  71.973  1.00  0.00    -0.109 C  
HETATM    9  C   UNL     1     -10.172   5.533  68.980  1.00  0.00    -0.228 C  
HETATM   10  C   UNL     1     -10.544   5.171  67.559  1.00  0.00    -0.085 C  
HETATM   11  C   UNL     1      -9.635   6.713  69.371  1.00  0.00    -0.148 C  
HETATM   12  C   UNL     1      -9.375   7.005  70.857  1.00  0.00    -0.157 C  
BRANCH  11  13
HETATM   13  C   UNL     1      -9.245   7.682  68.314  1.00  0.00    -0.139 C  
HETATM   14  O   UNL     1      -8.688   7.339  67.282  1.00  0.00    -0.120 OA 
BRANCH  13  15
HETATM   15  O   UNL     1      -9.661   8.939  68.596  1.00  0.00    -0.150 OA 
HETATM   16  C   UNL     1     -10.077  11.326  68.117  1.00  0.00    -0.182 C  
HETATM   17  C   UNL     1     -10.701   9.501  66.466  1.00  0.00    -0.031 C  
HETATM   18  C   UNL     1      -9.671   9.931  67.523  1.00  0.00    -0.160 C  
HETATM   19  C   UNL     1      -8.277  10.145  66.888  1.00  0.00    -0.122 C  
BRANCH  16  20
HETATM   20  N   UNL     1     -11.414  11.483  68.747  1.00  0.00    -0.258 NA 
HETATM   21  C   UNL     1     -11.323  11.333  70.202  1.00  0.00    -0.164 C  
BRANCH  20  22
HETATM   22  C   UNL     1     -11.959  12.833  68.487  1.00  0.00    -0.225 C  
BRANCH  22  23
HETATM   23  C   UNL     1     -10.957  13.988  68.538  1.00  0.00    -0.274 C  
HETATM   24  C   UNL     1      -9.933  14.091  67.377  1.00  0.00    -0.243 C  
HETATM   25  C   UNL     1      -8.854  15.095  67.815  1.00  0.00    -0.171 A  
HETATM   26  C   UNL     1     -10.613  14.344  66.029  1.00  0.00    -0.304 A  
HETATM   27  C   UNL     1      -7.511  14.700  67.890  1.00  0.00    -0.158 A  
HETATM   28  C   UNL     1     -10.909  15.623  65.532  1.00  0.00    -0.356 A  
HETATM   29  C   UNL     1      -6.559  15.526  68.499  1.00  0.00    -0.109 A  
HETATM   30  C   UNL     1     -11.642  15.792  64.355  1.00  0.00    -0.240 A  
HETATM   31  C   UNL     1     -12.094  14.687  63.644  1.00  0.00     0.332 A  
HETATM   32  C   UNL     1      -6.931  16.763  69.023  1.00  0.00    -0.218 A  
HETATM   33  C   UNL     1      -8.248  17.191  68.914  1.00  0.00    -0.192 A  
HETATM   34  C   UNL     1     -11.796  13.408  64.100  1.00  0.00    -0.492 A  
HETATM   35  C   UNL     1     -11.056  13.241  65.275  1.00  0.00    -0.306 A  
HETATM   36  C   UNL     1      -9.199  16.366  68.317  1.00  0.00    -0.207 A  
ENDBRANCH  22  23
ENDBRANCH  20  22
ENDBRANCH  16  20
ENDBRANCH  13  15
ENDBRANCH  11  13
BRANCH  12  37
HETATM   37  C   UNL     1      -7.986   7.618  71.061  1.00  0.00    -0.094 A  
HETATM   38  O   UNL     1      -7.267  11.604  70.182  1.00  0.00     0.313 OA 
HETATM   39  C   UNL     1      -7.783   8.993  70.826  1.00  0.00    -0.144 A  
HETATM   40  O   UNL     1      -5.140  11.410  70.680  1.00  0.00    -0.086 OA 
HETATM   41  C   UNL     1      -5.621   7.394  71.576  1.00  0.00    -0.036 A  
HETATM   42  C   UNL     1      -6.498   9.540  70.912  1.00  0.00    -0.094 A  
HETATM   43  N   UNL     1      -6.288  10.954  70.570  1.00  0.00    -0.090 N  
HETATM   44  C   UNL     1      -5.414   8.745  71.291  1.00  0.00    -0.037 A  
HETATM   45  C   UNL     1      -6.897   6.834  71.457  1.00  0.00    -0.066 A  
ENDBRANCH  12  37
ENDBRANCH   3   5
ENDBRANCH   2   3
TORSDOF 8
ENDMDL
MODEL      211
REMARK 921   NORMALIZED FREE ENERGY PREDICTED BY IDOCK:   -1.96 KCAL/MOL
REMARK 922        TOTAL FREE ENERGY PREDICTED BY IDOCK:   -4.79 KCAL/MOL
REMARK 923 INTER-LIGAND FREE ENERGY PREDICTED BY IDOCK:   -5.45 KCAL/MOL
REMARK 924 INTRA-LIGAND FREE ENERGY PREDICTED BY IDOCK:    0.66 KCAL/MOL
REMARK 927      BINDING AFFINITY PREDICTED BY RF-SCORE:    0.00 PKD
ROOT
HETATM    1  C   UNL     1     -12.222  15.235  67.455  1.00  0.00     0.514 C  
HETATM    2  O   UNL     1     -12.617  14.758  66.165  1.00  0.00    -0.045 OA 
ENDROOT
BRANCH   2   3
HETATM    3  C   UNL     1     -11.600  14.747  65.261  1.00  0.00    -0.338 C  
HETATM    4  O   UNL     1     -11.261  15.715  64.599  1.00  0.00    -0.435 OA 
BRANCH   3   5
HETATM    5  C   UNL     1     -10.964  13.403  65.197  1.00  0.00    -0.315 C  
HETATM    6  C   UNL     1     -11.663  12.314  64.792  1.00  0.00    -0.358 C  
HETATM    7  N   UNL     1     -11.023  11.093  64.682  1.00  0.00    -0.234 NA 
HETATM    8  C   UNL     1     -13.131  12.241  64.442  1.00  0.00     0.005 C  
HETATM    9  C   UNL     1      -9.748  10.819  65.129  1.00  0.00    -0.265 C  
HETATM   10  C   UNL     1      -9.323   9.371  65.010  1.00  0.00    -0.258 C  
HETATM   11  C   UNL     1      -8.979  11.821  65.619  1.00  0.00     0.045 C  
HETATM   12  C   UNL     1      -9.482  13.272  65.614  1.00  0.00     0.094 C  
BRANCH  11  13
HETATM   13  C   UNL     1      -7.668  11.460  66.220  1.00  0.00     0.005 C  
HETATM   14  O   UNL     1      -6.859  12.300  66.585  1.00  0.00     0.083 OA 
BRANCH  13  15
HETATM   15  O   UNL     1      -7.537  10.124  66.390  1.00  0.00    -0.101 OA 
HETATM   16  C   UNL     1      -7.002   8.063  67.641  1.00  0.00    -0.075 C  
HETATM   17  C   UNL     1      -8.387   9.928  68.664  1.00  0.00    -0.110 C  
HETATM   18  C   UNL     1      -7.213   9.615  67.721  1.00  0.00    -0.085 C  
HETATM   19  C   UNL     1      -5.886  10.183  68.276  1.00  0.00    -0.041 C  
BRANCH  16  20
HETATM   20  N   UNL     1      -8.130   7.200  67.205  1.00  0.00    -0.114 NA 
HETATM   21  C   UNL     1      -7.640   5.895  66.751  1.00  0.00    -0.099 C  
BRANCH  20  22
HETATM   22  C   UNL     1      -9.057   6.944  68.329  1.00  0.00    -0.125 C  
BRANCH  22  23
HETATM   23  C   UNL     1      -8.562   5.977  69.407  1.00  0.00    -0.122 C  
HETATM   24  C   UNL     1      -8.550   6.491  70.870  1.00  0.00    -0.135 C  
HETATM   25  C   UNL     1      -7.719   5.492  71.692  1.00  0.00    -0.107 A  
HETATM   26  C   UNL     1      -9.957   6.811  71.381  1.00  0.00    -0.191 A  
HETATM   27  C   UNL     1      -6.578   5.923  72.384  1.00  0.00    -0.067 A  
HETATM   28  C   UNL     1     -10.797   5.869  71.995  1.00  0.00    -0.303 A  
HETATM   29  C   UNL     1      -5.692   4.996  72.944  1.00  0.00    -0.021 A  
HETATM   30  C   UNL     1     -12.117   6.184  72.328  1.00  0.00    -0.237 A  
HETATM   31  C   UNL     1     -12.628   7.447  72.058  1.00  0.00    -0.262 A  
HETATM   32  C   UNL     1      -5.942   3.629  72.837  1.00  0.00    -0.008 A  
HETATM   33  C   UNL     1      -7.092   3.185  72.197  1.00  0.00    -0.038 A  
HETATM   34  C   UNL     1     -11.812   8.407  71.471  1.00  0.00    -0.345 A  
HETATM   35  C   UNL     1     -10.488   8.093  71.145  1.00  0.00    -0.238 A  
HETATM   36  C   UNL     1      -7.971   4.107  71.631  1.00  0.00    -0.082 A  
ENDBRANCH  22  23
ENDBRANCH  20  22
ENDBRANCH  16  20
ENDBRANCH  13  15
ENDBRANCH  11  13
BRANCH  12  37
HETATM   37  C   UNL     1      -9.209  13.952  66.959  1.00  0.00    -0.257 A  
HETATM   38  O   UNL     1      -6.714  17.252  67.212  1.00  0.00    -0.141 OA 
HETATM   39  C   UNL     1      -8.418  15.116  67.011  1.00  0.00    -0.259 A  
HETATM   40  O   UNL     1      -6.916  17.334  69.395  1.00  0.00    -0.225 OA 
HETATM   41  C   UNL     1      -9.404  14.020  69.381  1.00  0.00     0.546 A  
HETATM   42  C   UNL     1      -8.080  15.685  68.245  1.00  0.00    -0.134 A  
HETATM   43  N   UNL     1      -7.175  16.842  68.286  1.00  0.00    -0.179 N  
HETATM   44  C   UNL     1      -8.575  15.143  69.433  1.00  0.00    -0.172 A  
HETATM   45  C   UNL     1      -9.715  13.426  68.155  1.00  0.00    -0.226 A  
ENDBRANCH  12  37
ENDBRANCH   3   5
ENDBRANCH   2   3
TORSDOF 8
ENDMDL
MODEL      212
REMARK 921   NORMALIZED FREE ENERGY PREDICTED BY IDOCK:   -1.95 KCAL/MOL
REMARK 922        TOTAL FREE ENERGY PREDICTED BY IDOCK:   -4.78 KCAL/MOL
REMARK 923 INTER-LIGAND FREE ENERGY PREDICTED BY IDOCK:   -3.71 KCAL/MOL
REMARK 924 INTRA-LIGAND FREE ENERGY PREDICTED BY IDOCK:   -1.07 KCAL/MOL
REMARK 927      BINDING AFFINITY PREDICTED BY RF-SCORE:    0.00 PKD
ROOT
HETATM    1  C   UNL     1      -6.974  10.211  63.579  1.00  0.00    -0.116 C  
HETATM    2  O   UNL     1      -7.493  10.345  64.907  1.00  0.00    -0.137 OA 
ENDROOT
BRANCH   2   3
HETATM    3  C   UNL     1      -8.638   9.639  65.109  1.00  0.00    -0.157 C  
HETATM    4  O   UNL     1      -8.737   8.432  64.954  1.00  0.00    -0.134 OA 
BRANCH   3   5
HETATM    5  C   UNL     1      -9.743  10.536  65.545  1.00  0.00    -0.298 C  
HETATM    6  C   UNL     1     -10.639  11.029  64.654  1.00  0.00    -0.299 C  
HETATM    7  N   UNL     1     -11.691  11.807  65.104  1.00  0.00    -0.169 NA 
HETATM    8  C   UNL     1     -10.638  10.853  63.154  1.00  0.00     0.052 C  
HETATM    9  C   UNL     1     -11.827  12.301  66.384  1.00  0.00    -0.311 C  
HETATM   10  C   UNL     1     -12.999  13.236  66.590  1.00  0.00     1.147 C  
HETATM   11  C   UNL     1     -10.947  11.928  67.344  1.00  0.00    -0.315 C  
HETATM   12  C   UNL     1      -9.842  10.904  67.042  1.00  0.00    -0.214 C  
BRANCH  11  13
HETATM   13  C   UNL     1     -11.044  12.591  68.670  1.00  0.00    -0.265 C  
HETATM   14  O   UNL     1     -11.217  13.794  68.792  1.00  0.00    -0.244 OA 
BRANCH  13  15
HETATM   15  O   UNL     1     -11.012  11.700  69.689  1.00  0.00    -0.165 OA 
HETATM   16  C   UNL     1     -11.959  10.393  71.558  1.00  0.00    -0.209 C  
HETATM   17  C   UNL     1     -13.164  10.614  69.334  1.00  0.00     1.522 C  
HETATM   18  C   UNL     1     -12.267  11.343  70.348  1.00  0.00    -0.362 C  
HETATM   19  C   UNL     1     -12.994  12.564  70.958  1.00  0.00    -0.154 C  
BRANCH  16  20
HETATM   20  N   UNL     1     -11.317   9.078  71.301  1.00  0.00    -0.292 NA 
HETATM   21  C   UNL     1     -12.263   7.984  71.540  1.00  0.00    -0.299 C  
BRANCH  20  22
HETATM   22  C   UNL     1     -10.886   8.973  69.891  1.00  0.00    -0.218 C  
BRANCH  22  23
HETATM   23  C   UNL     1     -10.368   7.605  69.442  1.00  0.00    -0.214 C  
HETATM   24  C   UNL     1      -8.831   7.411  69.385  1.00  0.00    -0.137 C  
HETATM   25  C   UNL     1      -8.568   6.111  68.607  1.00  0.00    -0.113 A  
HETATM   26  C   UNL     1      -8.182   7.536  70.766  1.00  0.00    -0.110 A  
HETATM   27  C   UNL     1      -7.798   6.134  67.435  1.00  0.00    -0.098 A  
HETATM   28  C   UNL     1      -8.021   6.462  71.654  1.00  0.00    -0.102 A  
HETATM   29  C   UNL     1      -7.741   5.013  66.599  1.00  0.00    -0.092 A  
HETATM   30  C   UNL     1      -7.537   6.657  72.950  1.00  0.00    -0.095 A  
HETATM   31  C   UNL     1      -7.199   7.932  73.388  1.00  0.00    -0.136 A  
HETATM   32  C   UNL     1      -8.436   3.850  66.930  1.00  0.00    -0.104 A  
HETATM   33  C   UNL     1      -9.165   3.794  68.111  1.00  0.00    -0.214 A  
HETATM   34  C   UNL     1      -7.326   9.012  72.523  1.00  0.00     0.360 A  
HETATM   35  C   UNL     1      -7.804   8.813  71.223  1.00  0.00    -0.167 A  
HETATM   36  C   UNL     1      -9.231   4.913  68.940  1.00  0.00    -0.164 A  
ENDBRANCH  22  23
ENDBRANCH  20  22
ENDBRANCH  16  20
ENDBRANCH  13  15
ENDBRANCH  11  13
BRANCH  12  37
HETATM   37  C   UNL     1      -8.495  11.370  67.602  1.00  0.00    -0.130 A  
HETATM   38  O   UNL     1      -6.980  15.114  66.670  1.00  0.00     0.160 OA 
HETATM   39  C   UNL     1      -8.034  12.674  67.332  1.00  0.00    -0.177 A  
HETATM   40  O   UNL     1      -5.134  14.732  67.791  1.00  0.00    -0.250 OA 
HETATM   41  C   UNL     1      -6.433  10.933  68.814  1.00  0.00    -0.053 A  
HETATM   42  C   UNL     1      -6.761  13.074  67.754  1.00  0.00    -0.143 A  
HETATM   43  N   UNL     1      -6.258  14.404  67.381  1.00  0.00     0.059 N  
HETATM   44  C   UNL     1      -5.958  12.207  68.499  1.00  0.00    -0.053 A  
HETATM   45  C   UNL     1      -7.689  10.515  68.364  1.00  0.00    -0.104 A  
ENDBRANCH  12  37
ENDBRANCH   3   5
ENDBRANCH   2   3
TORSDOF 8
ENDMDL
MODEL      213
REMARK 921   NORMALIZED FREE ENERGY PREDICTED BY IDOCK:   -1.93 KCAL/MOL
REMARK 922        TOTAL FREE ENERGY PREDICTED BY IDOCK:   -4.75 KCAL/MOL
REMARK 923 INTER-LIGAND FREE ENERGY PREDICTED BY IDOCK:   -8.19 KCAL/MOL
REMARK 924 INTRA-LIGAND FREE ENERGY PREDICTED BY IDOCK:    3.44 KCAL/MOL
REMARK 927      BINDING AFFINITY PREDICTED BY RF-SCORE:    0.00 PKD
ROOT
HETATM    1  C   UNL     1      -8.316  17.999  66.003  1.00  0.00    -0.033 C  
HETATM    2  O   UNL     1      -9.302  17.086  66.498  1.00  0.00    -0.247 OA 
ENDROOT
BRANCH   2   3
HETATM    3  C   UNL     1     -10.293  16.828  65.603  1.00  0.00    -0.265 C  
HETATM    4  O   UNL     1     -11.015  17.682  65.114  1.00  0.00    -0.651 OA 
BRANCH   3   5
HETATM    5  C   UNL     1     -10.371  15.372  65.305  1.00  0.00    -0.420 C  
HETATM    6  C   UNL     1     -11.258  14.888  64.401  1.00  0.00    -0.160 C  
HETATM    7  N   UNL     1     -11.258  13.537  64.101  1.00  0.00    -0.360 NA 
HETATM    8  C   UNL     1     -12.317  15.658  63.647  1.00  0.00     0.887 C  
HETATM    9  C   UNL     1     -10.549  12.570  64.780  1.00  0.00    -0.305 C  
HETATM   10  C   UNL     1     -10.821  11.147  64.340  1.00  0.00    -0.340 C  
HETATM   11  C   UNL     1      -9.680  12.934  65.753  1.00  0.00    -0.155 C  
HETATM   12  C   UNL     1      -9.420  14.417  66.060  1.00  0.00    -0.239 C  
BRANCH  11  13
HETATM   13  C   UNL     1      -9.043  11.857  66.555  1.00  0.00    -0.211 C  
HETATM   14  O   UNL     1      -8.037  11.271  66.186  1.00  0.00    -0.149 OA 
BRANCH  13  15
HETATM   15  O   UNL     1      -9.653  11.684  67.751  1.00  0.00    -0.170 OA 
HETATM   16  C   UNL     1     -11.534  11.130  69.252  1.00  0.00    -0.294 C  
HETATM   17  C   UNL     1     -10.946   9.681  67.252  1.00  0.00    -0.107 C  
HETATM   18  C   UNL     1     -11.003  11.125  67.776  1.00  0.00    -0.262 C  
HETATM   19  C   UNL     1     -12.018  11.969  66.971  1.00  0.00    -0.099 C  
BRANCH  16  20
HETATM   20  N   UNL     1     -10.813  10.339  70.283  1.00  0.00    -0.298 NA 
HETATM   21  C   UNL     1     -11.671  10.099  71.447  1.00  0.00    -0.290 C  
BRANCH  20  22
HETATM   22  C   UNL     1     -10.428   9.014  69.752  1.00  0.00    -0.218 C  
BRANCH  22  23
HETATM   23  C   UNL     1      -9.962   7.982  70.781  1.00  0.00    -0.202 C  
HETATM   24  C   UNL     1     -10.454   6.523  70.597  1.00  0.00    -0.257 C  
HETATM   25  C   UNL     1     -10.141   5.773  71.903  1.00  0.00    -0.228 A  
HETATM   26  C   UNL     1      -9.938   5.900  69.297  1.00  0.00    -0.224 A  
HETATM   27  C   UNL     1     -11.174   5.174  72.638  1.00  0.00    -0.277 A  
HETATM   28  C   UNL     1      -8.714   5.224  69.188  1.00  0.00    -0.106 A  
HETATM   29  C   UNL     1     -10.940   4.690  73.930  1.00  0.00    -0.333 A  
HETATM   30  C   UNL     1      -8.236   4.785  67.950  1.00  0.00    -0.096 A  
HETATM   31  C   UNL     1      -8.972   5.009  66.793  1.00  0.00    -0.113 A  
HETATM   32  C   UNL     1      -9.670   4.781  74.497  1.00  0.00    -0.176 A  
HETATM   33  C   UNL     1      -8.624   5.328  73.765  1.00  0.00    -0.113 A  
HETATM   34  C   UNL     1     -10.199   5.657  66.874  1.00  0.00    -0.272 A  
HETATM   35  C   UNL     1     -10.680   6.088  68.116  1.00  0.00    -0.353 A  
HETATM   36  C   UNL     1      -8.857   5.818  72.482  1.00  0.00    -0.130 A  
ENDBRANCH  22  23
ENDBRANCH  20  22
ENDBRANCH  16  20
ENDBRANCH  13  15
ENDBRANCH  11  13
BRANCH  12  37
HETATM   37  C   UNL     1      -9.436  14.676  67.569  1.00  0.00    -0.198 A  
HETATM   38  O   UNL     1     -12.943  15.724  69.513  1.00  0.00     0.177 OA 
HETATM   39  C   UNL     1     -10.653  14.958  68.221  1.00  0.00    -0.240 A  
HETATM   40  O   UNL     1     -11.902  15.952  71.431  1.00  0.00    -0.390 OA 
HETATM   41  C   UNL     1      -8.277  14.964  69.686  1.00  0.00     0.039 A  
HETATM   42  C   UNL     1     -10.663  15.296  69.580  1.00  0.00    -0.265 A  
HETATM   43  N   UNL     1     -11.928  15.681  70.221  1.00  0.00    -0.360 N  
HETATM   44  C   UNL     1      -9.477  15.296  70.318  1.00  0.00     0.458 A  
HETATM   45  C   UNL     1      -8.255  14.662  68.322  1.00  0.00    -0.146 A  
ENDBRANCH  12  37
ENDBRANCH   3   5
ENDBRANCH   2   3
TORSDOF 8
ENDMDL
MODEL      214
REMARK 921   NORMALIZED FREE ENERGY PREDICTED BY IDOCK:   -1.89 KCAL/MOL
REMARK 922        TOTAL FREE ENERGY PREDICTED BY IDOCK:   -4.69 KCAL/MOL
REMARK 923 INTER-LIGAND FREE ENERGY PREDICTED BY IDOCK:   -5.76 KCAL/MOL
REMARK 924 INTRA-LIGAND FREE ENERGY PREDICTED BY IDOCK:    1.07 KCAL/MOL
REMARK 927      BINDING AFFINITY PREDICTED BY RF-SCORE:    0.00 PKD
ROOT
HETATM    1  C   UNL     1     -10.842  18.065  65.484  1.00  0.00     0.146 C  
HETATM    2  O   UNL     1     -10.653  16.764  66.050  1.00  0.00    -0.307 OA 
ENDROOT
BRANCH   2   3
HETATM    3  C   UNL     1     -10.858  15.756  65.161  1.00  0.00    -0.428 C  
HETATM    4  O   UNL     1     -10.966  15.916  63.955  1.00  0.00    -0.211 OA 
BRANCH   3   5
HETATM    5  C   UNL     1     -10.929  14.442  65.857  1.00  0.00    -0.312 C  
HETATM    6  C   UNL     1     -12.098  13.761  65.952  1.00  0.00    -0.433 C  
HETATM    7  N   UNL     1     -12.115  12.513  66.549  1.00  0.00    -0.585 NA 
HETATM    8  C   UNL     1     -13.465  14.208  65.487  1.00  0.00     0.687 C  
HETATM    9  C   UNL     1     -11.066  11.948  67.242  1.00  0.00    -0.288 C  
HETATM   10  C   UNL     1     -11.378  10.628  67.914  1.00  0.00    -0.342 C  
HETATM   11  C   UNL     1      -9.865  12.575  67.272  1.00  0.00    -0.204 C  
HETATM   12  C   UNL     1      -9.637  13.872  66.482  1.00  0.00    -0.299 C  
BRANCH  11  13
HETATM   13  C   UNL     1      -8.806  12.006  68.146  1.00  0.00    -0.182 C  
HETATM   14  O   UNL     1      -8.112  12.699  68.873  1.00  0.00     0.037 OA 
BRANCH  13  15
HETATM   15  O   UNL     1      -8.780  10.653  68.099  1.00  0.00    -0.123 OA 
HETATM   16  C   UNL     1      -8.116   8.451  67.199  1.00  0.00    -0.104 C  
HETATM   17  C   UNL     1      -6.433  10.322  67.537  1.00  0.00    -0.066 C  
HETATM   18  C   UNL     1      -7.885  10.002  67.145  1.00  0.00    -0.099 C  
HETATM   19  C   UNL     1      -8.168  10.409  65.680  1.00  0.00    -0.158 C  
BRANCH  16  20
HETATM   20  N   UNL     1      -7.857   7.725  68.469  1.00  0.00    -0.118 NA 
HETATM   21  C   UNL     1      -9.051   7.722  69.319  1.00  0.00    -0.145 C  
BRANCH  20  22
HETATM   22  C   UNL     1      -7.515   6.311  68.202  1.00  0.00    -0.090 C  
BRANCH  22  23
HETATM   23  C   UNL     1      -7.728   5.334  69.361  1.00  0.00    -0.080 C  
HETATM   24  C   UNL     1      -6.560   5.162  70.367  1.00  0.00    -0.035 C  
HETATM   25  C   UNL     1      -6.875   3.918  71.215  1.00  0.00    -0.031 A  
HETATM   26  C   UNL     1      -6.254   6.458  71.123  1.00  0.00    -0.040 A  
HETATM   27  C   UNL     1      -5.984   2.834  71.236  1.00  0.00    -0.014 A  
HETATM   28  C   UNL     1      -6.883   6.831  72.319  1.00  0.00    -0.063 A  
HETATM   29  C   UNL     1      -6.360   1.616  71.814  1.00  0.00    -0.014 A  
HETATM   30  C   UNL     1      -6.656   8.083  72.899  1.00  0.00    -0.087 A  
HETATM   31  C   UNL     1      -5.791   8.988  72.297  1.00  0.00    -0.063 A  
HETATM   32  C   UNL     1      -7.619   1.469  72.393  1.00  0.00    -0.039 A  
HETATM   33  C   UNL     1      -8.496   2.546  72.423  1.00  0.00    -0.065 A  
HETATM   34  C   UNL     1      -5.135   8.637  71.123  1.00  0.00    -0.028 A  
HETATM   35  C   UNL     1      -5.359   7.380  70.549  1.00  0.00    -0.023 A  
HETATM   36  C   UNL     1      -8.127   3.757  71.841  1.00  0.00    -0.071 A  
ENDBRANCH  22  23
ENDBRANCH  20  22
ENDBRANCH  16  20
ENDBRANCH  13  15
ENDBRANCH  11  13
BRANCH  12  37
HETATM   37  C   UNL     1      -8.913  14.916  67.338  1.00  0.00    -0.198 A  
HETATM   38  O   UNL     1      -5.442  16.738  65.993  1.00  0.00    -0.128 OA 
HETATM   39  C   UNL     1      -7.777  15.576  66.830  1.00  0.00    -0.200 A  
HETATM   40  O   UNL     1      -5.209  17.853  67.867  1.00  0.00    -0.136 OA 
HETATM   41  C   UNL     1      -8.635  16.124  69.429  1.00  0.00    -0.094 A  
HETATM   42  C   UNL     1      -7.050  16.456  67.642  1.00  0.00    -0.135 A  
HETATM   43  N   UNL     1      -5.814  17.062  67.129  1.00  0.00    -0.146 N  
HETATM   44  C   UNL     1      -7.479  16.736  68.941  1.00  0.00    -0.240 A  
HETATM   45  C   UNL     1      -9.344  15.217  68.636  1.00  0.00    -0.201 A  
ENDBRANCH  12  37
ENDBRANCH   3   5
ENDBRANCH   2   3
TORSDOF 8
ENDMDL
MODEL      215
REMARK 921   NORMALIZED FREE ENERGY PREDICTED BY IDOCK:   -1.89 KCAL/MOL
REMARK 922        TOTAL FREE ENERGY PREDICTED BY IDOCK:   -4.68 KCAL/MOL
REMARK 923 INTER-LIGAND FREE ENERGY PREDICTED BY IDOCK:   -6.16 KCAL/MOL
REMARK 924 INTRA-LIGAND FREE ENERGY PREDICTED BY IDOCK:    1.47 KCAL/MOL
REMARK 927      BINDING AFFINITY PREDICTED BY RF-SCORE:    0.00 PKD
ROOT
HETATM    1  C   UNL     1     -12.065  15.936  69.111  1.00  0.00    -0.142 C  
HETATM    2  O   UNL     1     -12.642  14.626  69.141  1.00  0.00    -0.054 OA 
ENDROOT
BRANCH   2   3
HETATM    3  C   UNL     1     -11.941  13.748  69.908  1.00  0.00    -0.347 C  
HETATM    4  O   UNL     1     -11.566  13.979  71.047  1.00  0.00    -0.130 OA 
BRANCH   3   5
HETATM    5  C   UNL     1     -11.702  12.477  69.172  1.00  0.00    -0.375 C  
HETATM    6  C   UNL     1     -11.919  11.274  69.761  1.00  0.00    -0.360 C  
HETATM    7  N   UNL     1     -11.749  10.114  69.027  1.00  0.00    -0.017 NA 
HETATM    8  C   UNL     1     -12.326  11.010  71.191  1.00  0.00    -0.465 C  
HETATM    9  C   UNL     1     -11.188  10.042  67.769  1.00  0.00    -0.065 C  
HETATM   10  C   UNL     1     -10.992   8.640  67.233  1.00  0.00     0.117 C  
HETATM   11  C   UNL     1     -10.867  11.182  67.111  1.00  0.00    -0.326 C  
HETATM   12  C   UNL     1     -11.188  12.556  67.718  1.00  0.00    -0.318 C  
BRANCH  11  13
HETATM   13  C   UNL     1     -10.136  11.058  65.823  1.00  0.00    -0.252 C  
HETATM   14  O   UNL     1     -10.109  11.955  64.994  1.00  0.00    -0.254 OA 
BRANCH  13  15
HETATM   15  O   UNL     1      -9.450   9.894  65.737  1.00  0.00    -0.185 OA 
HETATM   16  C   UNL     1      -7.426   8.490  65.565  1.00  0.00    -0.085 C  
HETATM   17  C   UNL     1      -7.575  10.430  67.196  1.00  0.00    -0.096 C  
HETATM   18  C   UNL     1      -7.991   9.935  65.801  1.00  0.00    -0.120 C  
HETATM   19  C   UNL     1      -7.363  10.808  64.690  1.00  0.00     0.306 C  
BRANCH  16  20
HETATM   20  N   UNL     1      -7.785   7.408  66.518  1.00  0.00    -0.092 NA 
HETATM   21  C   UNL     1      -6.670   6.471  66.683  1.00  0.00    -0.056 C  
BRANCH  20  22
HETATM   22  C   UNL     1      -8.079   7.965  67.856  1.00  0.00    -0.129 C  
BRANCH  22  23
HETATM   23  C   UNL     1      -8.233   6.952  68.992  1.00  0.00    -0.125 C  
HETATM   24  C   UNL     1      -6.967   6.623  69.826  1.00  0.00    -0.066 C  
HETATM   25  C   UNL     1      -7.286   5.369  70.657  1.00  0.00    -0.071 A  
HETATM   26  C   UNL     1      -6.444   7.845  70.586  1.00  0.00    -0.037 A  
HETATM   27  C   UNL     1      -6.508   4.211  70.514  1.00  0.00    -0.031 A  
HETATM   28  C   UNL     1      -6.876   8.209  71.870  1.00  0.00    -0.076 A  
HETATM   29  C   UNL     1      -6.919   3.002  71.087  1.00  0.00    -0.032 A  
HETATM   30  C   UNL     1      -6.458   9.403  72.464  1.00  0.00     0.448 A  
HETATM   31  C   UNL     1      -5.596  10.259  71.791  1.00  0.00     0.162 A  
HETATM   32  C   UNL     1      -8.102   2.937  71.822  1.00  0.00    -0.057 A  
HETATM   33  C   UNL     1      -8.861   4.085  72.013  1.00  0.00    -0.136 A  
HETATM   34  C   UNL     1      -5.133   9.913  70.526  1.00  0.00    -0.035 A  
HETATM   35  C   UNL     1      -5.547   8.714  69.936  1.00  0.00    -0.028 A  
HETATM   36  C   UNL     1      -8.457   5.287  71.436  1.00  0.00    -0.125 A  
ENDBRANCH  22  23
ENDBRANCH  20  22
ENDBRANCH  16  20
ENDBRANCH  13  15
ENDBRANCH  11  13
BRANCH  12  37
HETATM   37  C   UNL     1      -9.993  13.505  67.590  1.00  0.00    -0.229 A  
HETATM   38  O   UNL     1     -10.235  16.938  65.279  1.00  0.00    -0.607 OA 
HETATM   39  C   UNL     1     -10.121  14.703  66.860  1.00  0.00    -0.255 A  
HETATM   40  O   UNL     1      -8.135  17.439  65.666  1.00  0.00    -0.485 OA 
HETATM   41  C   UNL     1      -7.656  14.042  67.989  1.00  0.00    -0.143 A  
HETATM   42  C   UNL     1      -9.008  15.526  66.653  1.00  0.00    -0.287 A  
HETATM   43  N   UNL     1      -9.137  16.722  65.809  1.00  0.00    -0.062 N  
HETATM   44  C   UNL     1      -7.773  15.201  67.220  1.00  0.00    -0.241 A  
HETATM   45  C   UNL     1      -8.755  13.198  68.168  1.00  0.00    -0.193 A  
ENDBRANCH  12  37
ENDBRANCH   3   5
ENDBRANCH   2   3
TORSDOF 8
ENDMDL
MODEL      216
REMARK 921   NORMALIZED FREE ENERGY PREDICTED BY IDOCK:   -1.88 KCAL/MOL
REMARK 922        TOTAL FREE ENERGY PREDICTED BY IDOCK:   -4.67 KCAL/MOL
REMARK 923 INTER-LIGAND FREE ENERGY PREDICTED BY IDOCK:   -5.84 KCAL/MOL
REMARK 924 INTRA-LIGAND FREE ENERGY PREDICTED BY IDOCK:    1.17 KCAL/MOL
REMARK 927      BINDING AFFINITY PREDICTED BY RF-SCORE:    0.00 PKD
ROOT
HETATM    1  C   UNL     1     -10.769  19.906  66.766  1.00  0.00    -0.344 C  
HETATM    2  O   UNL     1     -10.428  18.643  67.348  1.00  0.00    -0.384 OA 
ENDROOT
BRANCH   2   3
HETATM    3  C   UNL     1     -10.381  17.630  66.441  1.00  0.00    -0.345 C  
HETATM    4  O   UNL     1     -10.599  17.766  65.248  1.00  0.00    -0.651 OA 
BRANCH   3   5
HETATM    5  C   UNL     1     -10.028  16.344  67.103  1.00  0.00    -0.260 C  
HETATM    6  C   UNL     1     -10.887  15.735  67.956  1.00  0.00    -0.309 C  
HETATM    7  N   UNL     1     -10.553  14.509  68.502  1.00  0.00    -0.245 NA 
HETATM    8  C   UNL     1     -12.226  16.246  68.435  1.00  0.00     0.777 C  
HETATM    9  C   UNL     1      -9.317  13.905  68.408  1.00  0.00    -0.201 C  
HETATM   10  C   UNL     1      -9.165  12.626  69.203  1.00  0.00     0.680 C  
HETATM   11  C   UNL     1      -8.355  14.463  67.634  1.00  0.00    -0.186 C  
HETATM   12  C   UNL     1      -8.647  15.720  66.801  1.00  0.00    -0.306 C  
BRANCH  11  13
HETATM   13  C   UNL     1      -6.997  13.860  67.672  1.00  0.00    -0.175 C  
HETATM   14  O   UNL     1      -5.982  14.516  67.500  1.00  0.00    -0.334 OA 
BRANCH  13  15
HETATM   15  O   UNL     1      -7.031  12.548  68.007  1.00  0.00    -0.076 OA 
HETATM   16  C   UNL     1      -7.041  10.119  67.565  1.00  0.00    -0.087 C  
HETATM   17  C   UNL     1      -5.421  11.686  66.395  1.00  0.00    -0.001 C  
HETATM   18  C   UNL     1      -6.847  11.551  66.955  1.00  0.00    -0.138 C  
HETATM   19  C   UNL     1      -7.900  11.664  65.828  1.00  0.00     0.542 C  
BRANCH  16  20
HETATM   20  N   UNL     1      -6.125   9.660  68.641  1.00  0.00    -0.043 NA 
HETATM   21  C   UNL     1      -6.528  10.214  69.937  1.00  0.00    -0.086 C  
BRANCH  20  22
HETATM   22  C   UNL     1      -6.165   8.188  68.771  1.00  0.00    -0.044 C  
BRANCH  22  23
HETATM   23  C   UNL     1      -7.092   7.630  69.854  1.00  0.00    -0.063 C  
HETATM   24  C   UNL     1      -8.600   7.524  69.512  1.00  0.00    -0.133 C  
HETATM   25  C   UNL     1      -9.345   7.266  70.832  1.00  0.00    -0.159 A  
HETATM   26  C   UNL     1      -8.865   6.548  68.362  1.00  0.00    -0.123 A  
HETATM   27  C   UNL     1     -10.334   8.159  71.271  1.00  0.00    -0.243 A  
HETATM   28  C   UNL     1      -9.077   5.172  68.540  1.00  0.00    -0.133 A  
HETATM   29  C   UNL     1     -10.855   8.063  72.566  1.00  0.00    -0.415 A  
HETATM   30  C   UNL     1      -9.188   4.308  67.447  1.00  0.00    -0.171 A  
HETATM   31  C   UNL     1      -9.093   4.800  66.151  1.00  0.00    -0.129 A  
HETATM   32  C   UNL     1     -10.410   7.065  73.433  1.00  0.00    -0.370 A  
HETATM   33  C   UNL     1      -9.466   6.143  72.999  1.00  0.00    -0.142 A  
HETATM   34  C   UNL     1      -8.906   6.161  65.944  1.00  0.00    -0.151 A  
HETATM   35  C   UNL     1      -8.803   7.026  67.040  1.00  0.00    -0.124 A  
HETATM   36  C   UNL     1      -8.940   6.243  71.712  1.00  0.00    -0.140 A  
ENDBRANCH  22  23
ENDBRANCH  20  22
ENDBRANCH  16  20
ENDBRANCH  13  15
ENDBRANCH  11  13
BRANCH  12  37
HETATM   37  C   UNL     1      -7.518  16.745  66.941  1.00  0.00    -0.257 A  
HETATM   38  O   UNL     1      -7.498  19.480  70.056  1.00  0.00     0.093 OA 
HETATM   39  C   UNL     1      -7.493  17.616  68.049  1.00  0.00    -0.223 A  
HETATM   40  O   UNL     1      -5.680  20.445  69.298  1.00  0.00    -0.276 OA 
HETATM   41  C   UNL     1      -5.525  17.839  66.082  1.00  0.00    -0.241 A  
HETATM   42  C   UNL     1      -6.523  18.622  68.133  1.00  0.00    -0.213 A  
HETATM   43  N   UNL     1      -6.569  19.582  69.244  1.00  0.00    -0.326 N  
HETATM   44  C   UNL     1      -5.534  18.734  67.153  1.00  0.00    -0.141 A  
HETATM   45  C   UNL     1      -6.512  16.855  65.974  1.00  0.00     0.451 A  
ENDBRANCH  12  37
ENDBRANCH   3   5
ENDBRANCH   2   3
TORSDOF 8
ENDMDL
MODEL      217
REMARK 921   NORMALIZED FREE ENERGY PREDICTED BY IDOCK:   -1.81 KCAL/MOL
REMARK 922        TOTAL FREE ENERGY PREDICTED BY IDOCK:   -4.57 KCAL/MOL
REMARK 923 INTER-LIGAND FREE ENERGY PREDICTED BY IDOCK:   -4.49 KCAL/MOL
REMARK 924 INTRA-LIGAND FREE ENERGY PREDICTED BY IDOCK:   -0.08 KCAL/MOL
REMARK 927      BINDING AFFINITY PREDICTED BY RF-SCORE:    0.00 PKD
ROOT
HETATM    1  C   UNL     1     -13.263  14.022  65.800  1.00  0.00     0.189 C  
HETATM    2  O   UNL     1     -12.327  13.087  65.253  1.00  0.00    -0.438 OA 
ENDROOT
BRANCH   2   3
HETATM    3  C   UNL     1     -11.204  13.676  64.762  1.00  0.00    -0.360 C  
HETATM    4  O   UNL     1     -11.191  14.749  64.179  1.00  0.00    -0.089 OA 
BRANCH   3   5
HETATM    5  C   UNL     1     -10.004  12.838  65.033  1.00  0.00    -0.171 C  
HETATM    6  C   UNL     1      -9.723  11.750  64.275  1.00  0.00    -0.146 C  
HETATM    7  N   UNL     1      -8.565  11.032  64.514  1.00  0.00     0.039 NA 
HETATM    8  C   UNL     1     -10.554  11.168  63.155  1.00  0.00    -0.177 C  
HETATM    9  C   UNL     1      -7.728  11.206  65.596  1.00  0.00     0.190 C  
HETATM   10  C   UNL     1      -6.597  10.207  65.701  1.00  0.00    -0.112 C  
HETATM   11  C   UNL     1      -7.954  12.225  66.461  1.00  0.00     0.202 C  
HETATM   12  C   UNL     1      -9.085  13.232  66.211  1.00  0.00     0.011 C  
BRANCH  11  13
HETATM   13  C   UNL     1      -7.117  12.291  67.688  1.00  0.00    -0.126 C  
HETATM   14  O   UNL     1      -7.030  13.302  68.369  1.00  0.00    -0.087 OA 
BRANCH  13  15
HETATM   15  O   UNL     1      -6.560  11.095  67.990  1.00  0.00    -0.057 OA 
HETATM   16  C   UNL     1      -5.543   9.405  69.476  1.00  0.00    -0.034 C  
HETATM   17  C   UNL     1      -7.625  10.695  70.144  1.00  0.00     0.335 C  
HETATM   18  C   UNL     1      -6.287  10.784  69.391  1.00  0.00    -0.068 C  
HETATM   19  C   UNL     1      -5.338  11.805  70.062  1.00  0.00    -0.090 C  
BRANCH  16  20
HETATM   20  N   UNL     1      -6.224   8.183  68.975  1.00  0.00    -0.039 NA 
HETATM   21  C   UNL     1      -5.248   7.132  68.672  1.00  0.00    -0.017 C  
BRANCH  20  22
HETATM   22  C   UNL     1      -7.139   7.637  70.001  1.00  0.00    -0.059 C  
BRANCH  22  23
HETATM   23  C   UNL     1      -6.937   6.166  70.372  1.00  0.00    -0.059 C  
HETATM   24  C   UNL     1      -8.171   5.233  70.272  1.00  0.00    -0.095 C  
HETATM   25  C   UNL     1      -7.810   3.926  70.998  1.00  0.00    -0.059 A  
HETATM   26  C   UNL     1      -8.686   5.109  68.835  1.00  0.00    -0.096 A  
HETATM   27  C   UNL     1      -8.578   3.488  72.087  1.00  0.00    -0.102 A  
HETATM   28  C   UNL     1      -8.218   4.156  67.918  1.00  0.00    -0.093 A  
HETATM   29  C   UNL     1      -8.133   2.435  72.894  1.00  0.00    -0.054 A  
HETATM   30  C   UNL     1      -8.632   4.169  66.583  1.00  0.00    -0.112 A  
HETATM   31  C   UNL     1      -9.525   5.133  66.134  1.00  0.00    -0.168 A  
HETATM   32  C   UNL     1      -6.927   1.794  72.614  1.00  0.00    -0.023 A  
HETATM   33  C   UNL     1      -6.177   2.183  71.512  1.00  0.00    -0.014 A  
HETATM   34  C   UNL     1     -10.023   6.077  67.026  1.00  0.00    -0.197 A  
HETATM   35  C   UNL     1      -9.613   6.057  68.364  1.00  0.00    -0.130 A  
HETATM   36  C   UNL     1      -6.614   3.238  70.713  1.00  0.00    -0.032 A  
ENDBRANCH  22  23
ENDBRANCH  20  22
ENDBRANCH  16  20
ENDBRANCH  13  15
ENDBRANCH  11  13
BRANCH  12  37
HETATM   37  C   UNL     1      -9.884  13.490  67.492  1.00  0.00    -0.227 A  
HETATM   38  O   UNL     1     -11.342  10.343  69.762  1.00  0.00    -0.252 OA 
HETATM   39  C   UNL     1     -10.306  12.406  68.287  1.00  0.00    -0.232 A  
HETATM   40  O   UNL     1     -12.334  11.711  71.161  1.00  0.00    -0.331 OA 
HETATM   41  C   UNL     1     -11.014  15.004  69.021  1.00  0.00    -0.253 A  
HETATM   42  C   UNL     1     -11.122  12.626  69.403  1.00  0.00    -0.065 A  
HETATM   43  N   UNL     1     -11.633  11.478  70.165  1.00  0.00    -0.286 N  
HETATM   44  C   UNL     1     -11.475  13.925  69.777  1.00  0.00    -0.281 A  
HETATM   45  C   UNL     1     -10.229  14.789  67.885  1.00  0.00    -0.229 A  
ENDBRANCH  12  37
ENDBRANCH   3   5
ENDBRANCH   2   3
TORSDOF 8
ENDMDL
MODEL      218
REMARK 921   NORMALIZED FREE ENERGY PREDICTED BY IDOCK:   -1.76 KCAL/MOL
REMARK 922        TOTAL FREE ENERGY PREDICTED BY IDOCK:   -4.50 KCAL/MOL
REMARK 923 INTER-LIGAND FREE ENERGY PREDICTED BY IDOCK:   -6.49 KCAL/MOL
REMARK 924 INTRA-LIGAND FREE ENERGY PREDICTED BY IDOCK:    1.99 KCAL/MOL
REMARK 927      BINDING AFFINITY PREDICTED BY RF-SCORE:    0.00 PKD
ROOT
HETATM    1  C   UNL     1     -10.808  18.419  65.395  1.00  0.00     0.330 C  
HETATM    2  O   UNL     1     -10.046  17.214  65.269  1.00  0.00    -0.507 OA 
ENDROOT
BRANCH   2   3
HETATM    3  C   UNL     1     -10.770  16.167  64.789  1.00  0.00    -0.166 C  
HETATM    4  O   UNL     1     -11.365  16.177  63.723  1.00  0.00    -0.618 OA 
BRANCH   3   5
HETATM    5  C   UNL     1     -10.733  15.019  65.736  1.00  0.00    -0.351 C  
HETATM    6  C   UNL     1     -11.867  14.366  66.090  1.00  0.00    -0.382 C  
HETATM    7  N   UNL     1     -11.788  13.262  66.920  1.00  0.00    -0.385 NA 
HETATM    8  C   UNL     1     -13.286  14.704  65.696  1.00  0.00     0.566 C  
HETATM    9  C   UNL     1     -10.658  12.851  67.594  1.00  0.00    -0.223 C  
HETATM   10  C   UNL     1     -10.862  11.691  68.544  1.00  0.00    -0.257 C  
HETATM   11  C   UNL     1      -9.477  13.478  67.369  1.00  0.00    -0.225 C  
HETATM   12  C   UNL     1      -9.367  14.592  66.317  1.00  0.00    -0.277 C  
BRANCH  11  13
HETATM   13  C   UNL     1      -8.318  13.100  68.218  1.00  0.00    -0.152 C  
HETATM   14  O   UNL     1      -7.593  13.928  68.747  1.00  0.00    -0.129 OA 
BRANCH  13  15
HETATM   15  O   UNL     1      -8.233  11.761  68.398  1.00  0.00    -0.146 OA 
HETATM   16  C   UNL     1      -7.196   9.529  68.190  1.00  0.00    -0.080 C  
HETATM   17  C   UNL     1      -5.850  11.573  68.867  1.00  0.00    -0.047 C  
HETATM   18  C   UNL     1      -7.010  11.074  67.989  1.00  0.00    -0.068 C  
HETATM   19  C   UNL     1      -6.690  11.258  66.487  1.00  0.00    -0.105 C  
BRANCH  16  20
HETATM   20  N   UNL     1      -7.449   9.002  69.556  1.00  0.00    -0.074 NA 
HETATM   21  C   UNL     1      -8.887   8.849  69.795  1.00  0.00    -0.144 C  
BRANCH  20  22
HETATM   22  C   UNL     1      -6.840   7.664  69.722  1.00  0.00    -0.047 C  
BRANCH  22  23
HETATM   23  C   UNL     1      -7.472   6.530  68.913  1.00  0.00    -0.095 C  
HETATM   24  C   UNL     1      -7.393   5.101  69.511  1.00  0.00    -0.057 C  
HETATM   25  C   UNL     1      -7.783   4.121  68.393  1.00  0.00    -0.070 A  
HETATM   26  C   UNL     1      -8.158   4.987  70.833  1.00  0.00    -0.096 A  
HETATM   27  C   UNL     1      -6.883   3.125  67.982  1.00  0.00    -0.049 A  
HETATM   28  C   UNL     1      -9.521   4.664  70.921  1.00  0.00    -0.233 A  
HETATM   29  C   UNL     1      -7.128   2.379  66.824  1.00  0.00    -0.049 A  
HETATM   30  C   UNL     1     -10.196   4.696  72.144  1.00  0.00    -0.259 A  
HETATM   31  C   UNL     1      -9.525   5.048  73.308  1.00  0.00    -0.143 A  
HETATM   32  C   UNL     1      -8.280   2.603  66.072  1.00  0.00    -0.087 A  
HETATM   33  C   UNL     1      -9.205   3.552  66.489  1.00  0.00    -0.186 A  
HETATM   34  C   UNL     1      -8.169   5.350  73.255  1.00  0.00    -0.115 A  
HETATM   35  C   UNL     1      -7.493   5.310  72.030  1.00  0.00    -0.097 A  
HETATM   36  C   UNL     1      -8.958   4.302  67.637  1.00  0.00    -0.135 A  
ENDBRANCH  22  23
ENDBRANCH  20  22
ENDBRANCH  16  20
ENDBRANCH  13  15
ENDBRANCH  11  13
BRANCH  12  37
HETATM   37  C   UNL     1      -8.585  15.789  66.866  1.00  0.00    -0.279 A  
HETATM   38  O   UNL     1     -10.420  18.602  69.294  1.00  0.00    -0.008 OA 
HETATM   39  C   UNL     1      -9.209  16.692  67.749  1.00  0.00    -0.214 A  
HETATM   40  O   UNL     1      -8.597  19.818  69.394  1.00  0.00    -0.059 OA 
HETATM   41  C   UNL     1      -6.576  17.155  66.946  1.00  0.00    -0.240 A  
HETATM   42  C   UNL     1      -8.535  17.842  68.175  1.00  0.00    -0.267 A  
HETATM   43  N   UNL     1      -9.233  18.822  69.018  1.00  0.00    -0.217 N  
HETATM   44  C   UNL     1      -7.215  18.076  67.779  1.00  0.00    -0.211 A  
HETATM   45  C   UNL     1      -7.257  16.023  66.489  1.00  0.00     0.164 A  
ENDBRANCH  12  37
ENDBRANCH   3   5
ENDBRANCH   2   3
TORSDOF 8
ENDMDL
MODEL      219
REMARK 921   NORMALIZED FREE ENERGY PREDICTED BY IDOCK:   -1.75 KCAL/MOL
REMARK 922        TOTAL FREE ENERGY PREDICTED BY IDOCK:   -4.48 KCAL/MOL
REMARK 923 INTER-LIGAND FREE ENERGY PREDICTED BY IDOCK:   -7.60 KCAL/MOL
REMARK 924 INTRA-LIGAND FREE ENERGY PREDICTED BY IDOCK:    3.12 KCAL/MOL
REMARK 927      BINDING AFFINITY PREDICTED BY RF-SCORE:    0.00 PKD
ROOT
HETATM    1  C   UNL     1      -8.733  17.478  65.854  1.00  0.00     0.092 C  
HETATM    2  O   UNL     1      -9.575  16.379  66.218  1.00  0.00    -0.273 OA 
ENDROOT
BRANCH   2   3
HETATM    3  C   UNL     1     -10.334  15.920  65.186  1.00  0.00    -0.252 C  
HETATM    4  O   UNL     1     -10.946  16.639  64.411  1.00  0.00    -0.924 OA 
BRANCH   3   5
HETATM    5  C   UNL     1     -10.313  14.433  65.134  1.00  0.00    -0.447 C  
HETATM    6  C   UNL     1     -11.261  13.741  64.455  1.00  0.00    -0.373 C  
HETATM    7  N   UNL     1     -11.173  12.363  64.373  1.00  0.00    -0.313 NA 
HETATM    8  C   UNL     1     -12.477  14.295  63.751  1.00  0.00     0.072 C  
HETATM    9  C   UNL     1     -10.293  11.576  65.086  1.00  0.00    -0.278 C  
HETATM   10  C   UNL     1     -10.485  10.085  64.918  1.00  0.00     0.384 C  
HETATM   11  C   UNL     1      -9.343  12.161  65.854  1.00  0.00    -0.135 C  
HETATM   12  C   UNL     1      -9.186  13.689  65.884  1.00  0.00     0.170 C  
BRANCH  11  13
HETATM   13  C   UNL     1      -8.508  11.282  66.714  1.00  0.00    -0.161 C  
HETATM   14  O   UNL     1      -7.471  11.664  67.234  1.00  0.00    -0.126 OA 
BRANCH  13  15
HETATM   15  O   UNL     1      -9.082  10.072  66.915  1.00  0.00    -0.138 OA 
HETATM   16  C   UNL     1      -9.100   7.632  67.289  1.00  0.00    -0.127 C  
HETATM   17  C   UNL     1      -7.538   9.170  68.569  1.00  0.00    -0.085 C  
HETATM   18  C   UNL     1      -8.222   8.930  67.213  1.00  0.00    -0.104 C  
HETATM   19  C   UNL     1      -7.179   8.656  66.104  1.00  0.00    -0.085 C  
BRANCH  16  20
HETATM   20  N   UNL     1     -10.167   7.539  68.319  1.00  0.00    -0.181 NA 
HETATM   21  C   UNL     1     -10.873   6.258  68.222  1.00  0.00    -0.319 C  
BRANCH  20  22
HETATM   22  C   UNL     1      -9.590   7.610  69.679  1.00  0.00    -0.160 C  
BRANCH  22  23
HETATM   23  C   UNL     1     -10.038   6.525  70.660  1.00  0.00    -0.212 C  
HETATM   24  C   UNL     1      -8.931   5.794  71.463  1.00  0.00    -0.146 C  
HETATM   25  C   UNL     1      -9.581   4.558  72.106  1.00  0.00    -0.206 A  
HETATM   26  C   UNL     1      -8.171   6.743  72.394  1.00  0.00    -0.105 A  
HETATM   27  C   UNL     1      -9.094   3.274  71.819  1.00  0.00    -0.166 A  
HETATM   28  C   UNL     1      -8.568   7.030  73.708  1.00  0.00    -0.172 A  
HETATM   29  C   UNL     1      -9.810   2.137  72.211  1.00  0.00    -0.209 A  
HETATM   30  C   UNL     1      -7.908   7.999  74.470  1.00  0.00    -0.289 A  
HETATM   31  C   UNL     1      -6.834   8.701  73.936  1.00  0.00    -0.059 A  
HETATM   32  C   UNL     1     -11.010   2.266  72.909  1.00  0.00    -0.137 A  
HETATM   33  C   UNL     1     -11.483   3.529  73.244  1.00  0.00    -0.080 A  
HETATM   34  C   UNL     1      -6.404   8.420  72.644  1.00  0.00    -0.087 A  
HETATM   35  C   UNL     1      -7.061   7.444  71.886  1.00  0.00    -0.063 A  
HETATM   36  C   UNL     1     -10.776   4.662  72.846  1.00  0.00    -0.295 A  
ENDBRANCH  22  23
ENDBRANCH  20  22
ENDBRANCH  16  20
ENDBRANCH  13  15
ENDBRANCH  11  13
BRANCH  12  37
HETATM   37  C   UNL     1      -9.029  14.196  67.321  1.00  0.00    -0.221 A  
HETATM   38  O   UNL     1     -12.313  14.556  69.824  1.00  0.00    -0.316 OA 
HETATM   39  C   UNL     1     -10.147  14.240  68.176  1.00  0.00    -0.232 A  
HETATM   40  O   UNL     1     -11.088  15.400  71.436  1.00  0.00    -0.364 OA 
HETATM   41  C   UNL     1      -7.679  15.166  69.094  1.00  0.00    -0.195 A  
HETATM   42  C   UNL     1     -10.034  14.797  69.456  1.00  0.00    -0.020 A  
HETATM   43  N   UNL     1     -11.231  14.923  70.300  1.00  0.00    -0.250 N  
HETATM   44  C   UNL     1      -8.800  15.257  69.921  1.00  0.00     0.147 A  
HETATM   45  C   UNL     1      -7.793  14.644  67.802  1.00  0.00    -0.165 A  
ENDBRANCH  12  37
ENDBRANCH   3   5
ENDBRANCH   2   3
TORSDOF 8
ENDMDL
MODEL      220
REMARK 921   NORMALIZED FREE ENERGY PREDICTED BY IDOCK:   -1.68 KCAL/MOL
REMARK 922        TOTAL FREE ENERGY PREDICTED BY IDOCK:   -4.37 KCAL/MOL
REMARK 923 INTER-LIGAND FREE ENERGY PREDICTED BY IDOCK:   -5.83 KCAL/MOL
REMARK 924 INTRA-LIGAND FREE ENERGY PREDICTED BY IDOCK:    1.46 KCAL/MOL
REMARK 927      BINDING AFFINITY PREDICTED BY RF-SCORE:    0.00 PKD
ROOT
HETATM    1  C   UNL     1      -7.911  17.578  66.095  1.00  0.00    -0.246 C  
HETATM    2  O   UNL     1      -9.069  17.062  66.759  1.00  0.00    -0.227 OA 
ENDROOT
BRANCH   2   3
HETATM    3  C   UNL     1     -10.121  16.855  65.921  1.00  0.00    -0.283 C  
HETATM    4  O   UNL     1     -10.875  17.735  65.536  1.00  0.00    -0.471 OA 
BRANCH   3   5
HETATM    5  C   UNL     1     -10.220  15.420  65.540  1.00  0.00    -0.411 C  
HETATM    6  C   UNL     1     -11.086  15.007  64.581  1.00  0.00    -0.321 C  
HETATM    7  N   UNL     1     -11.105  13.676  64.206  1.00  0.00    -0.358 NA 
HETATM    8  C   UNL     1     -12.101  15.842  63.837  1.00  0.00     0.377 C  
HETATM    9  C   UNL     1     -10.441  12.656  64.853  1.00  0.00    -0.309 C  
HETATM   10  C   UNL     1     -10.728  11.266  64.327  1.00  0.00    -0.416 C  
HETATM   11  C   UNL     1      -9.598  12.946  65.874  1.00  0.00    -0.133 C  
HETATM   12  C   UNL     1      -9.316  14.403  66.271  1.00  0.00    -0.261 C  
BRANCH  11  13
HETATM   13  C   UNL     1      -9.013  11.811  66.635  1.00  0.00    -0.195 C  
HETATM   14  O   UNL     1      -8.072  11.155  66.216  1.00  0.00    -0.168 OA 
BRANCH  13  15
HETATM   15  O   UNL     1      -9.582  11.669  67.855  1.00  0.00    -0.170 OA 
HETATM   16  C   UNL     1     -11.326  10.946  69.447  1.00  0.00    -0.280 C  
HETATM   17  C   UNL     1     -10.461   9.409  67.621  1.00  0.00    -0.328 C  
HETATM   18  C   UNL     1     -10.799  10.867  67.971  1.00  0.00    -0.245 C  
HETATM   19  C   UNL     1     -11.955  11.398  67.092  1.00  0.00     0.361 C  
BRANCH  16  20
HETATM   20  N   UNL     1     -10.470  10.438  70.550  1.00  0.00     0.002 NA 
HETATM   21  C   UNL     1     -11.260   9.644  71.496  1.00  0.00    -0.307 C  
BRANCH  20  22
HETATM   22  C   UNL     1      -9.411   9.550  70.023  1.00  0.00    -0.234 C  
BRANCH  22  23
HETATM   23  C   UNL     1      -8.461   8.943  71.058  1.00  0.00    -0.244 C  
HETATM   24  C   UNL     1      -6.982   8.748  70.637  1.00  0.00    -0.053 C  
HETATM   25  C   UNL     1      -6.328   7.840  71.691  1.00  0.00    -0.039 A  
HETATM   26  C   UNL     1      -6.287  10.079  70.339  1.00  0.00    -0.115 A  
HETATM   27  C   UNL     1      -5.754   6.617  71.311  1.00  0.00    -0.028 A  
HETATM   28  C   UNL     1      -5.634  10.853  71.310  1.00  0.00     0.067 A  
HETATM   29  C   UNL     1      -5.363   5.684  72.278  1.00  0.00    -0.018 A  
HETATM   30  C   UNL     1      -5.125  12.119  71.007  1.00  0.00    -0.143 A  
HETATM   31  C   UNL     1      -5.255  12.640  69.726  1.00  0.00    -0.079 A  
HETATM   32  C   UNL     1      -5.522   5.966  73.634  1.00  0.00    -0.035 A  
HETATM   33  C   UNL     1      -6.044   7.191  74.029  1.00  0.00    -0.069 A  
HETATM   34  C   UNL     1      -5.876  11.886  68.737  1.00  0.00    -0.050 A  
HETATM   35  C   UNL     1      -6.378  10.616  69.041  1.00  0.00    -0.046 A  
HETATM   36  C   UNL     1      -6.443   8.117  73.068  1.00  0.00    -0.092 A  
ENDBRANCH  22  23
ENDBRANCH  20  22
ENDBRANCH  16  20
ENDBRANCH  13  15
ENDBRANCH  11  13
BRANCH  12  37
HETATM   37  C   UNL     1      -9.379  14.579  67.791  1.00  0.00    -0.198 A  
HETATM   38  O   UNL     1     -13.015  14.660  69.779  1.00  0.00    -0.018 OA 
HETATM   39  C   UNL     1     -10.621  14.529  68.454  1.00  0.00    -0.244 A  
HETATM   40  O   UNL     1     -12.040  15.041  71.707  1.00  0.00    -0.320 OA 
HETATM   41  C   UNL     1      -8.301  15.038  69.921  1.00  0.00     0.237 A  
HETATM   42  C   UNL     1     -10.698  14.790  69.828  1.00  0.00    -0.154 A  
HETATM   43  N   UNL     1     -12.012  14.829  70.485  1.00  0.00    -0.291 N  
HETATM   44  C   UNL     1      -9.539  15.040  70.566  1.00  0.00     0.881 A  
HETATM   45  C   UNL     1      -8.222  14.814  68.544  1.00  0.00    -0.153 A  
ENDBRANCH  12  37
ENDBRANCH   3   5
ENDBRANCH   2   3
TORSDOF 8
ENDMDL
MODEL      221
REMARK 921   NORMALIZED FREE ENERGY PREDICTED BY IDOCK:   -1.61 KCAL/MOL
REMARK 922        TOTAL FREE ENERGY PREDICTED BY IDOCK:   -4.28 KCAL/MOL
REMARK 923 INTER-LIGAND FREE ENERGY PREDICTED BY IDOCK:   -7.26 KCAL/MOL
REMARK 924 INTRA-LIGAND FREE ENERGY PREDICTED BY IDOCK:    2.99 KCAL/MOL
REMARK 927      BINDING AFFINITY PREDICTED BY RF-SCORE:    0.00 PKD
ROOT
HETATM    1  C   UNL     1     -10.079  19.116  67.171  1.00  0.00    -0.373 C  
HETATM    2  O   UNL     1     -10.327  17.840  67.771  1.00  0.00    -0.346 OA 
ENDROOT
BRANCH   2   3
HETATM    3  C   UNL     1     -10.064  16.796  66.940  1.00  0.00    -0.286 C  
HETATM    4  O   UNL     1      -9.641  16.915  65.801  1.00  0.00    -0.515 OA 
BRANCH   3   5
HETATM    5  C   UNL     1     -10.357  15.500  67.610  1.00  0.00    -0.269 C  
HETATM    6  C   UNL     1     -11.507  15.315  68.306  1.00  0.00    -0.347 C  
HETATM    7  N   UNL     1     -11.777  14.076  68.861  1.00  0.00    -0.317 NA 
HETATM    8  C   UNL     1     -12.585  16.334  68.590  1.00  0.00     1.515 C  
HETATM    9  C   UNL     1     -10.887  13.026  68.938  1.00  0.00    -0.206 C  
HETATM   10  C   UNL     1     -11.380  11.822  69.710  1.00  0.00    -0.245 C  
HETATM   11  C   UNL     1      -9.677  13.127  68.335  1.00  0.00    -0.196 C  
HETATM   12  C   UNL     1      -9.313  14.366  67.504  1.00  0.00    -0.198 C  
BRANCH  11  13
HETATM   13  C   UNL     1      -8.696  12.033  68.562  1.00  0.00    -0.095 C  
HETATM   14  O   UNL     1      -7.578  12.237  69.008  1.00  0.00    -0.033 OA 
BRANCH  13  15
HETATM   15  O   UNL     1      -9.225  10.813  68.305  1.00  0.00    -0.145 OA 
HETATM   16  C   UNL     1      -9.819   8.877  66.893  1.00  0.00    -0.223 C  
HETATM   17  C   UNL     1      -7.523   9.955  66.788  1.00  0.00    -0.095 C  
HETATM   18  C   UNL     1      -9.024  10.227  66.982  1.00  0.00    -0.136 C  
HETATM   19  C   UNL     1      -9.582  11.109  65.842  1.00  0.00    -0.250 C  
BRANCH  16  20
HETATM   20  N   UNL     1      -9.471   7.769  67.820  1.00  0.00    -0.142 NA 
HETATM   21  C   UNL     1      -8.424   8.186  68.757  1.00  0.00    -0.126 C  
BRANCH  20  22
HETATM   22  C   UNL     1     -10.644   7.378  68.632  1.00  0.00    -0.154 C  
BRANCH  22  23
HETATM   23  C   UNL     1     -10.378   6.395  69.774  1.00  0.00    -0.246 C  
HETATM   24  C   UNL     1     -10.418   6.957  71.218  1.00  0.00    -0.228 C  
HETATM   25  C   UNL     1      -9.804   5.887  72.136  1.00  0.00    -0.185 A  
HETATM   26  C   UNL     1     -11.805   7.483  71.595  1.00  0.00    -0.322 A  
HETATM   27  C   UNL     1      -8.676   6.186  72.914  1.00  0.00    -0.122 A  
HETATM   28  C   UNL     1     -12.815   6.688  72.158  1.00  0.00    -0.078 A  
HETATM   29  C   UNL     1      -7.976   5.169  73.573  1.00  0.00    -0.110 A  
HETATM   30  C   UNL     1     -14.102   7.190  72.365  1.00  0.00     0.128 A  
HETATM   31  C   UNL     1     -14.410   8.500  72.019  1.00  0.00    -0.537 A  
HETATM   32  C   UNL     1      -8.402   3.845  73.480  1.00  0.00    -0.088 A  
HETATM   33  C   UNL     1      -9.545   3.537  72.754  1.00  0.00    -0.182 A  
HETATM   34  C   UNL     1     -13.423   9.318  71.481  1.00  0.00    -0.437 A  
HETATM   35  C   UNL     1     -12.133   8.815  71.281  1.00  0.00    -0.344 A  
HETATM   36  C   UNL     1     -10.238   4.547  72.089  1.00  0.00    -0.256 A  
ENDBRANCH  22  23
ENDBRANCH  20  22
ENDBRANCH  16  20
ENDBRANCH  13  15
ENDBRANCH  11  13
BRANCH  12  37
HETATM   37  C   UNL     1      -7.904  14.860  67.844  1.00  0.00    -0.145 A  
HETATM   38  O   UNL     1      -7.315  18.534  69.668  1.00  0.00     0.074 OA 
HETATM   39  C   UNL     1      -7.732  16.078  68.530  1.00  0.00    -0.158 A  
HETATM   40  O   UNL     1      -5.134  18.310  69.589  1.00  0.00    -0.174 OA 
HETATM   41  C   UNL     1      -5.487  14.628  67.723  1.00  0.00    -0.042 A  
HETATM   42  C   UNL     1      -6.447  16.585  68.755  1.00  0.00    -0.152 A  
HETATM   43  N   UNL     1      -6.288  17.903  69.386  1.00  0.00    -0.247 N  
HETATM   44  C   UNL     1      -5.320  15.861  68.356  1.00  0.00    -0.103 A  
HETATM   45  C   UNL     1      -6.768  14.133  67.464  1.00  0.00    -0.127 A  
ENDBRANCH  12  37
ENDBRANCH   3   5
ENDBRANCH   2   3
TORSDOF 8
ENDMDL
MODEL      222
REMARK 921   NORMALIZED FREE ENERGY PREDICTED BY IDOCK:   -1.61 KCAL/MOL
REMARK 922        TOTAL FREE ENERGY PREDICTED BY IDOCK:   -4.28 KCAL/MOL
REMARK 923 INTER-LIGAND FREE ENERGY PREDICTED BY IDOCK:   -7.15 KCAL/MOL
REMARK 924 INTRA-LIGAND FREE ENERGY PREDICTED BY IDOCK:    2.87 KCAL/MOL
REMARK 927      BINDING AFFINITY PREDICTED BY RF-SCORE:    0.00 PKD
ROOT
HETATM    1  C   UNL     1      -6.094   6.945  71.716  1.00  0.00    -0.038 C  
HETATM    2  O   UNL     1      -6.072   7.976  70.724  1.00  0.00    -0.033 OA 
ENDROOT
BRANCH   2   3
HETATM    3  C   UNL     1      -5.763   9.201  71.229  1.00  0.00    -0.056 C  
HETATM    4  O   UNL     1      -5.180   9.379  72.287  1.00  0.00    -0.070 OA 
BRANCH   3   5
HETATM    5  C   UNL     1      -6.226  10.282  70.317  1.00  0.00    -0.113 C  
HETATM    6  C   UNL     1      -5.901  11.578  70.545  1.00  0.00    -0.129 C  
HETATM    7  N   UNL     1      -6.294  12.550  69.641  1.00  0.00    -0.122 NA 
HETATM    8  C   UNL     1      -5.143  12.145  71.722  1.00  0.00     0.023 C  
HETATM    9  C   UNL     1      -7.166  12.355  68.591  1.00  0.00    -0.104 C  
HETATM   10  C   UNL     1      -7.539  13.606  67.826  1.00  0.00    -0.167 C  
HETATM   11  C   UNL     1      -7.611  11.106  68.311  1.00  0.00    -0.111 C  
HETATM   12  C   UNL     1      -7.100   9.894  69.103  1.00  0.00    -0.069 C  
BRANCH  11  13
HETATM   13  C   UNL     1      -8.656  10.960  67.265  1.00  0.00    -0.128 C  
HETATM   14  O   UNL     1      -8.620  10.080  66.419  1.00  0.00    -0.127 OA 
BRANCH  13  15
HETATM   15  O   UNL     1      -9.669  11.844  67.429  1.00  0.00    -0.182 OA 
HETATM   16  C   UNL     1     -12.030  12.541  67.622  1.00  0.00    -0.221 C  
HETATM   17  C   UNL     1     -11.128  10.515  68.857  1.00  0.00    -0.312 C  
HETATM   18  C   UNL     1     -11.031  11.333  67.558  1.00  0.00    -0.265 C  
HETATM   19  C   UNL     1     -11.478  10.494  66.338  1.00  0.00     0.799 C  
BRANCH  16  20
HETATM   20  N   UNL     1     -11.918  13.515  68.738  1.00  0.00    -0.350 NA 
HETATM   21  C   UNL     1     -11.956  12.827  70.032  1.00  0.00    -0.301 C  
BRANCH  20  22
HETATM   22  C   UNL     1     -10.629  14.239  68.675  1.00  0.00    -0.250 C  
BRANCH  22  23
HETATM   23  C   UNL     1     -10.693  15.692  68.202  1.00  0.00    -0.287 C  
HETATM   24  C   UNL     1      -9.930  16.049  66.900  1.00  0.00    -0.255 C  
HETATM   25  C   UNL     1      -9.865  17.584  66.821  1.00  0.00    -0.306 A  
HETATM   26  C   UNL     1     -10.493  15.314  65.681  1.00  0.00    -0.377 A  
HETATM   27  C   UNL     1      -8.624  18.236  66.769  1.00  0.00    -0.271 A  
HETATM   28  C   UNL     1     -11.542  15.806  64.889  1.00  0.00    -0.104 A  
HETATM   29  C   UNL     1      -8.542  19.624  66.926  1.00  0.00    -0.359 A  
HETATM   30  C   UNL     1     -12.100  15.036  63.865  1.00  0.00     0.058 A  
HETATM   31  C   UNL     1     -11.620  13.758  63.605  1.00  0.00     0.011 A  
HETATM   32  C   UNL     1      -9.698  20.380  67.119  1.00  0.00    -0.601 A  
HETATM   33  C   UNL     1     -10.939  19.757  67.125  1.00  0.00    -0.351 A  
HETATM   34  C   UNL     1     -10.566  13.254  64.359  1.00  0.00    -0.438 A  
HETATM   35  C   UNL     1     -10.004  14.029  65.379  1.00  0.00    -0.292 A  
HETATM   36  C   UNL     1     -11.021  18.373  66.977  1.00  0.00    -0.065 A  
ENDBRANCH  22  23
ENDBRANCH  20  22
ENDBRANCH  16  20
ENDBRANCH  13  15
ENDBRANCH  11  13
BRANCH  12  37
HETATM   37  C   UNL     1      -8.256   8.975  69.508  1.00  0.00    -0.114 A  
HETATM   38  O   UNL     1      -9.996   6.405  66.761  1.00  0.00    -0.162 OA 
HETATM   39  C   UNL     1      -8.783   8.057  68.578  1.00  0.00    -0.131 A  
HETATM   40  O   UNL     1     -11.478   5.719  68.225  1.00  0.00     0.308 OA 
HETATM   41  C   UNL     1      -9.921   8.241  71.120  1.00  0.00    -0.230 A  
HETATM   42  C   UNL     1      -9.904   7.285  68.906  1.00  0.00    -0.158 A  
HETATM   43  N   UNL     1     -10.499   6.404  67.892  1.00  0.00    -0.193 N  
HETATM   44  C   UNL     1     -10.474   7.371  70.178  1.00  0.00    -0.228 A  
HETATM   45  C   UNL     1      -8.824   9.040  70.786  1.00  0.00    -0.281 A  
ENDBRANCH  12  37
ENDBRANCH   3   5
ENDBRANCH   2   3
TORSDOF 8
ENDMDL
MODEL      223
REMARK 921   NORMALIZED FREE ENERGY PREDICTED BY IDOCK:   -1.58 KCAL/MOL
REMARK 922        TOTAL FREE ENERGY PREDICTED BY IDOCK:   -4.24 KCAL/MOL
REMARK 923 INTER-LIGAND FREE ENERGY PREDICTED BY IDOCK:   -7.09 KCAL/MOL
REMARK 924 INTRA-LIGAND FREE ENERGY PREDICTED BY IDOCK:    2.85 KCAL/MOL
REMARK 927      BINDING AFFINITY PREDICTED BY RF-SCORE:    0.00 PKD
ROOT
HETATM    1  C   UNL     1     -10.223   6.091  66.432  1.00  0.00    -0.076 C  
HETATM    2  O   UNL     1      -8.999   5.872  65.723  1.00  0.00    -0.157 OA 
ENDROOT
BRANCH   2   3
HETATM    3  C   UNL     1      -8.112   6.894  65.854  1.00  0.00    -0.119 C  
HETATM    4  O   UNL     1      -7.755   7.616  64.936  1.00  0.00    -0.093 OA 
BRANCH   3   5
HETATM    5  C   UNL     1      -7.642   7.010  67.262  1.00  0.00    -0.108 C  
HETATM    6  C   UNL     1      -7.170   5.931  67.934  1.00  0.00    -0.072 C  
HETATM    7  N   UNL     1      -6.681   6.088  69.219  1.00  0.00    -0.058 NA 
HETATM    8  C   UNL     1      -7.116   4.499  67.456  1.00  0.00    -0.065 C  
HETATM    9  C   UNL     1      -6.794   7.232  69.981  1.00  0.00    -0.055 C  
HETATM   10  C   UNL     1      -6.293   7.108  71.403  1.00  0.00    -0.037 C  
HETATM   11  C   UNL     1      -7.315   8.355  69.430  1.00  0.00    -0.070 C  
HETATM   12  C   UNL     1      -7.714   8.392  67.948  1.00  0.00    -0.103 C  
BRANCH  11  13
HETATM   13  C   UNL     1      -7.550   9.520  70.323  1.00  0.00    -0.155 C  
HETATM   14  O   UNL     1      -7.695   9.404  71.530  1.00  0.00    -0.321 OA 
BRANCH  13  15
HETATM   15  O   UNL     1      -7.488  10.695  69.653  1.00  0.00    -0.150 OA 
HETATM   16  C   UNL     1      -6.446  12.814  68.930  1.00  0.00    -0.091 C  
HETATM   17  C   UNL     1      -5.159  10.625  68.943  1.00  0.00    -0.041 C  
HETATM   18  C   UNL     1      -6.235  11.447  69.671  1.00  0.00    -0.118 C  
HETATM   19  C   UNL     1      -5.778  11.820  71.101  1.00  0.00     0.154 C  
BRANCH  16  20
HETATM   20  N   UNL     1      -6.826  12.807  67.494  1.00  0.00    -0.148 NA 
HETATM   21  C   UNL     1      -7.247  11.467  67.074  1.00  0.00    -0.146 C  
BRANCH  20  22
HETATM   22  C   UNL     1      -7.969  13.713  67.251  1.00  0.00    -0.114 C  
BRANCH  22  23
HETATM   23  C   UNL     1      -9.211  13.481  68.115  1.00  0.00    -0.208 C  
HETATM   24  C   UNL     1     -10.225  14.649  68.228  1.00  0.00    -0.227 C  
HETATM   25  C   UNL     1     -11.181  14.306  69.382  1.00  0.00    -0.313 A  
HETATM   26  C   UNL     1     -10.861  14.993  66.878  1.00  0.00    -0.315 A  
HETATM   27  C   UNL     1     -11.296  15.168  70.483  1.00  0.00    -0.334 A  
HETATM   28  C   UNL     1     -12.022  14.379  66.383  1.00  0.00    -0.402 A  
HETATM   29  C   UNL     1     -11.981  14.764  71.635  1.00  0.00    -0.411 A  
HETATM   30  C   UNL     1     -12.487  14.642  65.092  1.00  0.00    -0.206 A  
HETATM   31  C   UNL     1     -11.805  15.527  64.266  1.00  0.00    -0.179 A  
HETATM   32  C   UNL     1     -12.574  13.504  71.696  1.00  0.00    -0.312 A  
HETATM   33  C   UNL     1     -12.511  12.656  70.598  1.00  0.00    -0.323 A  
HETATM   34  C   UNL     1     -10.665  16.167  64.738  1.00  0.00    -0.191 A  
HETATM   35  C   UNL     1     -10.205  15.908  66.034  1.00  0.00    -0.353 A  
HETATM   36  C   UNL     1     -11.822  13.053  69.454  1.00  0.00    -0.380 A  
ENDBRANCH  22  23
ENDBRANCH  20  22
ENDBRANCH  16  20
ENDBRANCH  13  15
ENDBRANCH  11  13
BRANCH  12  37
HETATM   37  C   UNL     1      -9.087   9.045  67.765  1.00  0.00    -0.143 A  
HETATM   38  O   UNL     1     -10.019  11.111  64.296  1.00  0.00    -0.255 OA 
HETATM   39  C   UNL     1      -9.408   9.678  66.549  1.00  0.00    -0.212 A  
HETATM   40  O   UNL     1     -11.992  11.678  65.071  1.00  0.00    -0.123 OA 
HETATM   41  C   UNL     1     -11.258   9.703  68.639  1.00  0.00    -0.007 A  
HETATM   42  C   UNL     1     -10.621  10.364  66.409  1.00  0.00    -0.127 A  
HETATM   43  N   UNL     1     -10.898  11.100  65.168  1.00  0.00    -0.210 N  
HETATM   44  C   UNL     1     -11.551  10.375  67.451  1.00  0.00     0.479 A  
HETATM   45  C   UNL     1     -10.034   9.047  68.797  1.00  0.00    -0.194 A  
ENDBRANCH  12  37
ENDBRANCH   3   5
ENDBRANCH   2   3
TORSDOF 8
ENDMDL
MODEL      224
REMARK 921   NORMALIZED FREE ENERGY PREDICTED BY IDOCK:   -1.57 KCAL/MOL
REMARK 922        TOTAL FREE ENERGY PREDICTED BY IDOCK:   -4.22 KCAL/MOL
REMARK 923 INTER-LIGAND FREE ENERGY PREDICTED BY IDOCK:   -5.95 KCAL/MOL
REMARK 924 INTRA-LIGAND FREE ENERGY PREDICTED BY IDOCK:    1.73 KCAL/MOL
REMARK 927      BINDING AFFINITY PREDICTED BY RF-SCORE:    0.00 PKD
ROOT
HETATM    1  C   UNL     1     -10.287  18.833  66.477  1.00  0.00    -0.424 C  
HETATM    2  O   UNL     1     -10.352  17.583  67.171  1.00  0.00    -0.320 OA 
ENDROOT
BRANCH   2   3
HETATM    3  C   UNL     1      -9.894  16.535  66.434  1.00  0.00    -0.293 C  
HETATM    4  O   UNL     1      -9.369  16.645  65.337  1.00  0.00    -0.370 OA 
BRANCH   3   5
HETATM    5  C   UNL     1     -10.118  15.248  67.146  1.00  0.00    -0.240 C  
HETATM    6  C   UNL     1     -11.306  14.974  67.741  1.00  0.00    -0.330 C  
HETATM    7  N   UNL     1     -11.502  13.741  68.338  1.00  0.00    -0.294 NA 
HETATM    8  C   UNL     1     -12.506  15.883  67.864  1.00  0.00     1.379 C  
HETATM    9  C   UNL     1     -10.521  12.798  68.558  1.00  0.00    -0.238 C  
HETATM   10  C   UNL     1     -10.963  11.585  69.349  1.00  0.00    -0.233 C  
HETATM   11  C   UNL     1      -9.275  12.999  68.066  1.00  0.00    -0.212 C  
HETATM   12  C   UNL     1      -8.959  14.229  67.204  1.00  0.00    -0.237 C  
BRANCH  11  13
HETATM   13  C   UNL     1      -8.214  12.029  68.446  1.00  0.00    -0.151 C  
HETATM   14  O   UNL     1      -7.232  12.351  69.097  1.00  0.00    -0.053 OA 
BRANCH  13  15
HETATM   15  O   UNL     1      -8.520  10.765  68.068  1.00  0.00    -0.119 OA 
HETATM   16  C   UNL     1      -8.768   8.899  66.471  1.00  0.00    -0.130 C  
HETATM   17  C   UNL     1      -6.698  10.368  66.502  1.00  0.00    -0.099 C  
HETATM   18  C   UNL     1      -8.222  10.352  66.699  1.00  0.00    -0.128 C  
HETATM   19  C   UNL     1      -8.930  11.228  65.639  1.00  0.00    -0.173 C  
BRANCH  16  20
HETATM   20  N   UNL     1      -8.228   7.785  67.294  1.00  0.00    -0.118 NA 
HETATM   21  C   UNL     1      -9.107   7.510  68.434  1.00  0.00    -0.133 C  
BRANCH  20  22
HETATM   22  C   UNL     1      -8.149   6.539  66.501  1.00  0.00    -0.111 C  
BRANCH  22  23
HETATM   23  C   UNL     1      -7.890   5.253  67.288  1.00  0.00    -0.100 C  
HETATM   24  C   UNL     1      -9.068   4.255  67.426  1.00  0.00    -0.155 C  
HETATM   25  C   UNL     1      -8.674   3.237  68.509  1.00  0.00    -0.141 A  
HETATM   26  C   UNL     1      -9.508   3.692  66.071  1.00  0.00    -0.167 A  
HETATM   27  C   UNL     1      -9.469   3.084  69.655  1.00  0.00    -0.177 A  
HETATM   28  C   UNL     1      -8.950   2.546  65.484  1.00  0.00    -0.133 A  
HETATM   29  C   UNL     1      -9.009   2.336  70.745  1.00  0.00    -0.153 A  
HETATM   30  C   UNL     1      -9.302   2.150  64.191  1.00  0.00    -0.129 A  
HETATM   31  C   UNL     1     -10.222   2.887  63.456  1.00  0.00    -0.177 A  
HETATM   32  C   UNL     1      -7.759   1.719  70.699  1.00  0.00    -0.035 A  
HETATM   33  C   UNL     1      -6.980   1.821  69.554  1.00  0.00    -0.033 A  
HETATM   34  C   UNL     1     -10.809   4.014  64.021  1.00  0.00    -0.115 A  
HETATM   35  C   UNL     1     -10.461   4.404  65.319  1.00  0.00    -0.204 A  
HETATM   36  C   UNL     1      -7.433   2.572  68.471  1.00  0.00    -0.047 A  
ENDBRANCH  22  23
ENDBRANCH  20  22
ENDBRANCH  16  20
ENDBRANCH  13  15
ENDBRANCH  11  13
BRANCH  12  37
HETATM   37  C   UNL     1      -7.648  14.887  67.644  1.00  0.00    -0.201 A  
HETATM   38  O   UNL     1      -7.623  18.676  69.323  1.00  0.00    -0.162 OA 
HETATM   39  C   UNL     1      -7.671  16.144  68.280  1.00  0.00    -0.148 A  
HETATM   40  O   UNL     1      -5.434  18.687  69.455  1.00  0.00    -0.201 OA 
HETATM   41  C   UNL     1      -5.220  14.914  67.758  1.00  0.00    -0.029 A  
HETATM   42  C   UNL     1      -6.473  16.797  68.595  1.00  0.00    -0.165 A  
HETATM   43  N   UNL     1      -6.514  18.149  69.169  1.00  0.00    -0.248 N  
HETATM   44  C   UNL     1      -5.244  16.183  68.339  1.00  0.00    -0.100 A  
HETATM   45  C   UNL     1      -6.412  14.273  67.408  1.00  0.00     0.099 A  
ENDBRANCH  12  37
ENDBRANCH   3   5
ENDBRANCH   2   3
TORSDOF 8
ENDMDL
MODEL      225
REMARK 921   NORMALIZED FREE ENERGY PREDICTED BY IDOCK:   -1.54 KCAL/MOL
REMARK 922        TOTAL FREE ENERGY PREDICTED BY IDOCK:   -4.17 KCAL/MOL
REMARK 923 INTER-LIGAND FREE ENERGY PREDICTED BY IDOCK:   -5.98 KCAL/MOL
REMARK 924 INTRA-LIGAND FREE ENERGY PREDICTED BY IDOCK:    1.81 KCAL/MOL
REMARK 927      BINDING AFFINITY PREDICTED BY RF-SCORE:    0.00 PKD
ROOT
HETATM    1  C   UNL     1      -9.441   4.821  65.558  1.00  0.00    -0.163 C  
HETATM    2  O   UNL     1      -9.279   4.615  66.965  1.00  0.00    -0.117 OA 
ENDROOT
BRANCH   2   3
HETATM    3  C   UNL     1      -7.993   4.755  67.384  1.00  0.00    -0.094 C  
HETATM    4  O   UNL     1      -7.399   3.932  68.064  1.00  0.00    -0.061 OA 
BRANCH   3   5
HETATM    5  C   UNL     1      -7.415   6.038  66.900  1.00  0.00    -0.084 C  
HETATM    6  C   UNL     1      -6.238   6.067  66.227  1.00  0.00    -0.037 C  
HETATM    7  N   UNL     1      -5.763   7.269  65.735  1.00  0.00    -0.035 NA 
HETATM    8  C   UNL     1      -5.313   4.908  65.938  1.00  0.00    -0.013 C  
HETATM    9  C   UNL     1      -6.287   8.512  66.023  1.00  0.00    -0.053 C  
HETATM   10  C   UNL     1      -5.507   9.683  65.466  1.00  0.00    -0.045 C  
HETATM   11  C   UNL     1      -7.428   8.606  66.748  1.00  0.00    -0.086 C  
HETATM   12  C   UNL     1      -8.184   7.346  67.192  1.00  0.00    -0.118 C  
BRANCH  11  13
HETATM   13  C   UNL     1      -7.880   9.962  67.156  1.00  0.00    -0.099 C  
HETATM   14  O   UNL     1      -7.671  10.416  68.271  1.00  0.00    -0.093 OA 
BRANCH  13  15
HETATM   15  O   UNL     1      -8.450  10.639  66.132  1.00  0.00    -0.147 OA 
HETATM   16  C   UNL     1      -9.950  10.926  64.191  1.00  0.00    -0.344 C  
HETATM   17  C   UNL     1     -10.734   9.814  66.335  1.00  0.00    -0.013 C  
HETATM   18  C   UNL     1      -9.536  10.002  65.389  1.00  0.00    -0.250 C  
HETATM   19  C   UNL     1      -9.118   8.658  64.747  1.00  0.00     0.176 C  
BRANCH  16  20
HETATM   20  N   UNL     1     -10.476  12.286  64.474  1.00  0.00    -0.293 NA 
HETATM   21  C   UNL     1     -11.814  12.212  65.068  1.00  0.00    -0.298 C  
BRANCH  20  22
HETATM   22  C   UNL     1      -9.612  12.989  65.447  1.00  0.00     0.100 C  
BRANCH  22  23
HETATM   23  C   UNL     1     -10.330  13.724  66.581  1.00  0.00    -0.279 C  
HETATM   24  C   UNL     1      -9.757  13.555  68.012  1.00  0.00    -0.228 C  
HETATM   25  C   UNL     1     -10.815  14.094  68.989  1.00  0.00    -0.273 A  
HETATM   26  C   UNL     1      -8.341  14.124  68.138  1.00  0.00    -0.161 A  
HETATM   27  C   UNL     1     -11.354  13.257  69.978  1.00  0.00     0.010 A  
HETATM   28  C   UNL     1      -8.064  15.460  68.468  1.00  0.00    -0.142 A  
HETATM   29  C   UNL     1     -12.471  13.660  70.719  1.00  0.00    -0.432 A  
HETATM   30  C   UNL     1      -6.757  15.955  68.445  1.00  0.00    -0.116 A  
HETATM   31  C   UNL     1      -5.698  15.128  68.096  1.00  0.00    -0.139 A  
HETATM   32  C   UNL     1     -13.052  14.908  70.497  1.00  0.00    -0.299 A  
HETATM   33  C   UNL     1     -12.502  15.768  69.555  1.00  0.00     0.046 A  
HETATM   34  C   UNL     1      -5.940  13.794  67.787  1.00  0.00    -0.124 A  
HETATM   35  C   UNL     1      -7.248  13.298  67.817  1.00  0.00    -0.151 A  
HETATM   36  C   UNL     1     -11.396  15.365  68.810  1.00  0.00    -0.328 A  
ENDBRANCH  22  23
ENDBRANCH  20  22
ENDBRANCH  16  20
ENDBRANCH  13  15
ENDBRANCH  11  13
BRANCH  12  37
HETATM   37  C   UNL     1      -8.599   7.443  68.663  1.00  0.00    -0.129 A  
HETATM   38  O   UNL     1     -12.062   9.430  69.773  1.00  0.00     0.296 OA 
HETATM   39  C   UNL     1      -9.817   8.059  69.011  1.00  0.00    -0.178 A  
HETATM   40  O   UNL     1     -11.663   9.096  71.904  1.00  0.00    -0.357 OA 
HETATM   41  C   UNL     1      -8.138   7.105  71.026  1.00  0.00    -0.104 A  
HETATM   42  C   UNL     1     -10.156   8.242  70.357  1.00  0.00    -0.190 A  
HETATM   43  N   UNL     1     -11.384   8.972  70.702  1.00  0.00    -0.264 N  
HETATM   44  C   UNL     1      -9.320   7.762  71.368  1.00  0.00    -0.165 A  
HETATM   45  C   UNL     1      -7.777   6.950  69.684  1.00  0.00    -0.110 A  
ENDBRANCH  12  37
ENDBRANCH   3   5
ENDBRANCH   2   3
TORSDOF 8
ENDMDL
MODEL      226
REMARK 921   NORMALIZED FREE ENERGY PREDICTED BY IDOCK:   -1.38 KCAL/MOL
REMARK 922        TOTAL FREE ENERGY PREDICTED BY IDOCK:   -3.93 KCAL/MOL
REMARK 923 INTER-LIGAND FREE ENERGY PREDICTED BY IDOCK:   -5.98 KCAL/MOL
REMARK 924 INTRA-LIGAND FREE ENERGY PREDICTED BY IDOCK:    2.05 KCAL/MOL
REMARK 927      BINDING AFFINITY PREDICTED BY RF-SCORE:    0.00 PKD
ROOT
HETATM    1  C   UNL     1      -6.414   4.090  71.653  1.00  0.00    -0.015 C  
HETATM    2  O   UNL     1      -6.193   3.291  70.485  1.00  0.00    -0.022 OA 
ENDROOT
BRANCH   2   3
HETATM    3  C   UNL     1      -7.343   2.939  69.850  1.00  0.00    -0.044 C  
HETATM    4  O   UNL     1      -7.537   1.847  69.338  1.00  0.00    -0.043 OA 
BRANCH   3   5
HETATM    5  C   UNL     1      -8.324   4.058  69.870  1.00  0.00    -0.081 C  
HETATM    6  C   UNL     1      -9.429   4.009  70.654  1.00  0.00    -0.170 C  
HETATM    7  N   UNL     1     -10.284   5.095  70.697  1.00  0.00    -0.253 NA 
HETATM    8  C   UNL     1      -9.891   2.863  71.523  1.00  0.00    -0.195 C  
HETATM    9  C   UNL     1     -10.227   6.189  69.859  1.00  0.00    -0.192 C  
HETATM   10  C   UNL     1     -11.357   7.182  70.021  1.00  0.00    -0.242 C  
HETATM   11  C   UNL     1      -9.199   6.310  68.984  1.00  0.00    -0.127 C  
HETATM   12  C   UNL     1      -8.059   5.281  68.964  1.00  0.00    -0.086 C  
BRANCH  11  13
HETATM   13  C   UNL     1      -9.250   7.426  68.005  1.00  0.00    -0.132 C  
HETATM   14  O   UNL     1      -9.669   7.283  66.866  1.00  0.00    -0.171 OA 
BRANCH  13  15
HETATM   15  O   UNL     1      -8.871   8.604  68.554  1.00  0.00    -0.140 OA 
HETATM   16  C   UNL     1      -7.381  10.115  69.818  1.00  0.00    -0.158 C  
HETATM   17  C   UNL     1      -6.491   8.533  68.042  1.00  0.00    -0.057 C  
HETATM   18  C   UNL     1      -7.541   8.703  69.152  1.00  0.00    -0.089 C  
HETATM   19  C   UNL     1      -7.316   7.683  70.292  1.00  0.00    -0.071 C  
BRANCH  16  20
HETATM   20  N   UNL     1      -7.470  11.330  68.968  1.00  0.00    -0.127 NA 
HETATM   21  C   UNL     1      -7.305  10.987  67.552  1.00  0.00    -0.101 C  
BRANCH  20  22
HETATM   22  C   UNL     1      -8.799  11.967  69.103  1.00  0.00     0.488 C  
BRANCH  22  23
HETATM   23  C   UNL     1      -9.446  12.460  67.808  1.00  0.00    -0.199 C  
HETATM   24  C   UNL     1     -10.951  12.833  67.864  1.00  0.00    -0.262 C  
HETATM   25  C   UNL     1     -11.436  12.970  66.411  1.00  0.00    -0.384 A  
HETATM   26  C   UNL     1     -11.218  14.015  68.800  1.00  0.00    -0.298 A  
HETATM   27  C   UNL     1     -12.483  12.165  65.937  1.00  0.00     0.626 A  
HETATM   28  C   UNL     1     -11.170  15.358  68.395  1.00  0.00    -0.318 A  
HETATM   29  C   UNL     1     -12.780  12.115  64.571  1.00  0.00    -0.245 A  
HETATM   30  C   UNL     1     -11.298  16.398  69.319  1.00  0.00    -0.225 A  
HETATM   31  C   UNL     1     -11.481  16.122  70.668  1.00  0.00    -0.386 A  
HETATM   32  C   UNL     1     -12.051  12.882  63.663  1.00  0.00    -0.611 A  
HETATM   33  C   UNL     1     -11.043  13.721  64.120  1.00  0.00    -0.192 A  
HETATM   34  C   UNL     1     -11.556  14.801  71.094  1.00  0.00    -0.320 A  
HETATM   35  C   UNL     1     -11.435  13.760  70.167  1.00  0.00    -0.140 A  
HETATM   36  C   UNL     1     -10.739  13.764  65.479  1.00  0.00    -0.304 A  
ENDBRANCH  22  23
ENDBRANCH  20  22
ENDBRANCH  16  20
ENDBRANCH  13  15
ENDBRANCH  11  13
BRANCH  12  37
HETATM   37  C   UNL     1      -7.723   4.862  67.529  1.00  0.00    -0.091 A  
HETATM   38  O   UNL     1     -10.693   3.607  64.926  1.00  0.00     0.001 OA 
HETATM   39  C   UNL     1      -8.757   4.510  66.640  1.00  0.00    -0.111 A  
HETATM   40  O   UNL     1      -9.234   3.178  63.346  1.00  0.00    -0.095 OA 
HETATM   41  C   UNL     1      -6.102   4.351  65.791  1.00  0.00    -0.027 A  
HETATM   42  C   UNL     1      -8.453   4.030  65.360  1.00  0.00    -0.109 A  
HETATM   43  N   UNL     1      -9.539   3.576  64.480  1.00  0.00    -0.158 N  
HETATM   44  C   UNL     1      -7.126   3.953  64.930  1.00  0.00    -0.066 A  
HETATM   45  C   UNL     1      -6.398   4.798  67.082  1.00  0.00    -0.040 A  
ENDBRANCH  12  37
ENDBRANCH   3   5
ENDBRANCH   2   3
TORSDOF 8
ENDMDL
MODEL      227
REMARK 921   NORMALIZED FREE ENERGY PREDICTED BY IDOCK:   -1.35 KCAL/MOL
REMARK 922        TOTAL FREE ENERGY PREDICTED BY IDOCK:   -3.89 KCAL/MOL
REMARK 923 INTER-LIGAND FREE ENERGY PREDICTED BY IDOCK:   -6.18 KCAL/MOL
REMARK 924 INTRA-LIGAND FREE ENERGY PREDICTED BY IDOCK:    2.29 KCAL/MOL
REMARK 927      BINDING AFFINITY PREDICTED BY RF-SCORE:    0.00 PKD
ROOT
HETATM    1  C   UNL     1      -9.267   3.001  71.510  1.00  0.00    -0.115 C  
HETATM    2  O   UNL     1      -8.727   3.711  70.390  1.00  0.00    -0.067 OA 
ENDROOT
BRANCH   2   3
HETATM    3  C   UNL     1      -9.605   4.591  69.838  1.00  0.00    -0.199 C  
HETATM    4  O   UNL     1     -10.631   4.969  70.383  1.00  0.00    -0.215 OA 
BRANCH   3   5
HETATM    5  C   UNL     1      -9.143   5.026  68.493  1.00  0.00    -0.136 C  
HETATM    6  C   UNL     1      -9.212   4.194  67.424  1.00  0.00    -0.157 C  
HETATM    7  N   UNL     1      -8.834   4.653  66.175  1.00  0.00    -0.117 NA 
HETATM    8  C   UNL     1      -9.651   2.748  67.410  1.00  0.00     0.022 C  
HETATM    9  C   UNL     1      -8.203   5.853  65.925  1.00  0.00    -0.127 C  
HETATM   10  C   UNL     1      -7.776   6.066  64.489  1.00  0.00    -0.100 C  
HETATM   11  C   UNL     1      -8.019   6.738  66.934  1.00  0.00    -0.109 C  
HETATM   12  C   UNL     1      -8.570   6.453  68.339  1.00  0.00    -0.115 C  
BRANCH  11  13
HETATM   13  C   UNL     1      -7.211   7.953  66.654  1.00  0.00    -0.084 C  
HETATM   14  O   UNL     1      -6.124   7.905  66.097  1.00  0.00    -0.040 OA 
BRANCH  13  15
HETATM   15  O   UNL     1      -7.861   9.089  67.000  1.00  0.00    -0.097 OA 
HETATM   16  C   UNL     1      -9.517  10.899  66.725  1.00  0.00    -0.177 C  
HETATM   17  C   UNL     1     -10.125   8.462  66.357  1.00  0.00    -0.242 C  
HETATM   18  C   UNL     1      -9.010   9.509  66.202  1.00  0.00    -0.158 C  
HETATM   19  C   UNL     1      -8.659   9.733  64.713  1.00  0.00    -0.195 C  
BRANCH  16  20
HETATM   20  N   UNL     1     -10.006  11.012  68.123  1.00  0.00    -0.172 NA 
HETATM   21  C   UNL     1      -8.932  11.460  69.015  1.00  0.00     0.090 C  
BRANCH  20  22
HETATM   22  C   UNL     1     -11.090  12.013  68.220  1.00  0.00    -0.243 C  
BRANCH  22  23
HETATM   23  C   UNL     1     -10.652  13.471  68.378  1.00  0.00    -0.258 C  
HETATM   24  C   UNL     1      -9.869  14.108  67.201  1.00  0.00    -0.253 C  
HETATM   25  C   UNL     1      -9.264  15.423  67.720  1.00  0.00    -0.183 A  
HETATM   26  C   UNL     1     -10.710  14.187  65.924  1.00  0.00    -0.298 A  
HETATM   27  C   UNL     1      -7.875  15.621  67.691  1.00  0.00    -0.173 A  
HETATM   28  C   UNL     1     -11.548  15.267  65.607  1.00  0.00    -0.039 A  
HETATM   29  C   UNL     1      -7.297  16.705  68.362  1.00  0.00    -0.190 A  
HETATM   30  C   UNL     1     -12.388  15.229  64.490  1.00  0.00    -0.144 A  
HETATM   31  C   UNL     1     -12.407  14.114  63.663  1.00  0.00     0.006 A  
HETATM   32  C   UNL     1      -8.097  17.613  69.054  1.00  0.00    -0.066 A  
HETATM   33  C   UNL     1      -9.477  17.459  69.053  1.00  0.00    -0.119 A  
HETATM   34  C   UNL     1     -11.571  13.038  63.939  1.00  0.00    -0.508 A  
HETATM   35  C   UNL     1     -10.725  13.081  65.053  1.00  0.00    -0.333 A  
HETATM   36  C   UNL     1     -10.054  16.376  68.393  1.00  0.00    -0.245 A  
ENDBRANCH  22  23
ENDBRANCH  20  22
ENDBRANCH  16  20
ENDBRANCH  13  15
ENDBRANCH  11  13
BRANCH  12  37
HETATM   37  C   UNL     1      -7.522   6.761  69.413  1.00  0.00    -0.094 A  
HETATM   38  O   UNL     1      -8.517   6.717  73.436  1.00  0.00    -0.118 OA 
HETATM   39  C   UNL     1      -7.864   6.668  70.776  1.00  0.00    -0.105 A  
HETATM   40  O   UNL     1      -6.500   7.352  74.021  1.00  0.00    -0.075 OA 
HETATM   41  C   UNL     1      -5.298   7.500  70.059  1.00  0.00    -0.023 A  
HETATM   42  C   UNL     1      -6.943   7.045  71.762  1.00  0.00    -0.068 A  
HETATM   43  N   UNL     1      -7.348   7.033  73.174  1.00  0.00    -0.073 N  
HETATM   44  C   UNL     1      -5.657   7.458  71.407  1.00  0.00    -0.035 A  
HETATM   45  C   UNL     1      -6.224   7.159  69.069  1.00  0.00    -0.031 A  
ENDBRANCH  12  37
ENDBRANCH   3   5
ENDBRANCH   2   3
TORSDOF 8
ENDMDL
MODEL      228
REMARK 921   NORMALIZED FREE ENERGY PREDICTED BY IDOCK:   -1.29 KCAL/MOL
REMARK 922        TOTAL FREE ENERGY PREDICTED BY IDOCK:   -3.80 KCAL/MOL
REMARK 923 INTER-LIGAND FREE ENERGY PREDICTED BY IDOCK:   -4.99 KCAL/MOL
REMARK 924 INTRA-LIGAND FREE ENERGY PREDICTED BY IDOCK:    1.18 KCAL/MOL
REMARK 927      BINDING AFFINITY PREDICTED BY RF-SCORE:    0.00 PKD
ROOT
HETATM    1  C   UNL     1     -10.130  13.800  65.811  1.00  0.00    -0.307 C  
HETATM    2  O   UNL     1      -8.726  13.767  66.090  1.00  0.00     0.229 OA 
ENDROOT
BRANCH   2   3
HETATM    3  C   UNL     1      -8.434  13.261  67.318  1.00  0.00    -0.201 C  
HETATM    4  O   UNL     1      -7.709  13.812  68.132  1.00  0.00    -0.116 OA 
BRANCH   3   5
HETATM    5  C   UNL     1      -9.117  11.956  67.530  1.00  0.00    -0.178 C  
HETATM    6  C   UNL     1      -8.977  10.939  66.644  1.00  0.00    -0.164 C  
HETATM    7  N   UNL     1      -9.573   9.719  66.906  1.00  0.00    -0.172 NA 
HETATM    8  C   UNL     1      -8.234  10.960  65.329  1.00  0.00     0.022 C  
HETATM    9  C   UNL     1     -10.476   9.474  67.919  1.00  0.00    -0.241 C  
HETATM   10  C   UNL     1     -11.086   8.089  67.914  1.00  0.00     0.278 C  
HETATM   11  C   UNL     1     -10.745  10.444  68.826  1.00  0.00    -0.255 C  
HETATM   12  C   UNL     1     -10.003  11.787  68.784  1.00  0.00    -0.128 C  
BRANCH  11  13
HETATM   13  C   UNL     1     -11.826  10.189  69.814  1.00  0.00    -0.088 C  
HETATM   14  O   UNL     1     -12.987  10.515  69.617  1.00  0.00    -0.088 OA 
BRANCH  13  15
HETATM   15  O   UNL     1     -11.384   9.486  70.883  1.00  0.00    -0.285 OA 
HETATM   16  C   UNL     1     -11.622   8.067  72.890  1.00  0.00    -0.218 C  
HETATM   17  C   UNL     1     -12.877   7.567  70.741  1.00  0.00     0.031 C  
HETATM   18  C   UNL     1     -12.344   8.690  71.645  1.00  0.00    -0.333 C  
HETATM   19  C   UNL     1     -13.503   9.537  72.222  1.00  0.00    -0.521 C  
BRANCH  16  20
HETATM   20  N   UNL     1     -10.489   7.130  72.676  1.00  0.00    -0.220 NA 
HETATM   21  C   UNL     1     -10.978   5.809  72.270  1.00  0.00    -0.262 C  
BRANCH  20  22
HETATM   22  C   UNL     1      -9.608   7.614  71.591  1.00  0.00    -0.153 C  
BRANCH  22  23
HETATM   23  C   UNL     1      -9.497   6.714  70.358  1.00  0.00    -0.170 C  
HETATM   24  C   UNL     1      -8.081   6.494  69.765  1.00  0.00    -0.125 C  
HETATM   25  C   UNL     1      -8.266   5.854  68.379  1.00  0.00    -0.109 A  
HETATM   26  C   UNL     1      -7.151   5.772  70.745  1.00  0.00    -0.070 A  
HETATM   27  C   UNL     1      -7.765   6.492  67.235  1.00  0.00    -0.101 A  
HETATM   28  C   UNL     1      -7.045   4.376  70.835  1.00  0.00    -0.037 A  
HETATM   29  C   UNL     1      -8.120   6.043  65.958  1.00  0.00    -0.113 A  
HETATM   30  C   UNL     1      -6.275   3.771  71.832  1.00  0.00    -0.014 A  
HETATM   31  C   UNL     1      -5.591   4.546  72.760  1.00  0.00    -0.008 A  
HETATM   32  C   UNL     1      -8.964   4.944  65.806  1.00  0.00    -0.142 A  
HETATM   33  C   UNL     1      -9.431   4.271  66.928  1.00  0.00    -0.205 A  
HETATM   34  C   UNL     1      -5.659   5.933  72.680  1.00  0.00    -0.031 A  
HETATM   35  C   UNL     1      -6.425   6.537  71.677  1.00  0.00    -0.050 A  
HETATM   36  C   UNL     1      -9.086   4.722  68.201  1.00  0.00    -0.141 A  
ENDBRANCH  22  23
ENDBRANCH  20  22
ENDBRANCH  16  20
ENDBRANCH  13  15
ENDBRANCH  11  13
BRANCH  12  37
HETATM   37  C   UNL     1     -10.976  12.958  68.953  1.00  0.00    -0.271 A  
HETATM   38  O   UNL     1     -11.404  14.864  72.608  1.00  0.00    -0.188 OA 
HETATM   39  C   UNL     1     -11.051  13.638  70.184  1.00  0.00     0.289 A  
HETATM   40  O   UNL     1     -12.980  16.175  71.827  1.00  0.00    -0.323 OA 
HETATM   41  C   UNL     1     -12.748  14.386  68.097  1.00  0.00     0.879 A  
HETATM   42  C   UNL     1     -12.008  14.642  70.378  1.00  0.00    -0.311 A  
HETATM   43  N   UNL     1     -12.137  15.275  71.698  1.00  0.00    -0.328 N  
HETATM   44  C   UNL     1     -12.856  15.022  69.335  1.00  0.00     0.344 A  
HETATM   45  C   UNL     1     -11.819  13.358  67.909  1.00  0.00    -0.392 A  
ENDBRANCH  12  37
ENDBRANCH   3   5
ENDBRANCH   2   3
TORSDOF 8
ENDMDL
MODEL      229
REMARK 921   NORMALIZED FREE ENERGY PREDICTED BY IDOCK:   -1.29 KCAL/MOL
REMARK 922        TOTAL FREE ENERGY PREDICTED BY IDOCK:   -3.80 KCAL/MOL
REMARK 923 INTER-LIGAND FREE ENERGY PREDICTED BY IDOCK:   -6.82 KCAL/MOL
REMARK 924 INTRA-LIGAND FREE ENERGY PREDICTED BY IDOCK:    3.02 KCAL/MOL
REMARK 927      BINDING AFFINITY PREDICTED BY RF-SCORE:    0.00 PKD
ROOT
HETATM    1  C   UNL     1     -13.041  12.883  64.698  1.00  0.00     0.054 C  
HETATM    2  O   UNL     1     -11.724  12.362  64.911  1.00  0.00    -0.340 OA 
ENDROOT
BRANCH   2   3
HETATM    3  C   UNL     1     -10.767  13.327  64.969  1.00  0.00    -0.333 C  
HETATM    4  O   UNL     1     -10.733  14.304  64.238  1.00  0.00    -0.220 OA 
BRANCH   3   5
HETATM    5  C   UNL     1      -9.780  13.029  66.042  1.00  0.00    -0.223 C  
HETATM    6  C   UNL     1      -9.206  14.024  66.762  1.00  0.00    -0.265 C  
HETATM    7  N   UNL     1      -8.342  13.708  67.796  1.00  0.00    -0.166 NA 
HETATM    8  C   UNL     1      -9.372  15.514  66.571  1.00  0.00    -0.311 C  
HETATM    9  C   UNL     1      -7.847  12.450  68.064  1.00  0.00    -0.141 C  
HETATM   10  C   UNL     1      -6.814  12.387  69.169  1.00  0.00    -0.069 C  
HETATM   11  C   UNL     1      -8.301  11.386  67.358  1.00  0.00    -0.144 C  
HETATM   12  C   UNL     1      -9.415  11.553  66.314  1.00  0.00    -0.235 C  
BRANCH  11  13
HETATM   13  C   UNL     1      -7.641  10.073  67.579  1.00  0.00    -0.091 C  
HETATM   14  O   UNL     1      -6.715   9.679  66.887  1.00  0.00    -0.073 OA 
BRANCH  13  15
HETATM   15  O   UNL     1      -8.123   9.438  68.673  1.00  0.00    -0.101 OA 
HETATM   16  C   UNL     1      -9.408   7.707  69.878  1.00  0.00    -0.150 C  
HETATM   17  C   UNL     1      -7.892   7.131  67.925  1.00  0.00    -0.114 C  
HETATM   18  C   UNL     1      -8.856   8.187  68.490  1.00  0.00    -0.134 C  
HETATM   19  C   UNL     1     -10.101   8.345  67.585  1.00  0.00    -0.268 C  
BRANCH  16  20
HETATM   20  N   UNL     1      -8.449   7.391  70.968  1.00  0.00    -0.118 NA 
HETATM   21  C   UNL     1      -8.612   8.321  72.089  1.00  0.00    -0.188 C  
BRANCH  20  22
HETATM   22  C   UNL     1      -8.691   6.032  71.500  1.00  0.00    -0.132 C  
BRANCH  22  23
HETATM   23  C   UNL     1      -8.646   4.890  70.482  1.00  0.00    -0.122 C  
HETATM   24  C   UNL     1      -8.057   3.537  70.959  1.00  0.00    -0.070 C  
HETATM   25  C   UNL     1      -7.814   2.683  69.703  1.00  0.00    -0.049 A  
HETATM   26  C   UNL     1      -8.892   2.906  72.077  1.00  0.00    -0.119 A  
HETATM   27  C   UNL     1      -6.525   2.217  69.405  1.00  0.00    -0.029 A  
HETATM   28  C   UNL     1      -9.982   2.053  71.850  1.00  0.00    -0.222 A  
HETATM   29  C   UNL     1      -6.247   1.639  68.162  1.00  0.00    -0.025 A  
HETATM   30  C   UNL     1     -10.785   1.607  72.904  1.00  0.00    -0.238 A  
HETATM   31  C   UNL     1     -10.515   2.001  74.208  1.00  0.00    -0.188 A  
HETATM   32  C   UNL     1      -7.254   1.502  67.207  1.00  0.00    -0.046 A  
HETATM   33  C   UNL     1      -8.547   1.914  67.503  1.00  0.00    -0.107 A  
HETATM   34  C   UNL     1      -9.427   2.828  74.465  1.00  0.00    -0.117 A  
HETATM   35  C   UNL     1      -8.620   3.267  73.410  1.00  0.00    -0.078 A  
HETATM   36  C   UNL     1      -8.824   2.498  68.738  1.00  0.00    -0.154 A  
ENDBRANCH  22  23
ENDBRANCH  20  22
ENDBRANCH  16  20
ENDBRANCH  13  15
ENDBRANCH  11  13
BRANCH  12  37
HETATM   37  C   UNL     1      -9.072  10.807  65.021  1.00  0.00    -0.226 A  
HETATM   38  O   UNL     1      -5.359   9.038  64.503  1.00  0.00    -0.052 OA 
HETATM   39  C   UNL     1      -7.831  10.151  64.897  1.00  0.00    -0.147 A  
HETATM   40  O   UNL     1      -5.855   8.417  62.459  1.00  0.00    -0.081 OA 
HETATM   41  C   UNL     1      -9.607  10.151  62.743  1.00  0.00    -0.217 A  
HETATM   42  C   UNL     1      -7.468   9.553  63.683  1.00  0.00    -0.115 A  
HETATM   43  N   UNL     1      -6.133   8.956  63.540  1.00  0.00    -0.084 N  
HETATM   44  C   UNL     1      -8.356   9.547  62.604  1.00  0.00    -0.168 A  
HETATM   45  C   UNL     1      -9.960  10.780  63.940  1.00  0.00    -0.404 A  
ENDBRANCH  12  37
ENDBRANCH   3   5
ENDBRANCH   2   3
TORSDOF 8
ENDMDL
MODEL      230
REMARK 921   NORMALIZED FREE ENERGY PREDICTED BY IDOCK:   -1.20 KCAL/MOL
REMARK 922        TOTAL FREE ENERGY PREDICTED BY IDOCK:   -3.67 KCAL/MOL
REMARK 923 INTER-LIGAND FREE ENERGY PREDICTED BY IDOCK:   -5.21 KCAL/MOL
REMARK 924 INTRA-LIGAND FREE ENERGY PREDICTED BY IDOCK:    1.55 KCAL/MOL
REMARK 927      BINDING AFFINITY PREDICTED BY RF-SCORE:    0.00 PKD
ROOT
HETATM    1  C   UNL     1      -5.254  17.794  66.212  1.00  0.00    -0.188 C  
HETATM    2  O   UNL     1      -5.370  16.424  66.610  1.00  0.00    -0.338 OA 
ENDROOT
BRANCH   2   3
HETATM    3  C   UNL     1      -6.044  16.259  67.779  1.00  0.00    -0.133 C  
HETATM    4  O   UNL     1      -5.533  16.348  68.885  1.00  0.00    -0.121 OA 
BRANCH   3   5
HETATM    5  C   UNL     1      -7.480  15.960  67.525  1.00  0.00    -0.194 C  
HETATM    6  C   UNL     1      -8.451  16.842  67.869  1.00  0.00    -0.203 C  
HETATM    7  N   UNL     1      -9.769  16.561  67.558  1.00  0.00    -0.239 NA 
HETATM    8  C   UNL     1      -8.287  18.154  68.600  1.00  0.00    -0.289 C  
HETATM    9  C   UNL     1     -10.236  15.354  67.081  1.00  0.00    -0.251 C  
HETATM   10  C   UNL     1     -11.740  15.256  66.944  1.00  0.00     0.010 C  
HETATM   11  C   UNL     1      -9.357  14.372  66.767  1.00  0.00    -0.285 C  
HETATM   12  C   UNL     1      -7.843  14.611  66.865  1.00  0.00     0.090 C  
BRANCH  11  13
HETATM   13  C   UNL     1      -9.906  13.043  66.392  1.00  0.00    -0.270 C  
HETATM   14  O   UNL     1     -10.457  12.838  65.321  1.00  0.00    -0.282 OA 
BRANCH  13  15
HETATM   15  O   UNL     1      -9.638  12.100  67.326  1.00  0.00    -0.181 OA 
HETATM   16  C   UNL     1      -9.958  10.902  69.461  1.00  0.00     0.025 C  
HETATM   17  C   UNL     1     -11.915  11.518  67.966  1.00  0.00    -0.174 C  
HETATM   18  C   UNL     1     -10.536  11.973  68.471  1.00  0.00    -0.231 C  
HETATM   19  C   UNL     1     -10.648  13.277  69.296  1.00  0.00     0.086 C  
BRANCH  16  20
HETATM   20  N   UNL     1      -9.792   9.501  68.995  1.00  0.00    -0.170 NA 
HETATM   21  C   UNL     1     -11.094   8.889  68.713  1.00  0.00     0.223 C  
BRANCH  20  22
HETATM   22  C   UNL     1      -9.015   9.457  67.737  1.00  0.00    -0.122 C  
BRANCH  22  23
HETATM   23  C   UNL     1      -8.679   8.065  67.198  1.00  0.00    -0.134 C  
HETATM   24  C   UNL     1      -7.853   7.128  68.117  1.00  0.00    -0.118 C  
HETATM   25  C   UNL     1      -7.369   5.955  67.249  1.00  0.00    -0.077 A  
HETATM   26  C   UNL     1      -8.603   6.776  69.405  1.00  0.00    -0.132 A  
HETATM   27  C   UNL     1      -5.997   5.697  67.112  1.00  0.00    -0.018 A  
HETATM   28  C   UNL     1      -9.481   5.688  69.525  1.00  0.00    -0.174 A  
HETATM   29  C   UNL     1      -5.537   4.787  66.154  1.00  0.00    -0.017 A  
HETATM   30  C   UNL     1     -10.233   5.487  70.685  1.00  0.00    -0.308 A  
HETATM   31  C   UNL     1     -10.125   6.368  71.754  1.00  0.00    -0.206 A  
HETATM   32  C   UNL     1      -6.438   4.108  65.335  1.00  0.00    -0.036 A  
HETATM   33  C   UNL     1      -7.803   4.315  65.491  1.00  0.00    -0.090 A  
HETATM   34  C   UNL     1      -9.246   7.442  71.673  1.00  0.00    -0.154 A  
HETATM   35  C   UNL     1      -8.487   7.637  70.513  1.00  0.00    -0.128 A  
HETATM   36  C   UNL     1      -8.263   5.229  66.437  1.00  0.00    -0.109 A  
ENDBRANCH  22  23
ENDBRANCH  20  22
ENDBRANCH  16  20
ENDBRANCH  13  15
ENDBRANCH  11  13
BRANCH  12  37
HETATM   37  C   UNL     1      -7.146  13.436  67.557  1.00  0.00    -0.154 A  
HETATM   38  O   UNL     1      -5.811  10.171  65.381  1.00  0.00    -0.078 OA 
HETATM   39  C   UNL     1      -6.634  12.372  66.789  1.00  0.00     0.342 A  
HETATM   40  O   UNL     1      -5.145   9.136  67.197  1.00  0.00    -0.035 OA 
HETATM   41  C   UNL     1      -6.441  12.273  69.572  1.00  0.00    -0.094 A  
HETATM   42  C   UNL     1      -6.086  11.247  67.418  1.00  0.00    -0.066 A  
HETATM   43  N   UNL     1      -5.646  10.105  66.606  1.00  0.00    -0.045 N  
HETATM   44  C   UNL     1      -5.984  11.196  68.811  1.00  0.00    -0.043 A  
HETATM   45  C   UNL     1      -7.022  13.382  68.951  1.00  0.00    -0.102 A  
ENDBRANCH  12  37
ENDBRANCH   3   5
ENDBRANCH   2   3
TORSDOF 8
ENDMDL
MODEL      231
REMARK 921   NORMALIZED FREE ENERGY PREDICTED BY IDOCK:   -1.13 KCAL/MOL
REMARK 922        TOTAL FREE ENERGY PREDICTED BY IDOCK:   -3.56 KCAL/MOL
REMARK 923 INTER-LIGAND FREE ENERGY PREDICTED BY IDOCK:   -4.15 KCAL/MOL
REMARK 924 INTRA-LIGAND FREE ENERGY PREDICTED BY IDOCK:    0.58 KCAL/MOL
REMARK 927      BINDING AFFINITY PREDICTED BY RF-SCORE:    0.00 PKD
ROOT
HETATM    1  C   UNL     1     -14.251  11.671  71.825  1.00  0.00     1.622 C  
HETATM    2  O   UNL     1     -12.980  11.635  71.167  1.00  0.00    -0.328 OA 
ENDROOT
BRANCH   2   3
HETATM    3  C   UNL     1     -12.802  10.525  70.401  1.00  0.00    -0.206 C  
HETATM    4  O   UNL     1     -13.712   9.889  69.894  1.00  0.00     0.600 OA 
BRANCH   3   5
HETATM    5  C   UNL     1     -11.356  10.200  70.269  1.00  0.00    -0.387 C  
HETATM    6  C   UNL     1     -10.669   9.627  71.288  1.00  0.00    -0.247 C  
HETATM    7  N   UNL     1      -9.343   9.278  71.108  1.00  0.00    -0.237 NA 
HETATM    8  C   UNL     1     -11.174   9.316  72.678  1.00  0.00     1.016 C  
HETATM    9  C   UNL     1      -8.568   9.628  70.022  1.00  0.00    -0.215 C  
HETATM   10  C   UNL     1      -7.109   9.237  70.122  1.00  0.00    -0.072 C  
HETATM   11  C   UNL     1      -9.136  10.266  68.970  1.00  0.00    -0.187 C  
HETATM   12  C   UNL     1     -10.647  10.539  68.939  1.00  0.00    -0.243 C  
BRANCH  11  13
HETATM   13  C   UNL     1      -8.241  10.750  67.887  1.00  0.00    -0.113 C  
HETATM   14  O   UNL     1      -8.020  11.936  67.698  1.00  0.00    -0.129 OA 
BRANCH  13  15
HETATM   15  O   UNL     1      -7.648   9.730  67.221  1.00  0.00    -0.088 OA 
HETATM   16  C   UNL     1      -5.841   8.632  65.947  1.00  0.00    -0.047 C  
HETATM   17  C   UNL     1      -5.368   9.997  68.035  1.00  0.00    -0.038 C  
HETATM   18  C   UNL     1      -6.262   9.888  66.789  1.00  0.00    -0.064 C  
HETATM   19  C   UNL     1      -6.058  11.100  65.850  1.00  0.00     0.006 C  
BRANCH  16  20
HETATM   20  N   UNL     1      -5.853   7.293  66.590  1.00  0.00    -0.033 NA 
HETATM   21  C   UNL     1      -5.667   7.411  68.039  1.00  0.00    -0.027 C  
BRANCH  20  22
HETATM   22  C   UNL     1      -7.154   6.622  66.377  1.00  0.00    -0.067 C  
BRANCH  22  23
HETATM   23  C   UNL     1      -7.920   6.217  67.638  1.00  0.00    -0.113 C  
HETATM   24  C   UNL     1      -9.282   5.502  67.443  1.00  0.00    -0.110 C  
HETATM   25  C   UNL     1      -9.992   5.503  68.807  1.00  0.00    -0.231 A  
HETATM   26  C   UNL     1      -9.129   4.150  66.740  1.00  0.00    -0.145 A  
HETATM   27  C   UNL     1     -11.248   6.112  68.948  1.00  0.00    -0.338 A  
HETATM   28  C   UNL     1      -8.889   2.943  67.414  1.00  0.00    -0.160 A  
HETATM   29  C   UNL     1     -11.799   6.320  70.218  1.00  0.00    -0.156 A  
HETATM   30  C   UNL     1      -8.633   1.761  66.715  1.00  0.00    -0.111 A  
HETATM   31  C   UNL     1      -8.613   1.756  65.326  1.00  0.00    -0.109 A  
HETATM   32  C   UNL     1     -11.113   5.907  71.360  1.00  0.00    -0.313 A  
HETATM   33  C   UNL     1      -9.891   5.260  71.236  1.00  0.00    -0.232 A  
HETATM   34  C   UNL     1      -8.869   2.933  64.631  1.00  0.00    -0.112 A  
HETATM   35  C   UNL     1      -9.133   4.114  65.333  1.00  0.00    -0.139 A  
HETATM   36  C   UNL     1      -9.336   5.060  69.973  1.00  0.00    -0.208 A  
ENDBRANCH  22  23
ENDBRANCH  20  22
ENDBRANCH  16  20
ENDBRANCH  13  15
ENDBRANCH  11  13
BRANCH  12  37
HETATM   37  C   UNL     1     -10.936  11.975  68.492  1.00  0.00    -0.280 A  
HETATM   38  O   UNL     1     -10.414  15.160  71.093  1.00  0.00     0.046 OA 
HETATM   39  C   UNL     1     -10.681  13.048  69.369  1.00  0.00     0.138 A  
HETATM   40  O   UNL     1     -11.157  16.594  69.608  1.00  0.00    -0.289 OA 
HETATM   41  C   UNL     1     -11.794  13.559  66.860  1.00  0.00    -0.452 A  
HETATM   42  C   UNL     1     -11.036  14.354  69.007  1.00  0.00    -0.256 A  
HETATM   43  N   UNL     1     -10.852  15.448  69.971  1.00  0.00    -0.284 N  
HETATM   44  C   UNL     1     -11.589  14.614  67.751  1.00  0.00    -0.382 A  
HETATM   45  C   UNL     1     -11.474  12.249  67.229  1.00  0.00    -0.426 A  
ENDBRANCH  12  37
ENDBRANCH   3   5
ENDBRANCH   2   3
TORSDOF 8
ENDMDL
MODEL      232
REMARK 921   NORMALIZED FREE ENERGY PREDICTED BY IDOCK:   -1.12 KCAL/MOL
REMARK 922        TOTAL FREE ENERGY PREDICTED BY IDOCK:   -3.56 KCAL/MOL
REMARK 923 INTER-LIGAND FREE ENERGY PREDICTED BY IDOCK:   -4.52 KCAL/MOL
REMARK 924 INTRA-LIGAND FREE ENERGY PREDICTED BY IDOCK:    0.96 KCAL/MOL
REMARK 927      BINDING AFFINITY PREDICTED BY RF-SCORE:    0.00 PKD
ROOT
HETATM    1  C   UNL     1      -7.576  15.822  69.201  1.00  0.00    -0.212 C  
HETATM    2  O   UNL     1      -7.514  14.906  68.102  1.00  0.00    -0.102 OA 
ENDROOT
BRANCH   2   3
HETATM    3  C   UNL     1      -8.678  14.827  67.403  1.00  0.00    -0.198 C  
HETATM    4  O   UNL     1      -8.799  15.156  66.233  1.00  0.00    -0.278 OA 
BRANCH   3   5
HETATM    5  C   UNL     1      -9.772  14.285  68.254  1.00  0.00    -0.221 C  
HETATM    6  C   UNL     1     -10.428  15.074  69.140  1.00  0.00    -0.247 C  
HETATM    7  N   UNL     1     -11.483  14.554  69.868  1.00  0.00    -0.267 NA 
HETATM    8  C   UNL     1     -10.141  16.520  69.474  1.00  0.00    -0.165 C  
HETATM    9  C   UNL     1     -11.833  13.221  69.921  1.00  0.00    -0.310 C  
HETATM   10  C   UNL     1     -12.944  12.888  70.894  1.00  0.00    -0.101 C  
HETATM   11  C   UNL     1     -11.196  12.328  69.127  1.00  0.00    -0.300 C  
HETATM   12  C   UNL     1     -10.139  12.791  68.113  1.00  0.00    -0.239 C  
BRANCH  11  13
HETATM   13  C   UNL     1     -11.504  10.886  69.317  1.00  0.00    -0.302 C  
HETATM   14  O   UNL     1     -12.390  10.316  68.699  1.00  0.00     0.112 OA 
BRANCH  13  15
HETATM   15  O   UNL     1     -10.638  10.289  70.169  1.00  0.00    -0.280 OA 
HETATM   16  C   UNL     1      -9.988   8.814  72.040  1.00  0.00    -0.321 C  
HETATM   17  C   UNL     1     -11.638   8.070  70.260  1.00  0.00    -0.003 C  
HETATM   18  C   UNL     1     -11.146   9.270  71.085  1.00  0.00    -0.341 C  
HETATM   19  C   UNL     1     -12.262   9.800  72.016  1.00  0.00    -0.271 C  
BRANCH  16  20
HETATM   20  N   UNL     1      -8.776   8.182  71.457  1.00  0.00    -0.134 NA 
HETATM   21  C   UNL     1      -7.602   8.440  72.296  1.00  0.00    -0.103 C  
BRANCH  20  22
HETATM   22  C   UNL     1      -8.936   6.714  71.382  1.00  0.00    -0.139 C  
BRANCH  22  23
HETATM   23  C   UNL     1      -9.173   6.130  69.988  1.00  0.00    -0.158 C  
HETATM   24  C   UNL     1      -8.236   4.982  69.529  1.00  0.00    -0.085 C  
HETATM   25  C   UNL     1      -8.448   4.804  68.017  1.00  0.00    -0.102 A  
HETATM   26  C   UNL     1      -8.383   3.734  70.404  1.00  0.00    -0.081 A  
HETATM   27  C   UNL     1      -7.370   4.950  67.131  1.00  0.00    -0.082 A  
HETATM   28  C   UNL     1      -9.317   2.716  70.160  1.00  0.00    -0.193 A  
HETATM   29  C   UNL     1      -7.587   5.016  65.751  1.00  0.00    -0.086 A  
HETATM   30  C   UNL     1      -9.493   1.662  71.060  1.00  0.00    -0.189 A  
HETATM   31  C   UNL     1      -8.737   1.599  72.224  1.00  0.00    -0.074 A  
HETATM   32  C   UNL     1      -8.879   4.919  65.235  1.00  0.00    -0.152 A  
HETATM   33  C   UNL     1      -9.953   4.726  66.094  1.00  0.00    -0.261 A  
HETATM   34  C   UNL     1      -7.787   2.581  72.481  1.00  0.00    -0.054 A  
HETATM   35  C   UNL     1      -7.608   3.632  71.574  1.00  0.00    -0.056 A  
HETATM   36  C   UNL     1      -9.739   4.669  67.470  1.00  0.00    -0.213 A  
ENDBRANCH  22  23
ENDBRANCH  20  22
ENDBRANCH  16  20
ENDBRANCH  13  15
ENDBRANCH  11  13
BRANCH  12  37
HETATM   37  C   UNL     1      -8.898  11.894  68.166  1.00  0.00    -0.178 A  
HETATM   38  O   UNL     1      -6.645  11.576  71.630  1.00  0.00     1.782 OA 
HETATM   39  C   UNL     1      -8.191  11.744  69.375  1.00  0.00     0.634 A  
HETATM   40  O   UNL     1      -5.186  10.263  70.652  1.00  0.00    -0.048 OA 
HETATM   41  C   UNL     1      -7.261  10.469  67.072  1.00  0.00    -0.098 A  
HETATM   42  C   UNL     1      -7.000  11.009  69.408  1.00  0.00    -0.126 A  
HETATM   43  N   UNL     1      -6.224  10.942  70.654  1.00  0.00    -0.069 N  
HETATM   44  C   UNL     1      -6.533  10.365  68.259  1.00  0.00    -0.059 A  
HETATM   45  C   UNL     1      -8.432  11.231  67.024  1.00  0.00    -0.150 A  
ENDBRANCH  12  37
ENDBRANCH   3   5
ENDBRANCH   2   3
TORSDOF 8
ENDMDL
MODEL      233
REMARK 921   NORMALIZED FREE ENERGY PREDICTED BY IDOCK:   -0.98 KCAL/MOL
REMARK 922        TOTAL FREE ENERGY PREDICTED BY IDOCK:   -3.35 KCAL/MOL
REMARK 923 INTER-LIGAND FREE ENERGY PREDICTED BY IDOCK:   -5.55 KCAL/MOL
REMARK 924 INTRA-LIGAND FREE ENERGY PREDICTED BY IDOCK:    2.19 KCAL/MOL
REMARK 927      BINDING AFFINITY PREDICTED BY RF-SCORE:    0.00 PKD
ROOT
HETATM    1  C   UNL     1      -9.547   2.236  67.903  1.00  0.00    -0.002 C  
HETATM    2  O   UNL     1      -8.178   2.652  67.854  1.00  0.00    -0.068 OA 
ENDROOT
BRANCH   2   3
HETATM    3  C   UNL     1      -7.664   2.953  69.077  1.00  0.00    -0.047 C  
HETATM    4  O   UNL     1      -6.528   2.679  69.430  1.00  0.00    -0.028 OA 
BRANCH   3   5
HETATM    5  C   UNL     1      -8.671   3.660  69.915  1.00  0.00    -0.130 C  
HETATM    6  C   UNL     1      -9.348   3.012  70.894  1.00  0.00    -0.150 C  
HETATM    7  N   UNL     1     -10.229   3.715  71.697  1.00  0.00    -0.052 NA 
HETATM    8  C   UNL     1      -9.285   1.542  71.239  1.00  0.00    -0.150 C  
HETATM    9  C   UNL     1     -10.640   5.013  71.482  1.00  0.00    -0.105 C  
HETATM   10  C   UNL     1     -11.710   5.513  72.427  1.00  0.00    -0.182 C  
HETATM   11  C   UNL     1     -10.077   5.738  70.484  1.00  0.00    -0.269 C  
HETATM   12  C   UNL     1      -8.936   5.157  69.637  1.00  0.00    -0.137 C  
BRANCH  11  13
HETATM   13  C   UNL     1     -10.647   7.080  70.196  1.00  0.00    -0.228 C  
HETATM   14  O   UNL     1     -11.848   7.274  70.084  1.00  0.00    -0.131 OA 
BRANCH  13  15
HETATM   15  O   UNL     1      -9.695   8.043  70.170  1.00  0.00    -0.175 OA 
HETATM   16  C   UNL     1      -8.011   9.560  71.148  1.00  0.00     0.295 C  
HETATM   17  C   UNL     1      -8.142   7.110  71.798  1.00  0.00    -0.101 C  
HETATM   18  C   UNL     1      -8.969   8.344  71.401  1.00  0.00    -0.186 C  
HETATM   19  C   UNL     1      -9.898   8.786  72.555  1.00  0.00    -0.133 C  
BRANCH  16  20
HETATM   20  N   UNL     1      -6.934   9.434  70.132  1.00  0.00    -0.065 NA 
HETATM   21  C   UNL     1      -6.466   8.048  70.041  1.00  0.00    -0.033 C  
BRANCH  20  22
HETATM   22  C   UNL     1      -7.432   9.809  68.791  1.00  0.00    -0.075 C  
BRANCH  22  23
HETATM   23  C   UNL     1      -8.442  10.958  68.742  1.00  0.00    -0.150 C  
HETATM   24  C   UNL     1      -8.306  11.973  67.578  1.00  0.00    -0.166 C  
HETATM   25  C   UNL     1      -9.190  13.182  67.928  1.00  0.00    -0.207 A  
HETATM   26  C   UNL     1      -8.533  11.319  66.213  1.00  0.00    -0.156 A  
HETATM   27  C   UNL     1      -8.625  14.462  68.039  1.00  0.00    -0.166 A  
HETATM   28  C   UNL     1      -9.792  11.193  65.607  1.00  0.00    -0.280 A  
HETATM   29  C   UNL     1      -9.364  15.522  68.574  1.00  0.00    -0.197 A  
HETATM   30  C   UNL     1      -9.957  10.476  64.419  1.00  0.00    -0.410 A  
HETATM   31  C   UNL     1      -8.866   9.872  63.806  1.00  0.00    -0.254 A  
HETATM   32  C   UNL     1     -10.680  15.325  68.989  1.00  0.00    -0.244 A  
HETATM   33  C   UNL     1     -11.271  14.077  68.843  1.00  0.00    -0.303 A  
HETATM   34  C   UNL     1      -7.602  10.000  64.371  1.00  0.00    -0.145 A  
HETATM   35  C   UNL     1      -7.439  10.724  65.557  1.00  0.00     0.007 A  
HETATM   36  C   UNL     1     -10.534  13.017  68.318  1.00  0.00    -0.258 A  
ENDBRANCH  22  23
ENDBRANCH  20  22
ENDBRANCH  16  20
ENDBRANCH  13  15
ENDBRANCH  11  13
BRANCH  12  37
HETATM   37  C   UNL     1      -9.168   5.424  68.146  1.00  0.00    -0.122 A  
HETATM   38  O   UNL     1      -6.053   6.617  65.686  1.00  0.00    -0.035 OA 
HETATM   39  C   UNL     1      -8.081   5.756  67.315  1.00  0.00    -0.102 A  
HETATM   40  O   UNL     1      -7.391   6.813  63.959  1.00  0.00    -0.069 OA 
HETATM   41  C   UNL     1     -10.657   5.677  66.241  1.00  0.00    -0.173 A  
HETATM   42  C   UNL     1      -8.297   6.100  65.975  1.00  0.00    -0.136 A  
HETATM   43  N   UNL     1      -7.165   6.538  65.147  1.00  0.00    -0.067 N  
HETATM   44  C   UNL     1      -9.584   6.058  65.433  1.00  0.00     0.453 A  
HETATM   45  C   UNL     1     -10.451   5.367  67.589  1.00  0.00    -0.217 A  
ENDBRANCH  12  37
ENDBRANCH   3   5
ENDBRANCH   2   3
TORSDOF 8
ENDMDL
MODEL      234
REMARK 921   NORMALIZED FREE ENERGY PREDICTED BY IDOCK:   -0.85 KCAL/MOL
REMARK 922        TOTAL FREE ENERGY PREDICTED BY IDOCK:   -3.16 KCAL/MOL
REMARK 923 INTER-LIGAND FREE ENERGY PREDICTED BY IDOCK:   -3.01 KCAL/MOL
REMARK 924 INTRA-LIGAND FREE ENERGY PREDICTED BY IDOCK:   -0.15 KCAL/MOL
REMARK 927      BINDING AFFINITY PREDICTED BY RF-SCORE:    0.00 PKD
ROOT
HETATM    1  C   UNL     1     -10.524   8.299  73.450  1.00  0.00     0.589 C  
HETATM    2  O   UNL     1      -9.293   8.823  72.942  1.00  0.00    -0.242 OA 
ENDROOT
BRANCH   2   3
HETATM    3  C   UNL     1      -8.600   7.929  72.185  1.00  0.00    -0.140 C  
HETATM    4  O   UNL     1      -8.302   6.804  72.554  1.00  0.00    -0.112 OA 
BRANCH   3   5
HETATM    5  C   UNL     1      -8.263   8.509  70.857  1.00  0.00    -0.150 C  
HETATM    6  C   UNL     1      -7.084   9.147  70.649  1.00  0.00    -0.099 C  
HETATM    7  N   UNL     1      -6.776   9.616  69.385  1.00  0.00    -0.051 NA 
HETATM    8  C   UNL     1      -6.009   9.448  71.666  1.00  0.00    -0.035 C  
HETATM    9  C   UNL     1      -7.648   9.666  68.318  1.00  0.00    -0.078 C  
HETATM   10  C   UNL     1      -7.108  10.346  67.078  1.00  0.00    -0.092 C  
HETATM   11  C   UNL     1      -8.882   9.118  68.435  1.00  0.00    -0.129 C  
HETATM   12  C   UNL     1      -9.295   8.377  69.715  1.00  0.00    -0.158 C  
BRANCH  11  13
HETATM   13  C   UNL     1      -9.838   9.318  67.315  1.00  0.00    -0.182 C  
HETATM   14  O   UNL     1     -10.193  10.426  66.945  1.00  0.00    -0.209 OA 
BRANCH  13  15
HETATM   15  O   UNL     1     -10.178   8.150  66.721  1.00  0.00    -0.280 OA 
HETATM   16  C   UNL     1      -9.752   6.050  65.494  1.00  0.00     0.482 C  
HETATM   17  C   UNL     1      -8.305   6.774  67.450  1.00  0.00    -0.122 C  
HETATM   18  C   UNL     1      -9.113   7.273  66.241  1.00  0.00    -0.149 C  
HETATM   19  C   UNL     1      -8.194   7.955  65.200  1.00  0.00    -0.143 C  
BRANCH  16  20
HETATM   20  N   UNL     1     -10.646   5.130  66.244  1.00  0.00    -0.302 NA 
HETATM   21  C   UNL     1     -11.510   4.382  65.326  1.00  0.00     1.023 C  
BRANCH  20  22
HETATM   22  C   UNL     1      -9.857   4.134  67.001  1.00  0.00    -0.151 C  
BRANCH  22  23
HETATM   23  C   UNL     1     -10.086   4.098  68.513  1.00  0.00     0.170 C  
HETATM   24  C   UNL     1      -9.054   3.318  69.369  1.00  0.00    -0.201 C  
HETATM   25  C   UNL     1      -9.666   3.146  70.769  1.00  0.00    -0.157 A  
HETATM   26  C   UNL     1      -7.656   3.937  69.293  1.00  0.00    -0.053 A  
HETATM   27  C   UNL     1      -9.867   1.863  71.299  1.00  0.00    -0.163 A  
HETATM   28  C   UNL     1      -7.205   4.953  70.150  1.00  0.00    -0.051 A  
HETATM   29  C   UNL     1     -10.624   1.684  72.462  1.00  0.00    -0.224 A  
HETATM   30  C   UNL     1      -5.965   5.569  69.956  1.00  0.00    -0.021 A  
HETATM   31  C   UNL     1      -5.146   5.181  68.903  1.00  0.00     0.000 A  
HETATM   32  C   UNL     1     -11.175   2.782  73.120  1.00  0.00    -0.123 A  
HETATM   33  C   UNL     1     -10.946   4.064  72.636  1.00  0.00     0.000 A  
HETATM   34  C   UNL     1      -5.556   4.161  68.052  1.00  0.00    -0.021 A  
HETATM   35  C   UNL     1      -6.795   3.541  68.253  1.00  0.00    -0.046 A  
HETATM   36  C   UNL     1     -10.200   4.243  71.473  1.00  0.00    -0.138 A  
ENDBRANCH  22  23
ENDBRANCH  20  22
ENDBRANCH  16  20
ENDBRANCH  13  15
ENDBRANCH  11  13
BRANCH  12  37
HETATM   37  C   UNL     1     -10.696   8.800  70.166  1.00  0.00    -0.239 A  
HETATM   38  O   UNL     1     -11.640  12.798  70.723  1.00  0.00     0.215 OA 
HETATM   39  C   UNL     1     -11.016  10.168  70.278  1.00  0.00    -0.380 A  
HETATM   40  O   UNL     1     -13.661  12.304  71.415  1.00  0.00     0.283 OA 
HETATM   41  C   UNL     1     -12.924   8.251  70.968  1.00  0.00     0.043 A  
HETATM   42  C   UNL     1     -12.260  10.562  70.785  1.00  0.00    -0.369 A  
HETATM   43  N   UNL     1     -12.541  11.991  70.985  1.00  0.00    -0.336 N  
HETATM   44  C   UNL     1     -13.219   9.606  71.128  1.00  0.00    -0.373 A  
HETATM   45  C   UNL     1     -11.671   7.851  70.496  1.00  0.00    -0.097 A  
ENDBRANCH  12  37
ENDBRANCH   3   5
ENDBRANCH   2   3
TORSDOF 8
ENDMDL
MODEL      235
REMARK 921   NORMALIZED FREE ENERGY PREDICTED BY IDOCK:   -0.79 KCAL/MOL
REMARK 922        TOTAL FREE ENERGY PREDICTED BY IDOCK:   -3.07 KCAL/MOL
REMARK 923 INTER-LIGAND FREE ENERGY PREDICTED BY IDOCK:   -3.95 KCAL/MOL
REMARK 924 INTRA-LIGAND FREE ENERGY PREDICTED BY IDOCK:    0.88 KCAL/MOL
REMARK 927      BINDING AFFINITY PREDICTED BY RF-SCORE:    0.00 PKD
ROOT
HETATM    1  C   UNL     1      -5.852  10.146  66.948  1.00  0.00    -0.051 C  
HETATM    2  O   UNL     1      -5.204  10.217  68.222  1.00  0.00    -0.036 OA 
ENDROOT
BRANCH   2   3
HETATM    3  C   UNL     1      -5.820  11.061  69.092  1.00  0.00    -0.041 C  
HETATM    4  O   UNL     1      -5.255  11.967  69.686  1.00  0.00    -0.064 OA 
BRANCH   3   5
HETATM    5  C   UNL     1      -7.266  10.732  69.215  1.00  0.00    -0.122 C  
HETATM    6  C   UNL     1      -8.221  11.659  68.954  1.00  0.00     0.020 C  
HETATM    7  N   UNL     1      -9.555  11.300  69.015  1.00  0.00    -0.097 NA 
HETATM    8  C   UNL     1      -8.020  13.114  68.603  1.00  0.00    -0.033 C  
HETATM    9  C   UNL     1     -10.038  10.105  69.506  1.00  0.00    -0.235 C  
HETATM   10  C   UNL     1     -11.545  10.006  69.588  1.00  0.00    -0.156 C  
HETATM   11  C   UNL     1      -9.170   9.128  69.864  1.00  0.00    -0.194 C  
HETATM   12  C   UNL     1      -7.658   9.305  69.659  1.00  0.00    -0.084 C  
BRANCH  11  13
HETATM   13  C   UNL     1      -9.723   7.914  70.520  1.00  0.00    -0.174 C  
HETATM   14  O   UNL     1     -10.623   7.966  71.345  1.00  0.00    -0.209 OA 
BRANCH  13  15
HETATM   15  O   UNL     1      -9.180   6.776  70.027  1.00  0.00    -0.157 OA 
HETATM   16  C   UNL     1      -8.934   4.922  68.416  1.00  0.00    -0.109 C  
HETATM   17  C   UNL     1      -9.177   7.332  67.656  1.00  0.00    -0.130 C  
HETATM   18  C   UNL     1      -9.612   6.305  68.714  1.00  0.00    -0.121 C  
HETATM   19  C   UNL     1     -11.134   6.041  68.640  1.00  0.00    -0.293 C  
BRANCH  16  20
HETATM   20  N   UNL     1      -7.452   4.843  68.341  1.00  0.00    -0.073 NA 
HETATM   21  C   UNL     1      -6.993   3.471  68.577  1.00  0.00    -0.050 C  
BRANCH  20  22
HETATM   22  C   UNL     1      -6.974   5.231  66.997  1.00  0.00    -0.065 C  
BRANCH  22  23
HETATM   23  C   UNL     1      -7.472   4.375  65.830  1.00  0.00    -0.081 C  
HETATM   24  C   UNL     1      -8.486   5.026  64.854  1.00  0.00    -0.147 C  
HETATM   25  C   UNL     1      -9.075   3.895  63.994  1.00  0.00    -0.129 A  
HETATM   26  C   UNL     1      -7.887   6.223  64.111  1.00  0.00    -0.117 A  
HETATM   27  C   UNL     1     -10.458   3.655  63.994  1.00  0.00    -0.271 A  
HETATM   28  C   UNL     1      -7.187   6.119  62.899  1.00  0.00    -0.054 A  
HETATM   29  C   UNL     1     -10.979   2.499  63.402  1.00  0.00    -0.176 A  
HETATM   30  C   UNL     1      -6.553   7.226  62.330  1.00  0.00    -0.061 A  
HETATM   31  C   UNL     1      -6.606   8.465  62.957  1.00  0.00    -0.086 A  
HETATM   32  C   UNL     1     -10.131   1.577  62.790  1.00  0.00    -0.099 A  
HETATM   33  C   UNL     1      -8.765   1.822  62.739  1.00  0.00    -0.076 A  
HETATM   34  C   UNL     1      -7.311   8.603  64.147  1.00  0.00    -0.102 A  
HETATM   35  C   UNL     1      -7.952   7.494  64.712  1.00  0.00    -0.132 A  
HETATM   36  C   UNL     1      -8.243   2.969  63.335  1.00  0.00    -0.085 A  
ENDBRANCH  22  23
ENDBRANCH  20  22
ENDBRANCH  16  20
ENDBRANCH  13  15
ENDBRANCH  11  13
BRANCH  12  37
HETATM   37  C   UNL     1      -6.880   8.865  70.903  1.00  0.00    -0.076 A  
HETATM   38  O   UNL     1      -6.554   4.856  71.904  1.00  0.00    -0.035 OA 
HETATM   39  C   UNL     1      -6.720   7.494  71.183  1.00  0.00    -0.046 A  
HETATM   40  O   UNL     1      -5.449   5.325  73.739  1.00  0.00    -0.021 OA 
HETATM   41  C   UNL     1      -5.688   9.386  72.956  1.00  0.00     0.102 A  
HETATM   42  C   UNL     1      -6.099   7.083  72.369  1.00  0.00    -0.041 A  
HETATM   43  N   UNL     1      -6.026   5.652  72.691  1.00  0.00    -0.034 N  
HETATM   44  C   UNL     1      -5.577   8.027  73.257  1.00  0.00    -0.048 A  
HETATM   45  C   UNL     1      -6.339   9.802  71.791  1.00  0.00     0.339 A  
ENDBRANCH  12  37
ENDBRANCH   3   5
ENDBRANCH   2   3
TORSDOF 8
ENDMDL
MODEL      236
REMARK 921   NORMALIZED FREE ENERGY PREDICTED BY IDOCK:   -0.70 KCAL/MOL
REMARK 922        TOTAL FREE ENERGY PREDICTED BY IDOCK:   -2.94 KCAL/MOL
REMARK 923 INTER-LIGAND FREE ENERGY PREDICTED BY IDOCK:   -5.81 KCAL/MOL
REMARK 924 INTRA-LIGAND FREE ENERGY PREDICTED BY IDOCK:    2.88 KCAL/MOL
REMARK 927      BINDING AFFINITY PREDICTED BY RF-SCORE:    0.00 PKD
ROOT
HETATM    1  C   UNL     1      -7.729  17.656  65.742  1.00  0.00     0.070 C  
HETATM    2  O   UNL     1      -8.776  16.988  66.454  1.00  0.00    -0.247 OA 
ENDROOT
BRANCH   2   3
HETATM    3  C   UNL     1      -9.906  16.819  65.716  1.00  0.00    -0.180 C  
HETATM    4  O   UNL     1     -10.652  17.728  65.386  1.00  0.00    -0.659 OA 
BRANCH   3   5
HETATM    5  C   UNL     1     -10.101  15.386  65.367  1.00  0.00    -0.394 C  
HETATM    6  C   UNL     1     -11.081  14.999  64.514  1.00  0.00    -0.234 C  
HETATM    7  N   UNL     1     -11.193  13.666  64.161  1.00  0.00    -0.334 NA 
HETATM    8  C   UNL     1     -12.139  15.867  63.872  1.00  0.00     0.501 C  
HETATM    9  C   UNL     1     -10.502  12.626  64.746  1.00  0.00    -0.320 C  
HETATM   10  C   UNL     1     -10.898  11.245  64.272  1.00  0.00    -0.398 C  
HETATM   11  C   UNL     1      -9.542  12.892  65.665  1.00  0.00    -0.036 C  
HETATM   12  C   UNL     1      -9.163  14.340  66.010  1.00  0.00    -0.039 C  
BRANCH  11  13
HETATM   13  C   UNL     1      -8.923  11.742  66.374  1.00  0.00    -0.201 C  
HETATM   14  O   UNL     1      -8.027  11.072  65.881  1.00  0.00    -0.140 OA 
BRANCH  13  15
HETATM   15  O   UNL     1      -9.401  11.601  67.632  1.00  0.00    -0.171 OA 
HETATM   16  C   UNL     1     -11.095  11.039  69.339  1.00  0.00    -0.262 C  
HETATM   17  C   UNL     1     -10.640   9.522  67.355  1.00  0.00    -0.337 C  
HETATM   18  C   UNL     1     -10.714  10.986  67.818  1.00  0.00    -0.227 C  
HETATM   19  C   UNL     1     -11.843  11.746  67.085  1.00  0.00    -0.157 C  
BRANCH  16  20
HETATM   20  N   UNL     1     -10.238  10.331  70.325  1.00  0.00    -0.126 NA 
HETATM   21  C   UNL     1     -11.047   9.472  71.194  1.00  0.00    -0.379 C  
BRANCH  20  22
HETATM   22  C   UNL     1      -9.266   9.452  69.638  1.00  0.00    -0.185 C  
BRANCH  22  23
HETATM   23  C   UNL     1      -8.400   8.568  70.538  1.00  0.00    -0.137 C  
HETATM   24  C   UNL     1      -8.975   7.185  70.940  1.00  0.00    -0.151 C  
HETATM   25  C   UNL     1      -8.099   6.647  72.083  1.00  0.00    -0.105 A  
HETATM   26  C   UNL     1      -9.177   6.270  69.729  1.00  0.00    -0.150 A  
HETATM   27  C   UNL     1      -8.670   6.344  73.328  1.00  0.00    -0.128 A  
HETATM   28  C   UNL     1      -8.185   5.418  69.221  1.00  0.00    -0.093 A  
HETATM   29  C   UNL     1      -7.859   6.073  74.436  1.00  0.00    -0.099 A  
HETATM   30  C   UNL     1      -8.383   4.699  68.039  1.00  0.00    -0.098 A  
HETATM   31  C   UNL     1      -9.577   4.812  67.339  1.00  0.00    -0.186 A  
HETATM   32  C   UNL     1      -6.470   6.084  74.312  1.00  0.00    -0.075 A  
HETATM   33  C   UNL     1      -5.889   6.334  73.076  1.00  0.00    -0.042 A  
HETATM   34  C   UNL     1     -10.586   5.632  67.830  1.00  0.00    -0.266 A  
HETATM   35  C   UNL     1     -10.389   6.345  69.018  1.00  0.00    -0.238 A  
HETATM   36  C   UNL     1      -6.694   6.613  71.974  1.00  0.00    -0.063 A  
ENDBRANCH  22  23
ENDBRANCH  20  22
ENDBRANCH  16  20
ENDBRANCH  13  15
ENDBRANCH  11  13
BRANCH  12  37
HETATM   37  C   UNL     1      -9.053  14.532  67.525  1.00  0.00    -0.193 A  
HETATM   38  O   UNL     1      -5.384  14.319  69.440  1.00  0.00    -0.086 OA 
HETATM   39  C   UNL     1      -7.788  14.529  68.144  1.00  0.00    -0.135 A  
HETATM   40  O   UNL     1      -6.308  14.594  71.409  1.00  0.00     0.116 OA 
HETATM   41  C   UNL     1     -10.082  14.800  69.712  1.00  0.00     0.059 A  
HETATM   42  C   UNL     1      -7.685  14.604  69.539  1.00  0.00    -0.004 A  
HETATM   43  N   UNL     1      -6.363  14.502  70.174  1.00  0.00    -0.164 N  
HETATM   44  C   UNL     1      -8.830  14.744  70.326  1.00  0.00     1.104 A  
HETATM   45  C   UNL     1     -10.194  14.691  68.323  1.00  0.00    -0.227 A  
ENDBRANCH  12  37
ENDBRANCH   3   5
ENDBRANCH   2   3
TORSDOF 8
ENDMDL
MODEL      237
REMARK 921   NORMALIZED FREE ENERGY PREDICTED BY IDOCK:   -0.59 KCAL/MOL
REMARK 922        TOTAL FREE ENERGY PREDICTED BY IDOCK:   -2.78 KCAL/MOL
REMARK 923 INTER-LIGAND FREE ENERGY PREDICTED BY IDOCK:   -5.89 KCAL/MOL
REMARK 924 INTRA-LIGAND FREE ENERGY PREDICTED BY IDOCK:    3.11 KCAL/MOL
REMARK 927      BINDING AFFINITY PREDICTED BY RF-SCORE:    0.00 PKD
ROOT
HETATM    1  C   UNL     1     -11.010  15.563  68.829  1.00  0.00    -0.270 C  
HETATM    2  O   UNL     1     -10.969  14.377  68.028  1.00  0.00    -0.248 OA 
ENDROOT
BRANCH   2   3
HETATM    3  C   UNL     1      -9.774  13.730  68.086  1.00  0.00    -0.227 C  
HETATM    4  O   UNL     1      -8.944  13.900  68.966  1.00  0.00     0.037 OA 
BRANCH   3   5
HETATM    5  C   UNL     1      -9.622  12.794  66.940  1.00  0.00    -0.235 C  
HETATM    6  C   UNL     1     -10.697  12.384  66.222  1.00  0.00    -0.256 C  
HETATM    7  N   UNL     1     -10.512  11.565  65.123  1.00  0.00    -0.275 NA 
HETATM    8  C   UNL     1     -12.152  12.701  66.481  1.00  0.00    -0.296 C  
HETATM    9  C   UNL     1      -9.326  10.953  64.775  1.00  0.00    -0.226 C  
HETATM   10  C   UNL     1      -9.415  10.000  63.603  1.00  0.00    -0.253 C  
HETATM   11  C   UNL     1      -8.197  11.237  65.468  1.00  0.00     0.199 C  
HETATM   12  C   UNL     1      -8.205  12.287  66.589  1.00  0.00     0.022 C  
BRANCH  11  13
HETATM   13  C   UNL     1      -6.975  10.452  65.154  1.00  0.00    -0.082 C  
HETATM   14  O   UNL     1      -5.867  10.962  65.085  1.00  0.00    -0.081 OA 
BRANCH  13  15
HETATM   15  O   UNL     1      -7.232   9.127  65.052  1.00  0.00    -0.093 OA 
HETATM   16  C   UNL     1      -7.224   6.918  63.949  1.00  0.00    -0.066 C  
HETATM   17  C   UNL     1      -5.165   8.402  63.987  1.00  0.00    -0.048 C  
HETATM   18  C   UNL     1      -6.700   8.396  63.904  1.00  0.00    -0.075 C  
HETATM   19  C   UNL     1      -7.187   8.964  62.551  1.00  0.00    -0.095 C  
BRANCH  16  20
HETATM   20  N   UNL     1      -6.864   6.057  65.106  1.00  0.00    -0.050 NA 
HETATM   21  C   UNL     1      -5.532   6.401  65.614  1.00  0.00    -0.017 C  
BRANCH  20  22
HETATM   22  C   UNL     1      -7.814   6.255  66.222  1.00  0.00    -0.104 C  
BRANCH  22  23
HETATM   23  C   UNL     1      -7.790   5.196  67.326  1.00  0.00    -0.096 C  
HETATM   24  C   UNL     1      -9.090   4.383  67.559  1.00  0.00    -0.146 C  
HETATM   25  C   UNL     1      -8.928   3.647  68.899  1.00  0.00    -0.182 A  
HETATM   26  C   UNL     1      -9.466   3.535  66.341  1.00  0.00    -0.164 A  
HETATM   27  C   UNL     1      -9.840   3.869  69.941  1.00  0.00    -0.136 A  
HETATM   28  C   UNL     1      -9.000   2.229  66.125  1.00  0.00    -0.111 A  
HETATM   29  C   UNL     1      -9.580   3.388  71.229  1.00  0.00    -0.232 A  
HETATM   30  C   UNL     1      -9.274   1.549  64.936  1.00  0.00    -0.111 A  
HETATM   31  C   UNL     1     -10.023   2.156  63.936  1.00  0.00    -0.121 A  
HETATM   32  C   UNL     1      -8.418   2.663  71.489  1.00  0.00    -0.089 A  
HETATM   33  C   UNL     1      -7.527   2.393  70.458  1.00  0.00    -0.036 A  
HETATM   34  C   UNL     1     -10.518   3.440  64.131  1.00  0.00    -0.181 A  
HETATM   35  C   UNL     1     -10.248   4.117  65.326  1.00  0.00    -0.204 A  
HETATM   36  C   UNL     1      -7.780   2.879  69.177  1.00  0.00    -0.048 A  
ENDBRANCH  22  23
ENDBRANCH  20  22
ENDBRANCH  16  20
ENDBRANCH  13  15
ENDBRANCH  11  13
BRANCH  12  37
HETATM   37  C   UNL     1      -7.464  11.774  67.827  1.00  0.00    -0.117 A  
HETATM   38  O   UNL     1      -9.283   9.143  70.462  1.00  0.00    -0.200 OA 
HETATM   39  C   UNL     1      -8.075  10.823  68.669  1.00  0.00    -0.136 A  
HETATM   40  O   UNL     1      -7.545   9.159  71.799  1.00  0.00    -0.339 OA 
HETATM   41  C   UNL     1      -5.552  11.820  69.327  1.00  0.00    -0.055 A  
HETATM   42  C   UNL     1      -7.447  10.425  69.855  1.00  0.00    -0.125 A  
HETATM   43  N   UNL     1      -8.140   9.507  70.769  1.00  0.00    -0.122 N  
HETATM   44  C   UNL     1      -6.182  10.918  70.186  1.00  0.00    -0.142 A  
HETATM   45  C   UNL     1      -6.189  12.248  68.159  1.00  0.00    -0.058 A  
ENDBRANCH  12  37
ENDBRANCH   3   5
ENDBRANCH   2   3
TORSDOF 8
ENDMDL
MODEL      238
REMARK 921   NORMALIZED FREE ENERGY PREDICTED BY IDOCK:   -0.51 KCAL/MOL
REMARK 922        TOTAL FREE ENERGY PREDICTED BY IDOCK:   -2.66 KCAL/MOL
REMARK 923 INTER-LIGAND FREE ENERGY PREDICTED BY IDOCK:   -5.46 KCAL/MOL
REMARK 924 INTRA-LIGAND FREE ENERGY PREDICTED BY IDOCK:    2.80 KCAL/MOL
REMARK 927      BINDING AFFINITY PREDICTED BY RF-SCORE:    0.00 PKD
ROOT
HETATM    1  C   UNL     1     -11.563  12.768  63.183  1.00  0.00    -0.118 C  
HETATM    2  O   UNL     1     -10.527  12.772  64.172  1.00  0.00    -0.385 OA 
ENDROOT
BRANCH   2   3
HETATM    3  C   UNL     1     -10.815  12.000  65.254  1.00  0.00    -0.294 C  
HETATM    4  O   UNL     1     -10.643  10.792  65.300  1.00  0.00    -0.249 OA 
BRANCH   3   5
HETATM    5  C   UNL     1     -11.359  12.827  66.365  1.00  0.00    -0.369 C  
HETATM    6  C   UNL     1     -12.068  13.956  66.116  1.00  0.00    -0.448 C  
HETATM    7  N   UNL     1     -12.615  14.665  67.171  1.00  0.00     0.296 NA 
HETATM    8  C   UNL     1     -12.344  14.593  64.775  1.00  0.00    -0.362 C  
HETATM    9  C   UNL     1     -12.355  14.436  68.506  1.00  0.00    -0.004 C  
HETATM   10  C   UNL     1     -12.974  15.433  69.461  1.00  0.00     0.461 C  
HETATM   11  C   UNL     1     -11.599  13.372  68.868  1.00  0.00    -0.356 C  
HETATM   12  C   UNL     1     -11.090  12.374  67.818  1.00  0.00    -0.292 C  
BRANCH  11  13
HETATM   13  C   UNL     1     -11.225  13.243  70.301  1.00  0.00     0.497 C  
HETATM   14  O   UNL     1     -11.058  14.211  71.026  1.00  0.00     0.374 OA 
BRANCH  13  15
HETATM   15  O   UNL     1     -11.189  11.951  70.704  1.00  0.00     0.563 OA 
HETATM   16  C   UNL     1     -12.151   9.820  71.499  1.00  0.00    -0.409 C  
HETATM   17  C   UNL     1     -13.196  11.132  69.593  1.00  0.00     1.116 C  
HETATM   18  C   UNL     1     -12.452  11.252  70.933  1.00  0.00    -0.394 C  
HETATM   19  C   UNL     1     -13.334  11.940  72.001  1.00  0.00    -0.425 C  
BRANCH  16  20
HETATM   20  N   UNL     1     -11.372   8.863  70.671  1.00  0.00    -0.263 NA 
HETATM   21  C   UNL     1      -9.963   8.854  71.076  1.00  0.00    -0.256 C  
BRANCH  20  22
HETATM   22  C   UNL     1     -11.879   7.485  70.847  1.00  0.00    -0.267 C  
BRANCH  22  23
HETATM   23  C   UNL     1     -11.181   6.398  70.026  1.00  0.00    -0.475 C  
HETATM   24  C   UNL     1      -9.849   5.833  70.584  1.00  0.00    -0.240 C  
HETATM   25  C   UNL     1      -9.191   5.028  69.451  1.00  0.00    -0.156 A  
HETATM   26  C   UNL     1     -10.043   5.116  71.923  1.00  0.00    -0.255 A  
HETATM   27  C   UNL     1      -7.913   5.375  68.988  1.00  0.00    -0.094 A  
HETATM   28  C   UNL     1     -10.366   3.756  72.041  1.00  0.00    -0.083 A  
HETATM   29  C   UNL     1      -7.401   4.805  67.818  1.00  0.00    -0.070 A  
HETATM   30  C   UNL     1     -10.654   3.184  73.283  1.00  0.00    -0.269 A  
HETATM   31  C   UNL     1     -10.622   3.958  74.437  1.00  0.00    -0.248 A  
HETATM   32  C   UNL     1      -8.148   3.868  67.105  1.00  0.00    -0.095 A  
HETATM   33  C   UNL     1      -9.395   3.477  67.574  1.00  0.00    -0.249 A  
HETATM   34  C   UNL     1     -10.282   5.303  74.353  1.00  0.00    -0.299 A  
HETATM   35  C   UNL     1      -9.987   5.872  73.109  1.00  0.00    -0.188 A  
HETATM   36  C   UNL     1      -9.911   4.051  68.734  1.00  0.00    -0.045 A  
ENDBRANCH  22  23
ENDBRANCH  20  22
ENDBRANCH  16  20
ENDBRANCH  13  15
ENDBRANCH  11  13
BRANCH  12  37
HETATM   37  C   UNL     1      -9.612  12.045  68.044  1.00  0.00    -0.199 A  
HETATM   38  O   UNL     1      -6.764  15.051  68.231  1.00  0.00    -0.098 OA 
HETATM   39  C   UNL     1      -8.672  13.086  68.178  1.00  0.00    -0.190 A  
HETATM   40  O   UNL     1      -5.134  13.599  68.442  1.00  0.00    -0.084 OA 
HETATM   41  C   UNL     1      -7.801  10.435  68.241  1.00  0.00    -0.105 A  
HETATM   42  C   UNL     1      -7.307  12.795  68.283  1.00  0.00    -0.117 A  
HETATM   43  N   UNL     1      -6.332  13.894  68.325  1.00  0.00    -0.097 N  
HETATM   44  C   UNL     1      -6.867  11.470  68.320  1.00  0.00    -0.066 A  
HETATM   45  C   UNL     1      -9.162  10.720  68.099  1.00  0.00    -0.151 A  
ENDBRANCH  12  37
ENDBRANCH   3   5
ENDBRANCH   2   3
TORSDOF 8
ENDMDL
MODEL      239
REMARK 921   NORMALIZED FREE ENERGY PREDICTED BY IDOCK:   -0.37 KCAL/MOL
REMARK 922        TOTAL FREE ENERGY PREDICTED BY IDOCK:   -2.46 KCAL/MOL
REMARK 923 INTER-LIGAND FREE ENERGY PREDICTED BY IDOCK:   -6.89 KCAL/MOL
REMARK 924 INTRA-LIGAND FREE ENERGY PREDICTED BY IDOCK:    4.43 KCAL/MOL
REMARK 927      BINDING AFFINITY PREDICTED BY RF-SCORE:    0.00 PKD
ROOT
HETATM    1  C   UNL     1      -5.754   7.015  74.210  1.00  0.00    -0.059 C  
HETATM    2  O   UNL     1      -6.136   7.352  72.872  1.00  0.00    -0.054 OA 
ENDROOT
BRANCH   2   3
HETATM    3  C   UNL     1      -5.828   8.632  72.531  1.00  0.00    -0.071 C  
HETATM    4  O   UNL     1      -5.126   9.371  73.203  1.00  0.00    -0.082 OA 
BRANCH   3   5
HETATM    5  C   UNL     1      -6.458   9.001  71.234  1.00  0.00    -0.085 C  
HETATM    6  C   UNL     1      -6.146  10.163  70.609  1.00  0.00    -0.106 C  
HETATM    7  N   UNL     1      -6.702  10.443  69.373  1.00  0.00    -0.059 NA 
HETATM    8  C   UNL     1      -5.241  11.264  71.109  1.00  0.00    -0.096 C  
HETATM    9  C   UNL     1      -7.713   9.724  68.772  1.00  0.00    -0.081 C  
HETATM   10  C   UNL     1      -8.238  10.311  67.479  1.00  0.00    -0.114 C  
HETATM   11  C   UNL     1      -8.153   8.578  69.345  1.00  0.00    -0.112 C  
HETATM   12  C   UNL     1      -7.489   8.030  70.617  1.00  0.00    -0.068 C  
BRANCH  11  13
HETATM   13  C   UNL     1      -9.337   7.911  68.743  1.00  0.00    -0.146 C  
HETATM   14  O   UNL     1      -9.386   6.705  68.555  1.00  0.00    -0.127 OA 
BRANCH  13  15
HETATM   15  O   UNL     1     -10.355   8.777  68.528  1.00  0.00    -0.199 OA 
HETATM   16  C   UNL     1     -12.328  10.122  69.157  1.00  0.00     0.740 C  
HETATM   17  C   UNL     1     -10.245  10.043  70.606  1.00  0.00    -0.080 C  
HETATM   18  C   UNL     1     -11.149   9.224  69.670  1.00  0.00    -0.116 C  
HETATM   19  C   UNL     1     -11.822   8.056  70.429  1.00  0.00     0.075 C  
BRANCH  16  20
HETATM   20  N   UNL     1     -12.016  11.384  68.437  1.00  0.00    -0.590 NA 
HETATM   21  C   UNL     1     -12.460  12.547  69.212  1.00  0.00     0.350 C  
BRANCH  20  22
HETATM   22  C   UNL     1     -10.557  11.529  68.243  1.00  0.00    -0.200 C  
BRANCH  22  23
HETATM   23  C   UNL     1     -10.003  12.953  68.321  1.00  0.00    -0.234 C  
HETATM   24  C   UNL     1      -9.286  13.505  67.062  1.00  0.00    -0.248 C  
HETATM   25  C   UNL     1      -8.544  14.783  67.488  1.00  0.00    -0.198 A  
HETATM   26  C   UNL     1     -10.231  13.619  65.862  1.00  0.00    -0.318 A  
HETATM   27  C   UNL     1      -7.153  14.878  67.331  1.00  0.00    -0.194 A  
HETATM   28  C   UNL     1     -11.015  14.750  65.591  1.00  0.00    -0.345 A  
HETATM   29  C   UNL     1      -6.441  15.930  67.918  1.00  0.00    -0.163 A  
HETATM   30  C   UNL     1     -11.952  14.751  64.554  1.00  0.00    -0.451 A  
HETATM   31  C   UNL     1     -12.126  13.622  63.763  1.00  0.00    -0.435 A  
HETATM   32  C   UNL     1      -7.108  16.909  68.653  1.00  0.00    -0.203 A  
HETATM   33  C   UNL     1      -8.490  16.857  68.778  1.00  0.00    -0.244 A  
HETATM   34  C   UNL     1     -11.347  12.494  63.995  1.00  0.00    -0.467 A  
HETATM   35  C   UNL     1     -10.404  12.498  65.028  1.00  0.00    -0.323 A  
HETATM   36  C   UNL     1      -9.200  15.805  68.202  1.00  0.00    -0.189 A  
ENDBRANCH  22  23
ENDBRANCH  20  22
ENDBRANCH  16  20
ENDBRANCH  13  15
ENDBRANCH  11  13
BRANCH  12  37
HETATM   37  C   UNL     1      -8.541   7.593  71.641  1.00  0.00    -0.129 A  
HETATM   38  O   UNL     1     -10.046   3.732  71.635  1.00  0.00    -0.165 OA 
HETATM   39  C   UNL     1      -8.983   6.256  71.667  1.00  0.00    -0.144 A  
HETATM   40  O   UNL     1     -11.431   4.187  73.274  1.00  0.00    -0.224 OA 
HETATM   41  C   UNL     1     -10.102   8.108  73.432  1.00  0.00     0.069 A  
HETATM   42  C   UNL     1     -10.016   5.872  72.531  1.00  0.00    -0.177 A  
HETATM   43  N   UNL     1     -10.532   4.497  72.479  1.00  0.00    -0.197 N  
HETATM   44  C   UNL     1     -10.575   6.795  73.419  1.00  0.00    -0.351 A  
HETATM   45  C   UNL     1      -9.096   8.506  72.546  1.00  0.00    -0.284 A  
ENDBRANCH  12  37
ENDBRANCH   3   5
ENDBRANCH   2   3
TORSDOF 8
ENDMDL
MODEL      240
REMARK 921   NORMALIZED FREE ENERGY PREDICTED BY IDOCK:   -0.29 KCAL/MOL
REMARK 922        TOTAL FREE ENERGY PREDICTED BY IDOCK:   -2.34 KCAL/MOL
REMARK 923 INTER-LIGAND FREE ENERGY PREDICTED BY IDOCK:   -7.36 KCAL/MOL
REMARK 924 INTRA-LIGAND FREE ENERGY PREDICTED BY IDOCK:    5.02 KCAL/MOL
REMARK 927      BINDING AFFINITY PREDICTED BY RF-SCORE:    0.00 PKD
ROOT
HETATM    1  C   UNL     1      -5.685   6.810  73.441  1.00  0.00    -0.050 C  
HETATM    2  O   UNL     1      -5.738   7.470  72.171  1.00  0.00    -0.037 OA 
ENDROOT
BRANCH   2   3
HETATM    3  C   UNL     1      -5.531   8.812  72.254  1.00  0.00    -0.057 C  
HETATM    4  O   UNL     1      -5.147   9.386  73.262  1.00  0.00    -0.096 OA 
BRANCH   3   5
HETATM    5  C   UNL     1      -5.831   9.475  70.956  1.00  0.00    -0.069 C  
HETATM    6  C   UNL     1      -5.729  10.820  70.816  1.00  0.00    -0.099 C  
HETATM    7  N   UNL     1      -5.953  11.396  69.578  1.00  0.00    -0.075 NA 
HETATM    8  C   UNL     1      -5.405  11.835  71.886  1.00  0.00     0.322 C  
HETATM    9  C   UNL     1      -6.462  10.743  68.476  1.00  0.00    -0.054 C  
HETATM   10  C   UNL     1      -6.737  11.625  67.277  1.00  0.00    -0.124 C  
HETATM   11  C   UNL     1      -6.669   9.405  68.525  1.00  0.00    -0.058 C  
HETATM   12  C   UNL     1      -6.274   8.593  69.767  1.00  0.00    -0.035 C  
BRANCH  11  13
HETATM   13  C   UNL     1      -7.350   8.765  67.369  1.00  0.00    -0.081 C  
HETATM   14  O   UNL     1      -6.925   7.753  66.834  1.00  0.00    -0.069 OA 
BRANCH  13  15
HETATM   15  O   UNL     1      -8.516   9.380  67.061  1.00  0.00    -0.125 OA 
HETATM   16  C   UNL     1     -10.969   9.666  67.054  1.00  0.00     0.050 C  
HETATM   17  C   UNL     1      -9.697   9.070  69.169  1.00  0.00    -0.167 C  
HETATM   18  C   UNL     1      -9.754   8.869  67.646  1.00  0.00    -0.161 C  
HETATM   19  C   UNL     1     -10.021   7.388  67.290  1.00  0.00    -0.259 C  
BRANCH  16  20
HETATM   20  N   UNL     1     -11.056  11.131  67.285  1.00  0.00    -0.295 NA 
HETATM   21  C   UNL     1     -11.892  11.423  68.454  1.00  0.00    -0.274 C  
BRANCH  20  22
HETATM   22  C   UNL     1      -9.718  11.697  67.562  1.00  0.00    -0.177 C  
BRANCH  22  23
HETATM   23  C   UNL     1      -9.645  13.218  67.710  1.00  0.00    -0.214 C  
HETATM   24  C   UNL     1      -9.206  14.032  66.465  1.00  0.00    -0.240 C  
HETATM   25  C   UNL     1      -8.892  15.459  66.946  1.00  0.00    -0.281 A  
HETATM   26  C   UNL     1     -10.197  13.893  65.306  1.00  0.00    -0.366 A  
HETATM   27  C   UNL     1      -7.614  16.004  66.751  1.00  0.00    -0.247 A  
HETATM   28  C   UNL     1     -11.314  14.723  65.130  1.00  0.00    -0.379 A  
HETATM   29  C   UNL     1      -7.247  17.199  67.379  1.00  0.00    -0.178 A  
HETATM   30  C   UNL     1     -12.253  14.472  64.126  1.00  0.00    -0.372 A  
HETATM   31  C   UNL     1     -12.097  13.387  63.273  1.00  0.00    -0.329 A  
HETATM   32  C   UNL     1      -8.155  17.875  68.193  1.00  0.00    -0.267 A  
HETATM   33  C   UNL     1      -9.440  17.375  68.359  1.00  0.00    -0.293 A  
HETATM   34  C   UNL     1     -10.987  12.561  63.409  1.00  0.00    -0.386 A  
HETATM   35  C   UNL     1     -10.044  12.818  64.410  1.00  0.00    -0.275 A  
HETATM   36  C   UNL     1      -9.804  16.179  67.742  1.00  0.00    -0.232 A  
ENDBRANCH  22  23
ENDBRANCH  20  22
ENDBRANCH  16  20
ENDBRANCH  13  15
ENDBRANCH  11  13
BRANCH  12  37
HETATM   37  C   UNL     1      -7.389   7.622  70.166  1.00  0.00    -0.076 A  
HETATM   38  O   UNL     1      -9.587   8.209  73.631  1.00  0.00    -0.168 OA 
HETATM   39  C   UNL     1      -8.172   7.882  71.309  1.00  0.00    -0.107 A  
HETATM   40  O   UNL     1     -10.716   6.354  73.320  1.00  0.00    -0.248 OA 
HETATM   41  C   UNL     1      -8.616   5.549  69.841  1.00  0.00    -0.120 A  
HETATM   42  C   UNL     1      -9.125   6.950  71.737  1.00  0.00    -0.138 A  
HETATM   43  N   UNL     1      -9.865   7.191  72.984  1.00  0.00    -0.178 N  
HETATM   44  C   UNL     1      -9.353   5.783  71.003  1.00  0.00    -0.183 A  
HETATM   45  C   UNL     1      -7.638   6.459  69.428  1.00  0.00    -0.095 A  
ENDBRANCH  12  37
ENDBRANCH   3   5
ENDBRANCH   2   3
TORSDOF 8
ENDMDL
MODEL      241
REMARK 921   NORMALIZED FREE ENERGY PREDICTED BY IDOCK:   -0.11 KCAL/MOL
REMARK 922        TOTAL FREE ENERGY PREDICTED BY IDOCK:   -2.07 KCAL/MOL
REMARK 923 INTER-LIGAND FREE ENERGY PREDICTED BY IDOCK:   -4.24 KCAL/MOL
REMARK 924 INTRA-LIGAND FREE ENERGY PREDICTED BY IDOCK:    2.17 KCAL/MOL
REMARK 927      BINDING AFFINITY PREDICTED BY RF-SCORE:    0.00 PKD
ROOT
HETATM    1  C   UNL     1     -10.541   7.217  73.511  1.00  0.00    -0.374 C  
HETATM    2  O   UNL     1      -9.478   8.087  73.108  1.00  0.00    -0.262 OA 
ENDROOT
BRANCH   2   3
HETATM    3  C   UNL     1      -8.557   7.478  72.314  1.00  0.00    -0.115 C  
HETATM    4  O   UNL     1      -8.445   6.267  72.197  1.00  0.00    -0.113 OA 
BRANCH   3   5
HETATM    5  C   UNL     1      -7.714   8.484  71.613  1.00  0.00    -0.150 C  
HETATM    6  C   UNL     1      -6.597   8.989  72.192  1.00  0.00     0.092 C  
HETATM    7  N   UNL     1      -5.802   9.874  71.485  1.00  0.00    -0.259 NA 
HETATM    8  C   UNL     1      -6.080   8.720  73.585  1.00  0.00    -0.089 C  
HETATM    9  C   UNL     1      -6.134  10.455  70.280  1.00  0.00    -0.107 C  
HETATM   10  C   UNL     1      -5.152  11.490  69.774  1.00  0.00    -0.058 C  
HETATM   11  C   UNL     1      -7.266  10.075  69.641  1.00  0.00    -0.119 C  
HETATM   12  C   UNL     1      -8.148   8.951  70.205  1.00  0.00    -0.125 C  
BRANCH  11  13
HETATM   13  C   UNL     1      -7.660  10.825  68.419  1.00  0.00    -0.102 C  
HETATM   14  O   UNL     1      -7.892  12.024  68.431  1.00  0.00    -0.136 OA 
BRANCH  13  15
HETATM   15  O   UNL     1      -7.633  10.046  67.312  1.00  0.00    -0.094 OA 
HETATM   16  C   UNL     1      -6.570   8.891  65.406  1.00  0.00    -0.068 C  
HETATM   17  C   UNL     1      -5.573   8.819  67.740  1.00  0.00    -0.035 C  
HETATM   18  C   UNL     1      -6.338   9.694  66.734  1.00  0.00    -0.066 C  
HETATM   19  C   UNL     1      -5.505  10.931  66.326  1.00  0.00    -0.120 C  
BRANCH  16  20
HETATM   20  N   UNL     1      -7.289   7.592  65.462  1.00  0.00    -0.068 NA 
HETATM   21  C   UNL     1      -8.311   7.518  64.413  1.00  0.00     0.074 C  
BRANCH  20  22
HETATM   22  C   UNL     1      -6.357   6.467  65.234  1.00  0.00    -0.038 C  
BRANCH  22  23
HETATM   23  C   UNL     1      -6.300   5.402  66.331  1.00  0.00    -0.039 C  
HETATM   24  C   UNL     1      -6.951   5.752  67.695  1.00  0.00    -0.066 C  
HETATM   25  C   UNL     1      -6.481   4.692  68.705  1.00  0.00    -0.037 A  
HETATM   26  C   UNL     1      -8.460   5.976  67.574  1.00  0.00    -0.107 A  
HETATM   27  C   UNL     1      -5.778   5.076  69.856  1.00  0.00    -0.016 A  
HETATM   28  C   UNL     1      -9.412   4.951  67.681  1.00  0.00    -0.166 A  
HETATM   29  C   UNL     1      -5.151   4.118  70.660  1.00  0.00     0.000 A  
HETATM   30  C   UNL     1     -10.767   5.191  67.437  1.00  0.00    -0.004 A  
HETATM   31  C   UNL     1     -11.203   6.462  67.084  1.00  0.00    -0.298 A  
HETATM   32  C   UNL     1      -5.233   2.764  70.337  1.00  0.00    -0.004 A  
HETATM   33  C   UNL     1      -5.966   2.362  69.228  1.00  0.00    -0.024 A  
HETATM   34  C   UNL     1     -10.286   7.502  66.993  1.00  0.00    -0.368 A  
HETATM   35  C   UNL     1      -8.930   7.261  67.245  1.00  0.00    -0.126 A  
HETATM   36  C   UNL     1      -6.583   3.316  68.420  1.00  0.00    -0.037 A  
ENDBRANCH  22  23
ENDBRANCH  20  22
ENDBRANCH  16  20
ENDBRANCH  13  15
ENDBRANCH  11  13
BRANCH  12  37
HETATM   37  C   UNL     1      -9.628   9.344  70.170  1.00  0.00    -0.275 A  
HETATM   38  O   UNL     1     -10.772  13.299  69.694  1.00  0.00     0.137 OA 
HETATM   39  C   UNL     1      -9.994  10.684  69.933  1.00  0.00     0.120 A  
HETATM   40  O   UNL     1     -12.896  12.788  69.887  1.00  0.00     0.283 OA 
HETATM   41  C   UNL     1     -11.980   8.783  70.420  1.00  0.00     0.129 A  
HETATM   42  C   UNL     1     -11.338  11.070  69.999  1.00  0.00    -0.277 A  
HETATM   43  N   UNL     1     -11.694  12.487  69.845  1.00  0.00    -0.289 N  
HETATM   44  C   UNL     1     -12.335  10.121  70.238  1.00  0.00    -0.211 A  
HETATM   45  C   UNL     1     -10.636   8.398  70.392  1.00  0.00    -0.236 A  
ENDBRANCH  12  37
ENDBRANCH   3   5
ENDBRANCH   2   3
TORSDOF 8
ENDMDL
MODEL      242
REMARK 921   NORMALIZED FREE ENERGY PREDICTED BY IDOCK:   -0.07 KCAL/MOL
REMARK 922        TOTAL FREE ENERGY PREDICTED BY IDOCK:   -2.02 KCAL/MOL
REMARK 923 INTER-LIGAND FREE ENERGY PREDICTED BY IDOCK:   -3.27 KCAL/MOL
REMARK 924 INTRA-LIGAND FREE ENERGY PREDICTED BY IDOCK:    1.25 KCAL/MOL
REMARK 927      BINDING AFFINITY PREDICTED BY RF-SCORE:    0.00 PKD
ROOT
HETATM    1  C   UNL     1     -11.968   7.948  73.047  1.00  0.00     0.173 C  
HETATM    2  O   UNL     1     -10.769   8.618  72.642  1.00  0.00    -0.241 OA 
ENDROOT
BRANCH   2   3
HETATM    3  C   UNL     1      -9.944   7.837  71.894  1.00  0.00    -0.174 C  
HETATM    4  O   UNL     1     -10.172   6.671  71.611  1.00  0.00    -0.192 OA 
BRANCH   3   5
HETATM    5  C   UNL     1      -8.736   8.596  71.471  1.00  0.00    -0.266 C  
HETATM    6  C   UNL     1      -7.701   8.798  72.324  1.00  0.00     0.097 C  
HETATM    7  N   UNL     1      -6.566   9.452  71.877  1.00  0.00    -0.298 NA 
HETATM    8  C   UNL     1      -7.616   8.402  73.779  1.00  0.00    -0.156 C  
HETATM    9  C   UNL     1      -6.444  10.101  70.667  1.00  0.00    -0.084 C  
HETATM   10  C   UNL     1      -5.146  10.852  70.469  1.00  0.00    -0.076 C  
HETATM   11  C   UNL     1      -7.449  10.024  69.761  1.00  0.00    -0.152 C  
HETATM   12  C   UNL     1      -8.690   9.162  70.035  1.00  0.00    -0.186 C  
BRANCH  11  13
HETATM   13  C   UNL     1      -7.340  10.853  68.532  1.00  0.00    -0.098 C  
HETATM   14  O   UNL     1      -7.172  12.062  68.568  1.00  0.00    -0.089 OA 
BRANCH  13  15
HETATM   15  O   UNL     1      -7.355  10.100  67.407  1.00  0.00    -0.088 OA 
HETATM   16  C   UNL     1      -6.353   8.910  65.489  1.00  0.00    -0.063 C  
HETATM   17  C   UNL     1      -5.403   8.707  67.835  1.00  0.00    -0.035 C  
HETATM   18  C   UNL     1      -6.082   9.662  66.839  1.00  0.00    -0.063 C  
HETATM   19  C   UNL     1      -5.149  10.841  66.474  1.00  0.00    -0.069 C  
BRANCH  16  20
HETATM   20  N   UNL     1      -7.171   7.670  65.503  1.00  0.00    -0.067 NA 
HETATM   21  C   UNL     1      -8.035   7.604  64.321  1.00  0.00    -0.112 C  
BRANCH  20  22
HETATM   22  C   UNL     1      -6.305   6.472  65.470  1.00  0.00    -0.038 C  
BRANCH  22  23
HETATM   23  C   UNL     1      -6.619   5.382  66.497  1.00  0.00    -0.056 C  
HETATM   24  C   UNL     1      -7.852   4.483  66.223  1.00  0.00    -0.099 C  
HETATM   25  C   UNL     1      -8.149   3.715  67.522  1.00  0.00    -0.089 A  
HETATM   26  C   UNL     1      -7.689   3.652  64.947  1.00  0.00    -0.081 A  
HETATM   27  C   UNL     1      -9.396   3.847  68.151  1.00  0.00    -0.223 A  
HETATM   28  C   UNL     1      -7.086   2.385  64.912  1.00  0.00    -0.053 A  
HETATM   29  C   UNL     1      -9.600   3.342  69.440  1.00  0.00    -0.119 A  
HETATM   30  C   UNL     1      -6.851   1.727  63.702  1.00  0.00    -0.030 A  
HETATM   31  C   UNL     1      -7.216   2.318  62.499  1.00  0.00    -0.036 A  
HETATM   32  C   UNL     1      -8.570   2.683  70.110  1.00  0.00    -0.111 A  
HETATM   33  C   UNL     1      -7.344   2.502  69.483  1.00  0.00    -0.044 A  
HETATM   34  C   UNL     1      -7.835   3.562  62.504  1.00  0.00    -0.062 A  
HETATM   35  C   UNL     1      -8.077   4.216  63.717  1.00  0.00    -0.091 A  
HETATM   36  C   UNL     1      -7.136   3.012  68.204  1.00  0.00    -0.049 A  
ENDBRANCH  22  23
ENDBRANCH  20  22
ENDBRANCH  16  20
ENDBRANCH  13  15
ENDBRANCH  11  13
BRANCH  12  37
HETATM   37  C   UNL     1      -9.973   9.920  69.683  1.00  0.00    -0.255 A  
HETATM   38  O   UNL     1     -12.794  10.798  72.590  1.00  0.00     0.315 OA 
HETATM   39  C   UNL     1     -10.883  10.272  70.700  1.00  0.00    -0.210 A  
HETATM   40  O   UNL     1     -14.144  11.703  71.117  1.00  0.00     1.618 OA 
HETATM   41  C   UNL     1     -11.485  10.889  68.045  1.00  0.00    -0.356 A  
HETATM   42  C   UNL     1     -12.104  10.875  70.376  1.00  0.00    -0.363 A  
HETATM   43  N   UNL     1     -13.082  11.148  71.438  1.00  0.00    -0.375 N  
HETATM   44  C   UNL     1     -12.408  11.189  69.049  1.00  0.00    -0.032 A  
HETATM   45  C   UNL     1     -10.280  10.255  68.358  1.00  0.00    -0.189 A  
ENDBRANCH  12  37
ENDBRANCH   3   5
ENDBRANCH   2   3
TORSDOF 8
ENDMDL
MODEL      243
REMARK 921   NORMALIZED FREE ENERGY PREDICTED BY IDOCK:    0.21 KCAL/MOL
REMARK 922        TOTAL FREE ENERGY PREDICTED BY IDOCK:   -1.61 KCAL/MOL
REMARK 923 INTER-LIGAND FREE ENERGY PREDICTED BY IDOCK:   -5.18 KCAL/MOL
REMARK 924 INTRA-LIGAND FREE ENERGY PREDICTED BY IDOCK:    3.57 KCAL/MOL
REMARK 927      BINDING AFFINITY PREDICTED BY RF-SCORE:    0.00 PKD
ROOT
HETATM    1  C   UNL     1      -7.534   3.267  64.997  1.00  0.00    -0.073 C  
HETATM    2  O   UNL     1      -7.635   4.656  64.665  1.00  0.00    -0.071 OA 
ENDROOT
BRANCH   2   3
HETATM    3  C   UNL     1      -8.820   5.213  65.036  1.00  0.00    -0.134 C  
HETATM    4  O   UNL     1      -9.788   4.574  65.419  1.00  0.00    -0.183 OA 
BRANCH   3   5
HETATM    5  C   UNL     1      -8.770   6.695  64.914  1.00  0.00     0.235 C  
HETATM    6  C   UNL     1      -8.134   7.292  63.876  1.00  0.00    -0.013 C  
HETATM    7  N   UNL     1      -8.163   8.670  63.759  1.00  0.00    -0.162 NA 
HETATM    8  C   UNL     1      -7.338   6.626  62.777  1.00  0.00    -0.070 C  
HETATM    9  C   UNL     1      -8.633   9.542  64.718  1.00  0.00    -0.176 C  
HETATM   10  C   UNL     1      -8.435  11.009  64.405  1.00  0.00     0.209 C  
HETATM   11  C   UNL     1      -9.229   9.054  65.833  1.00  0.00    -0.290 C  
HETATM   12  C   UNL     1      -9.454   7.545  66.008  1.00  0.00    -0.011 C  
BRANCH  11  13
HETATM   13  C   UNL     1      -9.593  10.018  66.904  1.00  0.00    -0.175 C  
HETATM   14  O   UNL     1      -9.720   9.685  68.072  1.00  0.00    -0.142 OA 
BRANCH  13  15
HETATM   15  O   UNL     1      -9.669  11.288  66.441  1.00  0.00    -0.199 OA 
HETATM   16  C   UNL     1     -10.821  13.316  65.629  1.00  0.00    -0.279 C  
HETATM   17  C   UNL     1     -11.635  12.040  67.668  1.00  0.00    -0.392 C  
HETATM   18  C   UNL     1     -10.987  11.898  66.281  1.00  0.00    -0.302 C  
HETATM   19  C   UNL     1     -11.902  11.107  65.317  1.00  0.00     0.878 C  
BRANCH  16  20
HETATM   20  N   UNL     1     -10.043  14.357  66.349  1.00  0.00    -0.276 NA 
HETATM   21  C   UNL     1      -8.973  14.886  65.499  1.00  0.00     0.932 C  
BRANCH  20  22
HETATM   22  C   UNL     1     -10.909  15.500  66.711  1.00  0.00    -0.291 C  
BRANCH  22  23
HETATM   23  C   UNL     1     -11.360  15.571  68.172  1.00  0.00    -0.348 C  
HETATM   24  C   UNL     1     -10.905  14.425  69.111  1.00  0.00    -0.275 C  
HETATM   25  C   UNL     1     -11.738  14.539  70.399  1.00  0.00    -0.354 A  
HETATM   26  C   UNL     1      -9.382  14.379  69.271  1.00  0.00     0.160 A  
HETATM   27  C   UNL     1     -12.546  13.470  70.814  1.00  0.00    -0.382 A  
HETATM   28  C   UNL     1      -8.678  15.103  70.244  1.00  0.00     0.824 A  
HETATM   29  C   UNL     1     -13.475  13.639  71.846  1.00  0.00    -0.519 A  
HETATM   30  C   UNL     1      -7.280  15.122  70.264  1.00  0.00     0.246 A  
HETATM   31  C   UNL     1      -6.555  14.415  69.313  1.00  0.00    -0.122 A  
HETATM   32  C   UNL     1     -13.597  14.870  72.489  1.00  0.00    -0.562 A  
HETATM   33  C   UNL     1     -12.772  15.925  72.124  1.00  0.00    -0.506 A  
HETATM   34  C   UNL     1      -7.226  13.669  68.351  1.00  0.00    -0.109 A  
HETATM   35  C   UNL     1      -8.626  13.646  68.338  1.00  0.00    -0.151 A  
HETATM   36  C   UNL     1     -11.852  15.761  71.090  1.00  0.00    -0.471 A  
ENDBRANCH  22  23
ENDBRANCH  20  22
ENDBRANCH  16  20
ENDBRANCH  13  15
ENDBRANCH  11  13
BRANCH  12  37
HETATM   37  C   UNL     1      -9.051   7.089  67.414  1.00  0.00    -0.124 A  
HETATM   38  O   UNL     1     -11.905   6.499  70.361  1.00  0.00    -0.400 OA 
HETATM   39  C   UNL     1     -10.044   6.824  68.378  1.00  0.00    -0.168 A  
HETATM   40  O   UNL     1     -10.374   6.023  71.857  1.00  0.00    -0.199 OA 
HETATM   41  C   UNL     1      -7.352   6.598  69.081  1.00  0.00    -0.093 A  
HETATM   42  C   UNL     1      -9.683   6.505  69.693  1.00  0.00    -0.156 A  
HETATM   43  N   UNL     1     -10.730   6.326  70.708  1.00  0.00    -0.242 N  
HETATM   44  C   UNL     1      -8.337   6.387  70.048  1.00  0.00    -0.130 A  
HETATM   45  C   UNL     1      -7.706   6.951  67.776  1.00  0.00    -0.112 A  
ENDBRANCH  12  37
ENDBRANCH   3   5
ENDBRANCH   2   3
TORSDOF 8
ENDMDL
MODEL      244
REMARK 921   NORMALIZED FREE ENERGY PREDICTED BY IDOCK:    0.24 KCAL/MOL
REMARK 922        TOTAL FREE ENERGY PREDICTED BY IDOCK:   -1.57 KCAL/MOL
REMARK 923 INTER-LIGAND FREE ENERGY PREDICTED BY IDOCK:   -5.18 KCAL/MOL
REMARK 924 INTRA-LIGAND FREE ENERGY PREDICTED BY IDOCK:    3.61 KCAL/MOL
REMARK 927      BINDING AFFINITY PREDICTED BY RF-SCORE:    0.00 PKD
ROOT
HETATM    1  C   UNL     1      -6.693   2.229  64.831  1.00  0.00    -0.035 C  
HETATM    2  O   UNL     1      -6.324   3.602  64.999  1.00  0.00    -0.026 OA 
ENDROOT
BRANCH   2   3
HETATM    3  C   UNL     1      -6.914   4.190  66.074  1.00  0.00    -0.066 C  
HETATM    4  O   UNL     1      -7.601   3.595  66.890  1.00  0.00    -0.078 OA 
BRANCH   3   5
HETATM    5  C   UNL     1      -6.607   5.645  66.117  1.00  0.00    -0.051 C  
HETATM    6  C   UNL     1      -5.839   6.228  65.164  1.00  0.00    -0.025 C  
HETATM    7  N   UNL     1      -5.628   7.595  65.199  1.00  0.00    -0.033 NA 
HETATM    8  C   UNL     1      -5.127   5.553  64.015  1.00  0.00    -0.010 C  
HETATM    9  C   UNL     1      -5.979   8.430  66.239  1.00  0.00    -0.045 C  
HETATM   10  C   UNL     1      -5.521   9.864  66.093  1.00  0.00    -0.051 C  
HETATM   11  C   UNL     1      -6.692   7.938  67.281  1.00  0.00    -0.069 C  
HETATM   12  C   UNL     1      -7.178   6.482  67.284  1.00  0.00    -0.078 C  
BRANCH  11  13
HETATM   13  C   UNL     1      -6.927   8.833  68.444  1.00  0.00    -0.066 C  
HETATM   14  O   UNL     1      -6.601   8.531  69.582  1.00  0.00    -0.039 OA 
BRANCH  13  15
HETATM   15  O   UNL     1      -7.445  10.027  68.072  1.00  0.00    -0.086 OA 
HETATM   16  C   UNL     1      -9.240  11.582  67.396  1.00  0.00    -0.166 C  
HETATM   17  C   UNL     1      -9.527   9.967  69.334  1.00  0.00    -0.237 C  
HETATM   18  C   UNL     1      -8.895  10.153  67.945  1.00  0.00    -0.125 C  
HETATM   19  C   UNL     1      -9.498   9.163  66.922  1.00  0.00    -0.222 C  
BRANCH  16  20
HETATM   20  N   UNL     1      -8.857  12.776  68.194  1.00  0.00    -0.192 NA 
HETATM   21  C   UNL     1      -7.780  12.449  69.133  1.00  0.00     0.290 C  
BRANCH  20  22
HETATM   22  C   UNL     1      -8.349  13.851  67.315  1.00  0.00    -0.185 C  
BRANCH  22  23
HETATM   23  C   UNL     1      -8.835  15.268  67.629  1.00  0.00    -0.180 C  
HETATM   24  C   UNL     1     -10.348  15.556  67.450  1.00  0.00    -0.266 C  
HETATM   25  C   UNL     1     -10.526  17.082  67.497  1.00  0.00    -0.334 A  
HETATM   26  C   UNL     1     -11.211  14.726  68.405  1.00  0.00    -0.298 A  
HETATM   27  C   UNL     1     -11.092  17.761  66.407  1.00  0.00     0.514 A  
HETATM   28  C   UNL     1     -11.554  15.136  69.702  1.00  0.00    -0.335 A  
HETATM   29  C   UNL     1     -11.052  19.158  66.340  1.00  0.00     0.038 A  
HETATM   30  C   UNL     1     -12.238  14.285  70.574  1.00  0.00    -0.427 A  
HETATM   31  C   UNL     1     -12.597  13.005  70.169  1.00  0.00    -0.047 A  
HETATM   32  C   UNL     1     -10.464  19.896  67.367  1.00  0.00    -0.542 A  
HETATM   33  C   UNL     1      -9.941  19.243  68.475  1.00  0.00    -0.513 A  
HETATM   34  C   UNL     1     -12.290  12.580  68.882  1.00  0.00     0.208 A  
HETATM   35  C   UNL     1     -11.612  13.436  68.008  1.00  0.00    -0.369 A  
HETATM   36  C   UNL     1      -9.972  17.851  68.539  1.00  0.00    -0.379 A  
ENDBRANCH  22  23
ENDBRANCH  20  22
ENDBRANCH  16  20
ENDBRANCH  13  15
ENDBRANCH  11  13
BRANCH  12  37
HETATM   37  C   UNL     1      -6.914   5.818  68.639  1.00  0.00    -0.071 A  
HETATM   38  O   UNL     1     -10.043   4.447  70.986  1.00  0.00    -0.189 OA 
HETATM   39  C   UNL     1      -7.987   5.293  69.386  1.00  0.00    -0.088 A  
HETATM   40  O   UNL     1      -8.676   3.849  72.594  1.00  0.00    -0.097 OA 
HETATM   41  C   UNL     1      -5.403   5.189  70.437  1.00  0.00    -0.004 A  
HETATM   42  C   UNL     1      -7.768   4.776  70.668  1.00  0.00    -0.065 A  
HETATM   43  N   UNL     1      -8.911   4.321  71.472  1.00  0.00    -0.111 N  
HETATM   44  C   UNL     1      -6.475   4.719  71.196  1.00  0.00    -0.019 A  
HETATM   45  C   UNL     1      -5.621   5.739  69.170  1.00  0.00    -0.008 A  
ENDBRANCH  12  37
ENDBRANCH   3   5
ENDBRANCH   2   3
TORSDOF 8
ENDMDL
MODEL      245
REMARK 921   NORMALIZED FREE ENERGY PREDICTED BY IDOCK:    0.29 KCAL/MOL
REMARK 922        TOTAL FREE ENERGY PREDICTED BY IDOCK:   -1.49 KCAL/MOL
REMARK 923 INTER-LIGAND FREE ENERGY PREDICTED BY IDOCK:   -2.89 KCAL/MOL
REMARK 924 INTRA-LIGAND FREE ENERGY PREDICTED BY IDOCK:    1.40 KCAL/MOL
REMARK 927      BINDING AFFINITY PREDICTED BY RF-SCORE:    0.00 PKD
ROOT
HETATM    1  C   UNL     1     -10.733   4.093  67.103  1.00  0.00     1.431 C  
HETATM    2  O   UNL     1     -10.564   4.058  68.524  1.00  0.00     0.843 OA 
ENDROOT
BRANCH   2   3
HETATM    3  C   UNL     1      -9.406   4.636  68.942  1.00  0.00    -0.141 C  
HETATM    4  O   UNL     1      -8.460   4.019  69.407  1.00  0.00    -0.067 OA 
BRANCH   3   5
HETATM    5  C   UNL     1      -9.453   6.111  68.752  1.00  0.00    -0.128 C  
HETATM    6  C   UNL     1     -10.451   6.856  69.289  1.00  0.00    -0.214 C  
HETATM    7  N   UNL     1     -10.427   8.232  69.148  1.00  0.00    -0.220 NA 
HETATM    8  C   UNL     1     -11.662   6.364  70.046  1.00  0.00    -0.345 C  
HETATM    9  C   UNL     1      -9.561   8.936  68.337  1.00  0.00    -0.146 C  
HETATM   10  C   UNL     1      -9.824  10.424  68.256  1.00  0.00    -0.169 C  
HETATM   11  C   UNL     1      -8.563   8.282  67.696  1.00  0.00    -0.130 C  
HETATM   12  C   UNL     1      -8.337   6.779  67.917  1.00  0.00    -0.120 C  
BRANCH  11  13
HETATM   13  C   UNL     1      -7.743   9.051  66.723  1.00  0.00    -0.093 C  
HETATM   14  O   UNL     1      -7.448   8.613  65.622  1.00  0.00    -0.083 OA 
BRANCH  13  15
HETATM   15  O   UNL     1      -7.458  10.297  67.170  1.00  0.00    -0.090 OA 
HETATM   16  C   UNL     1      -6.273  12.463  67.172  1.00  0.00    -0.082 C  
HETATM   17  C   UNL     1      -7.161  11.426  65.032  1.00  0.00     1.253 C  
HETATM   18  C   UNL     1      -6.529  11.121  66.400  1.00  0.00    -0.109 C  
HETATM   19  C   UNL     1      -5.137  10.468  66.237  1.00  0.00    -0.060 C  
BRANCH  16  20
HETATM   20  N   UNL     1      -7.414  13.378  67.433  1.00  0.00    -0.154 NA 
HETATM   21  C   UNL     1      -7.720  13.431  68.865  1.00  0.00     0.049 C  
BRANCH  20  22
HETATM   22  C   UNL     1      -7.086  14.757  67.012  1.00  0.00     0.389 C  
BRANCH  22  23
HETATM   23  C   UNL     1      -8.078  15.845  67.428  1.00  0.00    -0.187 C  
HETATM   24  C   UNL     1      -9.214  16.189  66.431  1.00  0.00    -0.334 C  
HETATM   25  C   UNL     1      -9.855  17.502  66.911  1.00  0.00    -0.302 A  
HETATM   26  C   UNL     1     -10.154  15.004  66.194  1.00  0.00    -0.312 A  
HETATM   27  C   UNL     1      -9.875  18.626  66.072  1.00  0.00    -0.203 A  
HETATM   28  C   UNL     1     -11.283  14.734  66.982  1.00  0.00    -0.347 A  
HETATM   29  C   UNL     1     -10.245  19.880  66.571  1.00  0.00    -0.611 A  
HETATM   30  C   UNL     1     -12.033  13.569  66.799  1.00  0.00    -0.453 A  
HETATM   31  C   UNL     1     -11.674  12.648  65.824  1.00  0.00    -0.466 A  
HETATM   32  C   UNL     1     -10.615  20.025  67.908  1.00  0.00    -0.379 A  
HETATM   33  C   UNL     1     -10.647  18.914  68.740  1.00  0.00     0.169 A  
HETATM   34  C   UNL     1     -10.573  12.899  65.013  1.00  0.00    -0.333 A  
HETATM   35  C   UNL     1      -9.828  14.070  65.193  1.00  0.00    -0.138 A  
HETATM   36  C   UNL     1     -10.271  17.667  68.247  1.00  0.00    -0.374 A  
ENDBRANCH  22  23
ENDBRANCH  20  22
ENDBRANCH  16  20
ENDBRANCH  13  15
ENDBRANCH  11  13
BRANCH  12  37
HETATM   37  C   UNL     1      -8.115   6.055  66.586  1.00  0.00    -0.106 A  
HETATM   38  O   UNL     1      -5.172   3.163  66.200  1.00  0.00    -0.008 OA 
HETATM   39  C   UNL     1      -7.159   5.024  66.498  1.00  0.00    -0.069 A  
HETATM   40  O   UNL     1      -5.605   2.897  64.067  1.00  0.00    -0.009 OA 
HETATM   41  C   UNL     1      -8.570   5.786  64.214  1.00  0.00     0.076 A  
HETATM   42  C   UNL     1      -6.878   4.426  65.264  1.00  0.00    -0.057 A  
HETATM   43  N   UNL     1      -5.811   3.420  65.172  1.00  0.00    -0.018 N  
HETATM   44  C   UNL     1      -7.585   4.802  64.119  1.00  0.00    -0.072 A  
HETATM   45  C   UNL     1      -8.830   6.412  65.436  1.00  0.00     0.026 A  
ENDBRANCH  12  37
ENDBRANCH   3   5
ENDBRANCH   2   3
TORSDOF 8
ENDMDL
MODEL      246
REMARK 921   NORMALIZED FREE ENERGY PREDICTED BY IDOCK:    0.37 KCAL/MOL
REMARK 922        TOTAL FREE ENERGY PREDICTED BY IDOCK:   -1.37 KCAL/MOL
REMARK 923 INTER-LIGAND FREE ENERGY PREDICTED BY IDOCK:   -5.12 KCAL/MOL
REMARK 924 INTRA-LIGAND FREE ENERGY PREDICTED BY IDOCK:    3.75 KCAL/MOL
REMARK 927      BINDING AFFINITY PREDICTED BY RF-SCORE:    0.00 PKD
ROOT
HETATM    1  C   UNL     1      -9.937  20.184  67.936  1.00  0.00    -0.398 C  
HETATM    2  O   UNL     1     -10.560  18.897  67.888  1.00  0.00    -0.395 OA 
ENDROOT
BRANCH   2   3
HETATM    3  C   UNL     1      -9.919  18.019  67.070  1.00  0.00    -0.329 C  
HETATM    4  O   UNL     1      -9.269  18.345  66.089  1.00  0.00    -0.468 OA 
BRANCH   3   5
HETATM    5  C   UNL     1     -10.116  16.620  67.538  1.00  0.00    -0.273 C  
HETATM    6  C   UNL     1     -11.251  16.248  68.179  1.00  0.00    -0.298 C  
HETATM    7  N   UNL     1     -11.428  14.925  68.541  1.00  0.00    -0.301 NA 
HETATM    8  C   UNL     1     -12.406  17.130  68.593  1.00  0.00     2.827 C  
HETATM    9  C   UNL     1     -10.461  13.944  68.477  1.00  0.00    -0.250 C  
HETATM   10  C   UNL     1     -10.864  12.605  69.056  1.00  0.00    -0.192 C  
HETATM   11  C   UNL     1      -9.260  14.223  67.916  1.00  0.00    -0.194 C  
HETATM   12  C   UNL     1      -8.987  15.596  67.283  1.00  0.00    -0.214 C  
BRANCH  11  13
HETATM   13  C   UNL     1      -8.199  13.186  67.995  1.00  0.00    -0.158 C  
HETATM   14  O   UNL     1      -7.036  13.453  68.257  1.00  0.00    -0.087 OA 
BRANCH  13  15
HETATM   15  O   UNL     1      -8.695  11.936  67.836  1.00  0.00    -0.152 OA 
HETATM   16  C   UNL     1      -9.330   9.919  66.560  1.00  0.00    -0.164 C  
HETATM   17  C   UNL     1      -7.100  11.080  66.206  1.00  0.00    -0.092 C  
HETATM   18  C   UNL     1      -8.588  11.301  66.524  1.00  0.00    -0.170 C  
HETATM   19  C   UNL     1      -9.282  12.111  65.404  1.00  0.00     0.160 C  
BRANCH  16  20
HETATM   20  N   UNL     1      -8.855   8.866  67.495  1.00  0.00    -0.130 NA 
HETATM   21  C   UNL     1      -8.136   9.462  68.625  1.00  0.00    -0.104 C  
BRANCH  20  22
HETATM   22  C   UNL     1      -9.996   8.114  68.060  1.00  0.00    -0.184 C  
BRANCH  22  23
HETATM   23  C   UNL     1      -9.746   6.636  68.365  1.00  0.00    -0.126 C  
HETATM   24  C   UNL     1      -8.976   6.299  69.668  1.00  0.00    -0.135 C  
HETATM   25  C   UNL     1      -8.567   4.820  69.582  1.00  0.00    -0.100 A  
HETATM   26  C   UNL     1      -9.743   6.736  70.920  1.00  0.00    -0.186 A  
HETATM   27  C   UNL     1      -7.213   4.457  69.646  1.00  0.00    -0.050 A  
HETATM   28  C   UNL     1     -10.684   5.931  71.579  1.00  0.00    -0.313 A  
HETATM   29  C   UNL     1      -6.811   3.152  69.343  1.00  0.00    -0.037 A  
HETATM   30  C   UNL     1     -11.445   6.427  72.641  1.00  0.00    -0.234 A  
HETATM   31  C   UNL     1     -11.280   7.738  73.072  1.00  0.00    -0.380 A  
HETATM   32  C   UNL     1      -7.754   2.188  68.990  1.00  0.00    -0.045 A  
HETATM   33  C   UNL     1      -9.103   2.517  68.968  1.00  0.00    -0.190 A  
HETATM   34  C   UNL     1     -10.338   8.551  72.453  1.00  0.00    -0.372 A  
HETATM   35  C   UNL     1      -9.572   8.050  71.394  1.00  0.00    -0.195 A  
HETATM   36  C   UNL     1      -9.505   3.819  69.261  1.00  0.00    -0.252 A  
ENDBRANCH  22  23
ENDBRANCH  20  22
ENDBRANCH  16  20
ENDBRANCH  13  15
ENDBRANCH  11  13
BRANCH  12  37
HETATM   37  C   UNL     1      -7.622  16.138  67.713  1.00  0.00    -0.154 A  
HETATM   38  O   UNL     1      -7.329  19.383  70.276  1.00  0.00     0.345 OA 
HETATM   39  C   UNL     1      -7.546  17.194  68.643  1.00  0.00    -0.258 A  
HETATM   40  O   UNL     1      -5.140  19.389  70.143  1.00  0.00    -0.184 OA 
HETATM   41  C   UNL     1      -5.197  16.168  67.537  1.00  0.00    -0.136 A  
HETATM   42  C   UNL     1      -6.308  17.763  68.965  1.00  0.00    -0.224 A  
HETATM   43  N   UNL     1      -6.256  18.926  69.862  1.00  0.00    -0.225 N  
HETATM   44  C   UNL     1      -5.130  17.249  68.417  1.00  0.00    -0.132 A  
HETATM   45  C   UNL     1      -6.434  15.620  67.184  1.00  0.00     0.026 A  
ENDBRANCH  12  37
ENDBRANCH   3   5
ENDBRANCH   2   3
TORSDOF 8
ENDMDL
MODEL      247
REMARK 921   NORMALIZED FREE ENERGY PREDICTED BY IDOCK:    0.46 KCAL/MOL
REMARK 922        TOTAL FREE ENERGY PREDICTED BY IDOCK:   -1.24 KCAL/MOL
REMARK 923 INTER-LIGAND FREE ENERGY PREDICTED BY IDOCK:   -4.49 KCAL/MOL
REMARK 924 INTRA-LIGAND FREE ENERGY PREDICTED BY IDOCK:    3.25 KCAL/MOL
REMARK 927      BINDING AFFINITY PREDICTED BY RF-SCORE:    0.00 PKD
ROOT
HETATM    1  C   UNL     1     -10.928  15.613  69.038  1.00  0.00    -0.263 C  
HETATM    2  O   UNL     1     -10.917  14.348  68.368  1.00  0.00    -0.235 OA 
ENDROOT
BRANCH   2   3
HETATM    3  C   UNL     1      -9.700  13.742  68.383  1.00  0.00    -0.219 C  
HETATM    4  O   UNL     1      -8.816  13.997  69.186  1.00  0.00     0.096 OA 
BRANCH   3   5
HETATM    5  C   UNL     1      -9.598  12.733  67.294  1.00  0.00    -0.208 C  
HETATM    6  C   UNL     1     -10.707  12.171  66.753  1.00  0.00    -0.234 C  
HETATM    7  N   UNL     1     -10.578  11.285  65.698  1.00  0.00    -0.259 NA 
HETATM    8  C   UNL     1     -12.143  12.376  67.176  1.00  0.00    -0.072 C  
HETATM    9  C   UNL     1      -9.389  10.756  65.242  1.00  0.00    -0.210 C  
HETATM   10  C   UNL     1      -9.526   9.706  64.161  1.00  0.00    -0.044 C  
HETATM   11  C   UNL     1      -8.217  11.196  65.761  1.00  0.00    -0.004 C  
HETATM   12  C   UNL     1      -8.192  12.328  66.797  1.00  0.00    -0.058 C  
BRANCH  11  13
HETATM   13  C   UNL     1      -6.971  10.501  65.345  1.00  0.00    -0.074 C  
HETATM   14  O   UNL     1      -5.915  11.091  65.176  1.00  0.00     0.013 OA 
BRANCH  13  15
HETATM   15  O   UNL     1      -7.134   9.159  65.275  1.00  0.00    -0.086 OA 
HETATM   16  C   UNL     1      -7.241   6.967  64.143  1.00  0.00    -0.069 C  
HETATM   17  C   UNL     1      -5.380   8.629  63.670  1.00  0.00    -0.062 C  
HETATM   18  C   UNL     1      -6.875   8.487  64.004  1.00  0.00    -0.075 C  
HETATM   19  C   UNL     1      -7.756   9.019  62.851  1.00  0.00    -0.116 C  
BRANCH  16  20
HETATM   20  N   UNL     1      -6.510   6.133  65.132  1.00  0.00    -0.038 NA 
HETATM   21  C   UNL     1      -5.190   5.757  64.618  1.00  0.00    -0.010 C  
BRANCH  20  22
HETATM   22  C   UNL     1      -6.286   6.885  66.386  1.00  0.00    -0.045 C  
BRANCH  22  23
HETATM   23  C   UNL     1      -6.213   6.053  67.668  1.00  0.00    -0.029 C  
HETATM   24  C   UNL     1      -7.066   6.529  68.872  1.00  0.00    -0.082 C  
HETATM   25  C   UNL     1      -6.577   5.753  70.107  1.00  0.00    -0.047 A  
HETATM   26  C   UNL     1      -8.567   6.481  68.571  1.00  0.00    -0.123 A  
HETATM   27  C   UNL     1      -6.080   6.443  71.222  1.00  0.00    -0.039 A  
HETATM   28  C   UNL     1      -9.370   5.350  68.785  1.00  0.00    -0.159 A  
HETATM   29  C   UNL     1      -5.426   5.755  72.251  1.00  0.00    -0.022 A  
HETATM   30  C   UNL     1     -10.706   5.322  68.375  1.00  0.00     0.030 A  
HETATM   31  C   UNL     1     -11.271   6.423  67.745  1.00  0.00    -0.258 A  
HETATM   32  C   UNL     1      -5.276   4.370  72.188  1.00  0.00    -0.004 A  
HETATM   33  C   UNL     1      -5.804   3.666  71.114  1.00  0.00    -0.013 A  
HETATM   34  C   UNL     1     -10.506   7.566  67.541  1.00  0.00    -0.341 A  
HETATM   35  C   UNL     1      -9.170   7.595  67.958  1.00  0.00    -0.138 A  
HETATM   36  C   UNL     1      -6.448   4.350  70.085  1.00  0.00    -0.031 A  
ENDBRANCH  22  23
ENDBRANCH  20  22
ENDBRANCH  16  20
ENDBRANCH  13  15
ENDBRANCH  11  13
BRANCH  12  37
HETATM   37  C   UNL     1      -7.256  11.987  67.961  1.00  0.00    -0.096 A  
HETATM   38  O   UNL     1      -8.400   9.291  70.894  1.00  0.00    -0.193 OA 
HETATM   39  C   UNL     1      -7.636  11.013  68.906  1.00  0.00    -0.134 A  
HETATM   40  O   UNL     1      -6.544   9.609  72.019  1.00  0.00    -0.270 OA 
HETATM   41  C   UNL     1      -5.216  12.366  69.226  1.00  0.00    -0.068 A  
HETATM   42  C   UNL     1      -6.834  10.767  70.026  1.00  0.00    -0.122 A  
HETATM   43  N   UNL     1      -7.291   9.818  71.051  1.00  0.00     0.122 N  
HETATM   44  C   UNL     1      -5.620  11.439  70.188  1.00  0.00    -0.118 A  
HETATM   45  C   UNL     1      -6.030  12.642  68.124  1.00  0.00    -0.081 A  
ENDBRANCH  12  37
ENDBRANCH   3   5
ENDBRANCH   2   3
TORSDOF 8
ENDMDL
MODEL      248
REMARK 921   NORMALIZED FREE ENERGY PREDICTED BY IDOCK:    0.67 KCAL/MOL
REMARK 922        TOTAL FREE ENERGY PREDICTED BY IDOCK:   -0.94 KCAL/MOL
REMARK 923 INTER-LIGAND FREE ENERGY PREDICTED BY IDOCK:   -8.34 KCAL/MOL
REMARK 924 INTRA-LIGAND FREE ENERGY PREDICTED BY IDOCK:    7.40 KCAL/MOL
REMARK 927      BINDING AFFINITY PREDICTED BY RF-SCORE:    0.00 PKD
ROOT
HETATM    1  C   UNL     1     -10.121   4.119  69.180  1.00  0.00     0.242 C  
HETATM    2  O   UNL     1      -8.887   4.519  69.786  1.00  0.00    -0.082 OA 
ENDROOT
BRANCH   2   3
HETATM    3  C   UNL     1      -9.049   5.092  71.008  1.00  0.00    -0.141 C  
HETATM    4  O   UNL     1      -8.649   4.603  72.054  1.00  0.00    -0.115 OA 
BRANCH   3   5
HETATM    5  C   UNL     1      -9.773   6.387  70.894  1.00  0.00    -0.193 C  
HETATM    6  C   UNL     1     -10.879   6.640  71.636  1.00  0.00    -0.234 C  
HETATM    7  N   UNL     1     -11.489   7.879  71.553  1.00  0.00    -0.258 NA 
HETATM    8  C   UNL     1     -11.589   5.699  72.581  1.00  0.00    -0.307 C  
HETATM    9  C   UNL     1     -11.186   8.856  70.628  1.00  0.00    -0.266 C  
HETATM   10  C   UNL     1     -12.085  10.072  70.660  1.00  0.00    -0.381 C  
HETATM   11  C   UNL     1     -10.138   8.681  69.786  1.00  0.00    -0.199 C  
HETATM   12  C   UNL     1      -9.239   7.441  69.898  1.00  0.00    -0.144 C  
BRANCH  11  13
HETATM   13  C   UNL     1      -9.933   9.689  68.714  1.00  0.00    -0.173 C  
HETATM   14  O   UNL     1     -10.601   9.704  67.691  1.00  0.00    -0.245 OA 
BRANCH  13  15
HETATM   15  O   UNL     1      -9.005  10.614  69.054  1.00  0.00    -0.167 OA 
HETATM   16  C   UNL     1      -6.797  11.394  69.839  1.00  0.00     0.043 C  
HETATM   17  C   UNL     1      -7.028   9.562  68.097  1.00  0.00    -0.078 C  
HETATM   18  C   UNL     1      -7.650  10.164  69.367  1.00  0.00    -0.133 C  
HETATM   19  C   UNL     1      -7.605   9.158  70.540  1.00  0.00    -0.130 C  
BRANCH  16  20
HETATM   20  N   UNL     1      -6.579  12.526  68.902  1.00  0.00    -0.090 NA 
HETATM   21  C   UNL     1      -5.489  12.226  67.970  1.00  0.00    -0.068 C  
BRANCH  20  22
HETATM   22  C   UNL     1      -7.788  12.770  68.085  1.00  0.00    -0.146 C  
BRANCH  22  23
HETATM   23  C   UNL     1      -9.097  12.958  68.855  1.00  0.00     0.319 C  
HETATM   24  C   UNL     1     -10.075  14.045  68.337  1.00  0.00    -0.236 C  
HETATM   25  C   UNL     1     -11.124  14.269  69.438  1.00  0.00    -0.283 A  
HETATM   26  C   UNL     1     -10.597  13.729  66.933  1.00  0.00    -0.276 A  
HETATM   27  C   UNL     1     -11.289  15.541  70.008  1.00  0.00    -0.332 A  
HETATM   28  C   UNL     1     -11.740  12.955  66.682  1.00  0.00    -0.452 A  
HETATM   29  C   UNL     1     -12.070  15.710  71.157  1.00  0.00    -0.454 A  
HETATM   30  C   UNL     1     -12.099  12.594  65.381  1.00  0.00    -0.516 A  
HETATM   31  C   UNL     1     -11.327  13.001  64.300  1.00  0.00    -0.419 A  
HETATM   32  C   UNL     1     -12.711  14.618  71.741  1.00  0.00    -0.405 A  
HETATM   33  C   UNL     1     -12.598  13.361  71.162  1.00  0.00    -0.430 A  
HETATM   34  C   UNL     1     -10.203  13.789  64.517  1.00  0.00    -0.206 A  
HETATM   35  C   UNL     1      -9.849  14.156  65.820  1.00  0.00    -0.297 A  
HETATM   36  C   UNL     1     -11.813  13.188  70.024  1.00  0.00    -0.360 A  
ENDBRANCH  22  23
ENDBRANCH  20  22
ENDBRANCH  16  20
ENDBRANCH  13  15
ENDBRANCH  11  13
BRANCH  12  37
HETATM   37  C   UNL     1      -8.969   6.832  68.519  1.00  0.00    -0.121 A  
HETATM   38  O   UNL     1      -5.365   4.965  67.682  1.00  0.00    -0.010 OA 
HETATM   39  C   UNL     1      -7.767   6.138  68.280  1.00  0.00    -0.103 A  
HETATM   40  O   UNL     1      -5.948   4.604  65.598  1.00  0.00    -0.022 OA 
HETATM   41  C   UNL     1      -9.600   6.464  66.201  1.00  0.00    -0.042 A  
HETATM   42  C   UNL     1      -7.468   5.666  66.996  1.00  0.00    -0.084 A  
HETATM   43  N   UNL     1      -6.168   5.029  66.742  1.00  0.00    -0.031 N  
HETATM   44  C   UNL     1      -8.385   5.823  65.954  1.00  0.00    -0.130 A  
HETATM   45  C   UNL     1      -9.889   6.969  67.472  1.00  0.00    -0.186 A  
ENDBRANCH  12  37
ENDBRANCH   3   5
ENDBRANCH   2   3
TORSDOF 8
ENDMDL
MODEL      249
REMARK 921   NORMALIZED FREE ENERGY PREDICTED BY IDOCK:    0.92 KCAL/MOL
REMARK 922        TOTAL FREE ENERGY PREDICTED BY IDOCK:   -0.56 KCAL/MOL
REMARK 923 INTER-LIGAND FREE ENERGY PREDICTED BY IDOCK:   -3.12 KCAL/MOL
REMARK 924 INTRA-LIGAND FREE ENERGY PREDICTED BY IDOCK:    2.56 KCAL/MOL
REMARK 927      BINDING AFFINITY PREDICTED BY RF-SCORE:    0.00 PKD
ROOT
HETATM    1  C   UNL     1     -14.251  11.688  71.827  1.00  0.00     1.622 C  
HETATM    2  O   UNL     1     -12.974  11.780  71.186  1.00  0.00    -0.310 OA 
ENDROOT
BRANCH   2   3
HETATM    3  C   UNL     1     -12.696  10.716  70.386  1.00  0.00    -0.265 C  
HETATM    4  O   UNL     1     -13.545  10.003  69.874  1.00  0.00     0.403 OA 
BRANCH   3   5
HETATM    5  C   UNL     1     -11.227  10.547  70.221  1.00  0.00    -0.391 C  
HETATM    6  C   UNL     1     -10.540   9.633  70.949  1.00  0.00    -0.316 C  
HETATM    7  N   UNL     1      -9.187   9.457  70.723  1.00  0.00    -0.243 NA 
HETATM    8  C   UNL     1     -11.073   8.741  72.046  1.00  0.00    -0.441 C  
HETATM    9  C   UNL     1      -8.398  10.268  69.935  1.00  0.00    -0.001 C  
HETATM   10  C   UNL     1      -6.921   9.943  69.954  1.00  0.00    -0.105 C  
HETATM   11  C   UNL     1      -8.970  11.262  69.212  1.00  0.00     0.243 C  
HETATM   12  C   UNL     1     -10.495  11.449  69.202  1.00  0.00    -0.159 C  
BRANCH  11  13
HETATM   13  C   UNL     1      -8.072  12.200  68.490  1.00  0.00    -0.112 C  
HETATM   14  O   UNL     1      -7.979  13.381  68.788  1.00  0.00    -0.093 OA 
BRANCH  13  15
HETATM   15  O   UNL     1      -7.326  11.571  67.552  1.00  0.00    -0.098 OA 
HETATM   16  C   UNL     1      -5.330  11.209  66.143  1.00  0.00    -0.141 C  
HETATM   17  C   UNL     1      -5.144  11.703  68.627  1.00  0.00    -0.046 C  
HETATM   18  C   UNL     1      -5.945  12.003  67.349  1.00  0.00    -0.130 C  
HETATM   19  C   UNL     1      -5.832  13.495  66.959  1.00  0.00     0.978 C  
BRANCH  16  20
HETATM   20  N   UNL     1      -5.221   9.730  66.231  1.00  0.00    -0.042 NA 
HETATM   21  C   UNL     1      -5.134   9.298  67.629  1.00  0.00    -0.037 C  
BRANCH  20  22
HETATM   22  C   UNL     1      -6.418   9.082  65.654  1.00  0.00    -0.067 C  
BRANCH  22  23
HETATM   23  C   UNL     1      -7.657   9.967  65.497  1.00  0.00    -0.125 C  
HETATM   24  C   UNL     1      -8.930   9.308  64.905  1.00  0.00    -0.229 C  
HETATM   25  C   UNL     1      -9.899  10.445  64.542  1.00  0.00    -0.405 A  
HETATM   26  C   UNL     1      -9.472   8.192  65.801  1.00  0.00     0.020 A  
HETATM   27  C   UNL     1     -10.343  10.599  63.220  1.00  0.00    -0.009 A  
HETATM   28  C   UNL     1     -10.386   8.404  66.845  1.00  0.00    -0.378 A  
HETATM   29  C   UNL     1     -11.036  11.751  62.832  1.00  0.00     0.153 A  
HETATM   30  C   UNL     1     -10.751   7.370  67.711  1.00  0.00    -0.249 A  
HETATM   31  C   UNL     1     -10.214   6.098  67.552  1.00  0.00    -0.218 A  
HETATM   32  C   UNL     1     -11.310  12.755  63.760  1.00  0.00    -0.520 A  
HETATM   33  C   UNL     1     -10.920  12.598  65.084  1.00  0.00    -0.324 A  
HETATM   34  C   UNL     1      -9.324   5.853  66.512  1.00  0.00    -0.166 A  
HETATM   35  C   UNL     1      -8.966   6.889  65.642  1.00  0.00     0.025 A  
HETATM   36  C   UNL     1     -10.221  11.455  65.470  1.00  0.00    -0.312 A  
ENDBRANCH  22  23
ENDBRANCH  20  22
ENDBRANCH  16  20
ENDBRANCH  13  15
ENDBRANCH  11  13
BRANCH  12  37
HETATM   37  C   UNL     1     -10.867  12.924  69.381  1.00  0.00     0.049 A  
HETATM   38  O   UNL     1     -11.709  14.471  73.133  1.00  0.00     0.103 OA 
HETATM   39  C   UNL     1     -11.077  13.445  70.673  1.00  0.00     1.289 A  
HETATM   40  O   UNL     1     -12.187  16.442  72.298  1.00  0.00    -0.461 OA 
HETATM   41  C   UNL     1     -11.433  15.098  68.452  1.00  0.00    -0.347 A  
HETATM   42  C   UNL     1     -11.516  14.764  70.839  1.00  0.00    -0.219 A  
HETATM   43  N   UNL     1     -11.822  15.262  72.187  1.00  0.00    -0.407 N  
HETATM   44  C   UNL     1     -11.691  15.596  69.730  1.00  0.00    -0.368 A  
HETATM   45  C   UNL     1     -11.029  13.771  68.278  1.00  0.00    -0.269 A  
ENDBRANCH  12  37
ENDBRANCH   3   5
ENDBRANCH   2   3
TORSDOF 8
ENDMDL
MODEL      250
REMARK 921   NORMALIZED FREE ENERGY PREDICTED BY IDOCK:    1.03 KCAL/MOL
REMARK 922        TOTAL FREE ENERGY PREDICTED BY IDOCK:   -0.40 KCAL/MOL
REMARK 923 INTER-LIGAND FREE ENERGY PREDICTED BY IDOCK:   -3.45 KCAL/MOL
REMARK 924 INTRA-LIGAND FREE ENERGY PREDICTED BY IDOCK:    3.05 KCAL/MOL
REMARK 927      BINDING AFFINITY PREDICTED BY RF-SCORE:    0.00 PKD
ROOT
HETATM    1  C   UNL     1     -10.476  14.169  70.548  1.00  0.00     1.309 C  
HETATM    2  O   UNL     1     -11.454  14.690  69.643  1.00  0.00    -0.262 OA 
ENDROOT
BRANCH   2   3
HETATM    3  C   UNL     1     -11.010  14.772  68.360  1.00  0.00    -0.252 C  
HETATM    4  O   UNL     1     -11.630  15.303  67.452  1.00  0.00    -0.303 OA 
BRANCH   3   5
HETATM    5  C   UNL     1      -9.674  14.133  68.221  1.00  0.00    -0.227 C  
HETATM    6  C   UNL     1      -8.534  14.837  68.433  1.00  0.00    -0.157 C  
HETATM    7  N   UNL     1      -7.311  14.194  68.359  1.00  0.00    -0.105 NA 
HETATM    8  C   UNL     1      -8.405  16.311  68.738  1.00  0.00    -0.235 C  
HETATM    9  C   UNL     1      -7.112  12.910  67.899  1.00  0.00    -0.127 C  
HETATM   10  C   UNL     1      -5.664  12.482  67.793  1.00  0.00    -0.116 C  
HETATM   11  C   UNL     1      -8.180  12.135  67.591  1.00  0.00    -0.163 C  
HETATM   12  C   UNL     1      -9.612  12.643  67.818  1.00  0.00    -0.197 C  
BRANCH  11  13
HETATM   13  C   UNL     1      -7.921  10.811  66.966  1.00  0.00    -0.124 C  
HETATM   14  O   UNL     1      -7.947  10.639  65.757  1.00  0.00    -0.159 OA 
BRANCH  13  15
HETATM   15  O   UNL     1      -7.569   9.876  67.880  1.00  0.00    -0.089 OA 
HETATM   16  C   UNL     1      -7.617   8.763  70.084  1.00  0.00    -0.072 C  
HETATM   17  C   UNL     1      -9.745   9.484  68.902  1.00  0.00    -0.166 C  
HETATM   18  C   UNL     1      -8.274   9.848  69.160  1.00  0.00    -0.128 C  
HETATM   19  C   UNL     1      -8.158  11.178  69.941  1.00  0.00     0.916 C  
BRANCH  16  20
HETATM   20  N   UNL     1      -7.627   7.342  69.652  1.00  0.00    -0.097 NA 
HETATM   21  C   UNL     1      -6.267   6.795  69.637  1.00  0.00    -0.034 C  
BRANCH  20  22
HETATM   22  C   UNL     1      -8.413   6.514  70.592  1.00  0.00    -0.134 C  
BRANCH  22  23
HETATM   23  C   UNL     1      -9.658   7.170  71.192  1.00  0.00    -0.164 C  
HETATM   24  C   UNL     1     -10.940   6.304  71.288  1.00  0.00    -0.330 C  
HETATM   25  C   UNL     1     -12.107   7.257  71.598  1.00  0.00    -0.359 A  
HETATM   26  C   UNL     1     -10.758   5.103  72.220  1.00  0.00    -0.266 A  
HETATM   27  C   UNL     1     -13.201   7.341  70.724  1.00  0.00     0.105 A  
HETATM   28  C   UNL     1     -10.998   5.145  73.602  1.00  0.00    -0.350 A  
HETATM   29  C   UNL     1     -14.152   8.357  70.870  1.00  0.00     0.150 A  
HETATM   30  C   UNL     1     -10.695   4.056  74.424  1.00  0.00    -0.198 A  
HETATM   31  C   UNL     1     -10.147   2.899  73.884  1.00  0.00    -0.177 A  
HETATM   32  C   UNL     1     -14.033   9.291  71.899  1.00  0.00    -0.359 A  
HETATM   33  C   UNL     1     -12.983   9.194  72.801  1.00  0.00    -0.152 A  
HETATM   34  C   UNL     1      -9.919   2.821  72.515  1.00  0.00    -0.229 A  
HETATM   35  C   UNL     1     -10.231   3.910  71.693  1.00  0.00    -0.088 A  
HETATM   36  C   UNL     1     -12.030   8.188  72.652  1.00  0.00    -0.353 A  
ENDBRANCH  22  23
ENDBRANCH  20  22
ENDBRANCH  16  20
ENDBRANCH  13  15
ENDBRANCH  11  13
BRANCH  12  37
HETATM   37  C   UNL     1     -10.498  12.346  66.605  1.00  0.00    -0.251 A  
HETATM   38  O   UNL     1     -11.452  15.324  63.884  1.00  0.00    -0.021 OA 
HETATM   39  C   UNL     1     -10.749  13.355  65.654  1.00  0.00    -0.283 A  
HETATM   40  O   UNL     1     -12.736  13.968  62.733  1.00  0.00    -0.230 OA 
HETATM   41  C   UNL     1     -11.950  10.854  65.350  1.00  0.00     1.924 A  
HETATM   42  C   UNL     1     -11.638  13.124  64.597  1.00  0.00    -0.345 A  
HETATM   43  N   UNL     1     -11.962  14.216  63.670  1.00  0.00    -0.138 N  
HETATM   44  C   UNL     1     -12.237  11.872  64.439  1.00  0.00    -0.277 A  
HETATM   45  C   UNL     1     -11.091  11.090  66.427  1.00  0.00    -0.137 A  
ENDBRANCH  12  37
ENDBRANCH   3   5
ENDBRANCH   2   3
TORSDOF 8
ENDMDL
MODEL      251
REMARK 921   NORMALIZED FREE ENERGY PREDICTED BY IDOCK:    1.04 KCAL/MOL
REMARK 922        TOTAL FREE ENERGY PREDICTED BY IDOCK:   -0.38 KCAL/MOL
REMARK 923 INTER-LIGAND FREE ENERGY PREDICTED BY IDOCK:   -5.14 KCAL/MOL
REMARK 924 INTRA-LIGAND FREE ENERGY PREDICTED BY IDOCK:    4.76 KCAL/MOL
REMARK 927      BINDING AFFINITY PREDICTED BY RF-SCORE:    0.00 PKD
ROOT
HETATM    1  C   UNL     1      -9.554   4.784  65.934  1.00  0.00    -0.180 C  
HETATM    2  O   UNL     1      -9.030   4.708  67.264  1.00  0.00    -0.110 OA 
ENDROOT
BRANCH   2   3
HETATM    3  C   UNL     1      -7.671   4.730  67.308  1.00  0.00    -0.091 C  
HETATM    4  O   UNL     1      -6.981   3.797  67.688  1.00  0.00    -0.053 OA 
BRANCH   3   5
HETATM    5  C   UNL     1      -7.147   6.039  66.831  1.00  0.00    -0.070 C  
HETATM    6  C   UNL     1      -6.045   6.108  66.044  1.00  0.00    -0.033 C  
HETATM    7  N   UNL     1      -5.624   7.336  65.565  1.00  0.00    -0.032 NA 
HETATM    8  C   UNL     1      -5.152   4.970  65.608  1.00  0.00    -0.008 C  
HETATM    9  C   UNL     1      -6.119   8.559  65.964  1.00  0.00    -0.048 C  
HETATM   10  C   UNL     1      -5.402   9.761  65.389  1.00  0.00    -0.050 C  
HETATM   11  C   UNL     1      -7.180   8.611  66.805  1.00  0.00    -0.078 C  
HETATM   12  C   UNL     1      -7.886   7.326  67.261  1.00  0.00    -0.111 C  
BRANCH  11  13
HETATM   13  C   UNL     1      -7.592   9.943  67.321  1.00  0.00    -0.088 C  
HETATM   14  O   UNL     1      -7.235  10.364  68.411  1.00  0.00    -0.077 OA 
BRANCH  13  15
HETATM   15  O   UNL     1      -8.312  10.642  66.413  1.00  0.00    -0.139 OA 
HETATM   16  C   UNL     1      -9.713  10.927  64.399  1.00  0.00    -0.290 C  
HETATM   17  C   UNL     1     -10.160   9.087  66.091  1.00  0.00    -0.242 C  
HETATM   18  C   UNL     1      -9.060   9.906  65.395  1.00  0.00    -0.196 C  
HETATM   19  C   UNL     1      -8.159   9.000  64.524  1.00  0.00    -0.143 C  
BRANCH  16  20
HETATM   20  N   UNL     1     -10.702  11.909  64.914  1.00  0.00    -0.289 NA 
HETATM   21  C   UNL     1     -12.005  11.271  65.124  1.00  0.00     0.892 C  
BRANCH  20  22
HETATM   22  C   UNL     1     -10.272  12.448  66.223  1.00  0.00    -0.238 C  
BRANCH  22  23
HETATM   23  C   UNL     1     -11.069  11.979  67.442  1.00  0.00    -0.337 C  
HETATM   24  C   UNL     1     -10.499  12.329  68.840  1.00  0.00    -0.131 C  
HETATM   25  C   UNL     1     -11.271  11.485  69.868  1.00  0.00    -0.183 A  
HETATM   26  C   UNL     1     -10.448  13.841  69.081  1.00  0.00    -0.044 A  
HETATM   27  C   UNL     1     -10.587  10.591  70.704  1.00  0.00     0.328 A  
HETATM   28  C   UNL     1     -11.512  14.581  69.618  1.00  0.00    -0.332 A  
HETATM   29  C   UNL     1     -11.289   9.660  71.477  1.00  0.00    -0.420 A  
HETATM   30  C   UNL     1     -11.457  15.976  69.699  1.00  0.00    -0.326 A  
HETATM   31  C   UNL     1     -10.337  16.662  69.247  1.00  0.00    -0.318 A  
HETATM   32  C   UNL     1     -12.682   9.620  71.438  1.00  0.00    -0.466 A  
HETATM   33  C   UNL     1     -13.378  10.529  70.652  1.00  0.00     0.000 A  
HETATM   34  C   UNL     1      -9.258  15.952  68.731  1.00  0.00    -0.218 A  
HETATM   35  C   UNL     1      -9.312  14.556  68.658  1.00  0.00    -0.199 A  
HETATM   36  C   UNL     1     -12.680  11.451  69.875  1.00  0.00     0.026 A  
ENDBRANCH  22  23
ENDBRANCH  20  22
ENDBRANCH  16  20
ENDBRANCH  13  15
ENDBRANCH  11  13
BRANCH  12  37
HETATM   37  C   UNL     1      -8.149   7.350  68.770  1.00  0.00    -0.128 A  
HETATM   38  O   UNL     1      -5.194   8.518  71.431  1.00  0.00    -0.032 OA 
HETATM   39  C   UNL     1      -7.155   7.821  69.650  1.00  0.00    -0.063 A  
HETATM   40  O   UNL     1      -6.480   8.105  73.159  1.00  0.00    -0.081 OA 
HETATM   41  C   UNL     1      -9.561   6.857  70.687  1.00  0.00    -0.171 A  
HETATM   42  C   UNL     1      -7.349   7.752  71.035  1.00  0.00    -0.072 A  
HETATM   43  N   UNL     1      -6.264   8.158  71.939  1.00  0.00    -0.043 N  
HETATM   44  C   UNL     1      -8.553   7.275  71.558  1.00  0.00    -0.118 A  
HETATM   45  C   UNL     1      -9.359   6.890  69.304  1.00  0.00    -0.144 A  
ENDBRANCH  12  37
ENDBRANCH   3   5
ENDBRANCH   2   3
TORSDOF 8
ENDMDL
MODEL      252
REMARK 921   NORMALIZED FREE ENERGY PREDICTED BY IDOCK:    1.15 KCAL/MOL
REMARK 922        TOTAL FREE ENERGY PREDICTED BY IDOCK:   -0.23 KCAL/MOL
REMARK 923 INTER-LIGAND FREE ENERGY PREDICTED BY IDOCK:   -0.27 KCAL/MOL
REMARK 924 INTRA-LIGAND FREE ENERGY PREDICTED BY IDOCK:    0.04 KCAL/MOL
REMARK 927      BINDING AFFINITY PREDICTED BY RF-SCORE:    0.00 PKD
ROOT
HETATM    1  C   UNL     1      -7.052  10.188  71.912  1.00  0.00     2.160 C  
HETATM    2  O   UNL     1      -7.452   8.998  71.224  1.00  0.00    -0.161 OA 
ENDROOT
BRANCH   2   3
HETATM    3  C   UNL     1      -8.787   8.751  71.308  1.00  0.00    -0.226 C  
HETATM    4  O   UNL     1      -9.462   8.960  72.305  1.00  0.00    -0.327 OA 
BRANCH   3   5
HETATM    5  C   UNL     1      -9.305   8.198  70.028  1.00  0.00    -0.159 C  
HETATM    6  C   UNL     1      -9.139   6.890  69.710  1.00  0.00    -0.144 C  
HETATM    7  N   UNL     1      -9.690   6.396  68.542  1.00  0.00    -0.131 NA 
HETATM    8  C   UNL     1      -8.378   5.843  70.490  1.00  0.00    -0.123 C  
HETATM    9  C   UNL     1     -10.256   7.159  67.542  1.00  0.00    -0.212 C  
HETATM   10  C   UNL     1     -10.669   6.392  66.305  1.00  0.00     0.251 C  
HETATM   11  C   UNL     1     -10.411   8.493  67.723  1.00  0.00    -0.298 C  
HETATM   12  C   UNL     1     -10.032   9.155  69.056  1.00  0.00    -0.189 C  
BRANCH  11  13
HETATM   13  C   UNL     1     -10.892   9.298  66.570  1.00  0.00     0.247 C  
HETATM   14  O   UNL     1     -11.690  10.214  66.696  1.00  0.00     0.701 OA 
BRANCH  13  15
HETATM   15  O   UNL     1     -10.275   8.954  65.416  1.00  0.00     0.470 OA 
HETATM   16  C   UNL     1      -9.271   9.368  63.198  1.00  0.00     0.132 C  
HETATM   17  C   UNL     1      -8.759  10.849  65.196  1.00  0.00    -0.130 C  
HETATM   18  C   UNL     1      -9.851  10.015  64.504  1.00  0.00    -0.173 C  
HETATM   19  C   UNL     1     -11.022  10.910  64.036  1.00  0.00     0.078 C  
BRANCH  16  20
HETATM   20  N   UNL     1      -8.074   8.494  63.292  1.00  0.00    -0.166 NA 
HETATM   21  C   UNL     1      -6.851   9.258  63.030  1.00  0.00    -0.093 C  
BRANCH  20  22
HETATM   22  C   UNL     1      -7.944   7.930  64.653  1.00  0.00    -0.143 C  
BRANCH  22  23
HETATM   23  C   UNL     1      -7.677   6.426  64.739  1.00  0.00    -0.105 C  
HETATM   24  C   UNL     1      -6.252   5.980  65.159  1.00  0.00    -0.037 C  
HETATM   25  C   UNL     1      -6.139   4.478  64.852  1.00  0.00    -0.026 A  
HETATM   26  C   UNL     1      -5.904   6.426  66.582  1.00  0.00    -0.020 A  
HETATM   27  C   UNL     1      -5.151   4.009  63.973  1.00  0.00    -0.008 A  
HETATM   28  C   UNL     1      -6.194   5.672  67.729  1.00  0.00    -0.033 A  
HETATM   29  C   UNL     1      -5.179   2.689  63.510  1.00  0.00    -0.008 A  
HETATM   30  C   UNL     1      -5.967   6.183  69.010  1.00  0.00    -0.024 A  
HETATM   31  C   UNL     1      -5.443   7.459  69.174  1.00  0.00    -0.015 A  
HETATM   32  C   UNL     1      -6.181   1.816  63.930  1.00  0.00    -0.014 A  
HETATM   33  C   UNL     1      -7.140   2.249  64.837  1.00  0.00    -0.053 A  
HETATM   34  C   UNL     1      -5.125   8.221  68.055  1.00  0.00    -0.033 A  
HETATM   35  C   UNL     1      -5.346   7.704  66.774  1.00  0.00    -0.024 A  
HETATM   36  C   UNL     1      -7.119   3.566  65.292  1.00  0.00    -0.066 A  
ENDBRANCH  22  23
ENDBRANCH  20  22
ENDBRANCH  16  20
ENDBRANCH  13  15
ENDBRANCH  11  13
BRANCH  12  37
HETATM   37  C   UNL     1      -9.233  10.441  68.823  1.00  0.00    -0.172 A  
HETATM   38  O   UNL     1     -11.089  14.146  68.909  1.00  0.00    -0.244 OA 
HETATM   39  C   UNL     1      -9.870  11.693  68.930  1.00  0.00    -0.057 A  
HETATM   40  O   UNL     1      -9.225  15.177  68.386  1.00  0.00    -0.179 OA 
HETATM   41  C   UNL     1      -7.176  11.580  68.207  1.00  0.00    -0.084 A  
HETATM   42  C   UNL     1      -9.174  12.867  68.621  1.00  0.00     0.041 A  
HETATM   43  N   UNL     1      -9.879  14.156  68.644  1.00  0.00    -0.224 N  
HETATM   44  C   UNL     1      -7.824  12.816  68.262  1.00  0.00    -0.141 A  
HETATM   45  C   UNL     1      -7.876  10.402  68.481  1.00  0.00    -0.107 A  
ENDBRANCH  12  37
ENDBRANCH   3   5
ENDBRANCH   2   3
TORSDOF 8
ENDMDL
MODEL      253
REMARK 921   NORMALIZED FREE ENERGY PREDICTED BY IDOCK:    1.15 KCAL/MOL
REMARK 922        TOTAL FREE ENERGY PREDICTED BY IDOCK:   -0.22 KCAL/MOL
REMARK 923 INTER-LIGAND FREE ENERGY PREDICTED BY IDOCK:   -2.53 KCAL/MOL
REMARK 924 INTRA-LIGAND FREE ENERGY PREDICTED BY IDOCK:    2.30 KCAL/MOL
REMARK 927      BINDING AFFINITY PREDICTED BY RF-SCORE:    0.00 PKD
ROOT
HETATM    1  C   UNL     1     -14.252  11.685  71.826  1.00  0.00     1.622 C  
HETATM    2  O   UNL     1     -12.981  11.760  71.171  1.00  0.00    -0.310 OA 
ENDROOT
BRANCH   2   3
HETATM    3  C   UNL     1     -12.720  10.685  70.381  1.00  0.00    -0.265 C  
HETATM    4  O   UNL     1     -13.580   9.974  69.884  1.00  0.00     0.403 OA 
BRANCH   3   5
HETATM    5  C   UNL     1     -11.254  10.500  70.205  1.00  0.00    -0.391 C  
HETATM    6  C   UNL     1     -10.568   9.595  70.946  1.00  0.00    -0.316 C  
HETATM    7  N   UNL     1      -9.218   9.403  70.711  1.00  0.00    -0.243 NA 
HETATM    8  C   UNL     1     -11.097   8.730  72.066  1.00  0.00    -0.441 C  
HETATM    9  C   UNL     1      -8.430  10.192  69.899  1.00  0.00    -0.081 C  
HETATM   10  C   UNL     1      -6.955   9.854  69.911  1.00  0.00    -0.105 C  
HETATM   11  C   UNL     1      -9.001  11.175  69.162  1.00  0.00     0.057 C  
HETATM   12  C   UNL     1     -10.523  11.375  69.162  1.00  0.00    -0.159 C  
BRANCH  11  13
HETATM   13  C   UNL     1      -8.102  12.091  68.412  1.00  0.00    -0.154 C  
HETATM   14  O   UNL     1      -7.995  13.276  68.686  1.00  0.00    -0.123 OA 
BRANCH  13  15
HETATM   15  O   UNL     1      -7.371  11.436  67.479  1.00  0.00    -0.100 OA 
HETATM   16  C   UNL     1      -5.393  11.028  66.059  1.00  0.00    -0.142 C  
HETATM   17  C   UNL     1      -5.178  11.564  68.531  1.00  0.00    -0.042 C  
HETATM   18  C   UNL     1      -5.988  11.850  67.255  1.00  0.00    -0.134 C  
HETATM   19  C   UNL     1      -5.863  13.334  66.837  1.00  0.00     1.142 C  
BRANCH  16  20
HETATM   20  N   UNL     1      -5.298   9.550  66.172  1.00  0.00    -0.039 NA 
HETATM   21  C   UNL     1      -5.203   9.142  67.577  1.00  0.00    -0.037 C  
BRANCH  20  22
HETATM   22  C   UNL     1      -6.508   8.904  65.618  1.00  0.00    -0.063 C  
BRANCH  22  23
HETATM   23  C   UNL     1      -7.292   8.004  66.575  1.00  0.00    -0.084 C  
HETATM   24  C   UNL     1      -8.558   7.304  66.015  1.00  0.00    -0.160 C  
HETATM   25  C   UNL     1      -9.336   6.747  67.219  1.00  0.00    -0.148 A  
HETATM   26  C   UNL     1      -8.225   6.323  64.888  1.00  0.00    -0.119 A  
HETATM   27  C   UNL     1     -10.655   7.159  67.460  1.00  0.00    -0.348 A  
HETATM   28  C   UNL     1      -7.894   4.976  65.100  1.00  0.00    -0.089 A  
HETATM   29  C   UNL     1     -11.291   6.841  68.665  1.00  0.00    -0.076 A  
HETATM   30  C   UNL     1      -7.477   4.158  64.046  1.00  0.00    -0.070 A  
HETATM   31  C   UNL     1      -7.383   4.666  62.757  1.00  0.00    -0.044 A  
HETATM   32  C   UNL     1     -10.627   6.094  69.636  1.00  0.00    -0.347 A  
HETATM   33  C   UNL     1      -9.338   5.637  69.395  1.00  0.00    -0.156 A  
HETATM   34  C   UNL     1      -7.726   5.991  62.514  1.00  0.00    -0.081 A  
HETATM   35  C   UNL     1      -8.151   6.806  63.569  1.00  0.00     0.001 A  
HETATM   36  C   UNL     1      -8.699   5.960  68.199  1.00  0.00    -0.111 A  
ENDBRANCH  22  23
ENDBRANCH  20  22
ENDBRANCH  16  20
ENDBRANCH  13  15
ENDBRANCH  11  13
BRANCH  12  37
HETATM   37  C   UNL     1     -10.882  12.856  69.314  1.00  0.00    -0.040 A  
HETATM   38  O   UNL     1     -11.675  14.487  73.041  1.00  0.00     0.083 OA 
HETATM   39  C   UNL     1     -11.075  13.405  70.597  1.00  0.00     1.289 A  
HETATM   40  O   UNL     1     -12.145  16.444  72.170  1.00  0.00    -0.481 OA 
HETATM   41  C   UNL     1     -11.439  15.015  68.346  1.00  0.00    -0.340 A  
HETATM   42  C   UNL     1     -11.502  14.731  70.740  1.00  0.00    -0.225 A  
HETATM   43  N   UNL     1     -11.791  15.259  72.080  1.00  0.00    -0.407 N  
HETATM   44  C   UNL     1     -11.681  15.542  69.616  1.00  0.00    -0.371 A  
HETATM   45  C   UNL     1     -11.048  13.682  68.195  1.00  0.00    -0.281 A  
ENDBRANCH  12  37
ENDBRANCH   3   5
ENDBRANCH   2   3
TORSDOF 8
ENDMDL
MODEL      254
REMARK 921   NORMALIZED FREE ENERGY PREDICTED BY IDOCK:    1.21 KCAL/MOL
REMARK 922        TOTAL FREE ENERGY PREDICTED BY IDOCK:   -0.14 KCAL/MOL
REMARK 923 INTER-LIGAND FREE ENERGY PREDICTED BY IDOCK:   -0.52 KCAL/MOL
REMARK 924 INTRA-LIGAND FREE ENERGY PREDICTED BY IDOCK:    0.38 KCAL/MOL
REMARK 927      BINDING AFFINITY PREDICTED BY RF-SCORE:    0.00 PKD
ROOT
HETATM    1  C   UNL     1     -10.526   4.159  72.296  1.00  0.00    -0.071 C  
HETATM    2  O   UNL     1      -9.852   5.129  71.488  1.00  0.00    -0.162 OA 
ENDROOT
BRANCH   2   3
HETATM    3  C   UNL     1      -9.957   4.884  70.154  1.00  0.00    -0.255 C  
HETATM    4  O   UNL     1      -9.984   3.766  69.662  1.00  0.00    -0.086 OA 
BRANCH   3   5
HETATM    5  C   UNL     1     -10.039   6.156  69.387  1.00  0.00    -0.230 C  
HETATM    6  C   UNL     1     -11.141   6.943  69.449  1.00  0.00    -0.206 C  
HETATM    7  N   UNL     1     -11.157   8.151  68.775  1.00  0.00     0.211 NA 
HETATM    8  C   UNL     1     -12.434   6.661  70.179  1.00  0.00     0.456 C  
HETATM    9  C   UNL     1     -10.206   8.570  67.868  1.00  0.00    -0.218 C  
HETATM   10  C   UNL     1     -10.519   9.874  67.167  1.00  0.00    -0.305 C  
HETATM   11  C   UNL     1      -9.091   7.826  67.674  1.00  0.00    -0.138 C  
HETATM   12  C   UNL     1      -8.837   6.559  68.504  1.00  0.00    -0.121 C  
BRANCH  11  13
HETATM   13  C   UNL     1      -8.163   8.237  66.589  1.00  0.00    -0.106 C  
HETATM   14  O   UNL     1      -8.179   7.724  65.480  1.00  0.00    -0.124 OA 
BRANCH  13  15
HETATM   15  O   UNL     1      -7.388   9.286  66.951  1.00  0.00    -0.089 OA 
HETATM   16  C   UNL     1      -5.906  11.223  66.560  1.00  0.00    -0.146 C  
HETATM   17  C   UNL     1      -8.034  10.874  65.221  1.00  0.00     0.094 C  
HETATM   18  C   UNL     1      -6.858  10.160  65.907  1.00  0.00    -0.115 C  
HETATM   19  C   UNL     1      -5.987   9.406  64.875  1.00  0.00    -0.066 C  
BRANCH  16  20
HETATM   20  N   UNL     1      -6.459  12.173  67.559  1.00  0.00    -0.118 NA 
HETATM   21  C   UNL     1      -5.419  13.089  68.036  1.00  0.00    -0.104 C  
BRANCH  20  22
HETATM   22  C   UNL     1      -7.522  13.006  66.957  1.00  0.00     0.147 C  
BRANCH  22  23
HETATM   23  C   UNL     1      -8.942  12.771  67.476  1.00  0.00    -0.192 C  
HETATM   24  C   UNL     1      -9.450  13.706  68.603  1.00  0.00    -0.077 C  
HETATM   25  C   UNL     1     -10.732  13.075  69.171  1.00  0.00    -0.064 A  
HETATM   26  C   UNL     1      -9.538  15.165  68.146  1.00  0.00    -0.205 A  
HETATM   27  C   UNL     1     -10.807  12.731  70.529  1.00  0.00     2.153 A  
HETATM   28  C   UNL     1     -10.670  15.723  67.532  1.00  0.00    -0.317 A  
HETATM   29  C   UNL     1     -11.869  11.954  71.008  1.00  0.00     0.330 A  
HETATM   30  C   UNL     1     -10.650  17.024  67.022  1.00  0.00    -0.226 A  
HETATM   31  C   UNL     1      -9.501  17.799  67.117  1.00  0.00    -0.265 A  
HETATM   32  C   UNL     1     -12.876  11.527  70.144  1.00  0.00     0.107 A  
HETATM   33  C   UNL     1     -12.842  11.898  68.806  1.00  0.00     1.783 A  
HETATM   34  C   UNL     1      -8.372  17.280  67.741  1.00  0.00    -0.212 A  
HETATM   35  C   UNL     1      -8.396  15.980  68.257  1.00  0.00    -0.164 A  
HETATM   36  C   UNL     1     -11.781  12.664  68.325  1.00  0.00    -0.389 A  
ENDBRANCH  22  23
ENDBRANCH  20  22
ENDBRANCH  16  20
ENDBRANCH  13  15
ENDBRANCH  11  13
BRANCH  12  37
HETATM   37  C   UNL     1      -8.374   5.402  67.613  1.00  0.00    -0.099 A  
HETATM   38  O   UNL     1     -10.843   3.873  64.657  1.00  0.00    -0.217 OA 
HETATM   39  C   UNL     1      -9.201   4.948  66.567  1.00  0.00    -0.135 A  
HETATM   40  O   UNL     1      -9.380   2.327  64.126  1.00  0.00    -0.115 OA 
HETATM   41  C   UNL     1      -6.768   3.667  67.050  1.00  0.00    -0.046 A  
HETATM   42  C   UNL     1      -8.832   3.827  65.813  1.00  0.00    -0.124 A  
HETATM   43  N   UNL     1      -9.750   3.308  64.789  1.00  0.00    -0.155 N  
HETATM   44  C   UNL     1      -7.613   3.186  66.049  1.00  0.00    -0.077 A  
HETATM   45  C   UNL     1      -7.148   4.763  67.830  1.00  0.00    -0.062 A  
ENDBRANCH  12  37
ENDBRANCH   3   5
ENDBRANCH   2   3
TORSDOF 8
ENDMDL
MODEL      255
REMARK 921   NORMALIZED FREE ENERGY PREDICTED BY IDOCK:    1.24 KCAL/MOL
REMARK 922        TOTAL FREE ENERGY PREDICTED BY IDOCK:   -0.09 KCAL/MOL
REMARK 923 INTER-LIGAND FREE ENERGY PREDICTED BY IDOCK:   -4.96 KCAL/MOL
REMARK 924 INTRA-LIGAND FREE ENERGY PREDICTED BY IDOCK:    4.87 KCAL/MOL
REMARK 927      BINDING AFFINITY PREDICTED BY RF-SCORE:    0.00 PKD
ROOT
HETATM    1  C   UNL     1      -9.315   3.144  68.451  1.00  0.00    -0.184 C  
HETATM    2  O   UNL     1      -7.972   3.430  68.048  1.00  0.00    -0.074 OA 
ENDROOT
BRANCH   2   3
HETATM    3  C   UNL     1      -7.164   3.785  69.084  1.00  0.00    -0.050 C  
HETATM    4  O   UNL     1      -5.958   3.597  69.108  1.00  0.00    -0.022 OA 
BRANCH   3   5
HETATM    5  C   UNL     1      -7.950   4.430  70.170  1.00  0.00    -0.059 C  
HETATM    6  C   UNL     1      -8.495   3.697  71.172  1.00  0.00    -0.068 C  
HETATM    7  N   UNL     1      -9.163   4.336  72.201  1.00  0.00    -0.120 NA 
HETATM    8  C   UNL     1      -8.490   2.193  71.320  1.00  0.00    -0.085 C  
HETATM    9  C   UNL     1      -9.501   5.673  72.223  1.00  0.00    -0.144 C  
HETATM   10  C   UNL     1     -10.346   6.103  73.402  1.00  0.00    -0.253 C  
HETATM   11  C   UNL     1      -9.066   6.490  71.234  1.00  0.00    -0.148 C  
HETATM   12  C   UNL     1      -8.140   5.963  70.128  1.00  0.00    -0.110 C  
BRANCH  11  13
HETATM   13  C   UNL     1      -9.568   7.889  71.218  1.00  0.00    -0.157 C  
HETATM   14  O   UNL     1     -10.759   8.159  71.219  1.00  0.00    -0.220 OA 
BRANCH  13  15
HETATM   15  O   UNL     1      -8.563   8.793  71.297  1.00  0.00    -0.172 OA 
HETATM   16  C   UNL     1      -6.381   9.662  72.061  1.00  0.00     0.413 C  
HETATM   17  C   UNL     1      -6.659   7.274  71.243  1.00  0.00    -0.043 C  
HETATM   18  C   UNL     1      -7.341   8.421  72.007  1.00  0.00    -0.097 C  
HETATM   19  C   UNL     1      -7.596   8.034  73.482  1.00  0.00    -0.201 C  
BRANCH  16  20
HETATM   20  N   UNL     1      -5.880  10.245  70.789  1.00  0.00    -0.093 NA 
HETATM   21  C   UNL     1      -5.181   9.231  69.993  1.00  0.00    -0.028 C  
BRANCH  20  22
HETATM   22  C   UNL     1      -7.002  10.742  69.963  1.00  0.00    -0.084 C  
BRANCH  22  23
HETATM   23  C   UNL     1      -7.114  12.261  69.819  1.00  0.00     0.471 C  
HETATM   24  C   UNL     1      -7.690  12.807  68.487  1.00  0.00    -0.113 C  
HETATM   25  C   UNL     1      -7.395  14.315  68.452  1.00  0.00    -0.119 A  
HETATM   26  C   UNL     1      -9.144  12.378  68.268  1.00  0.00    -0.183 A  
HETATM   27  C   UNL     1      -6.631  14.861  67.409  1.00  0.00    -0.039 A  
HETATM   28  C   UNL     1     -10.250  13.102  68.739  1.00  0.00    -0.109 A  
HETATM   29  C   UNL     1      -6.165  16.178  67.482  1.00  0.00    -0.191 A  
HETATM   30  C   UNL     1     -11.549  12.601  68.621  1.00  0.00    -0.356 A  
HETATM   31  C   UNL     1     -11.773  11.366  68.026  1.00  0.00    -0.324 A  
HETATM   32  C   UNL     1      -6.469  16.973  68.586  1.00  0.00    -0.172 A  
HETATM   33  C   UNL     1      -7.264  16.465  69.606  1.00  0.00     0.046 A  
HETATM   34  C   UNL     1     -10.699  10.637  67.529  1.00  0.00    -0.321 A  
HETATM   35  C   UNL     1      -9.400  11.144  67.642  1.00  0.00    -0.169 A  
HETATM   36  C   UNL     1      -7.721  15.150  69.539  1.00  0.00    -0.197 A  
ENDBRANCH  22  23
ENDBRANCH  20  22
ENDBRANCH  16  20
ENDBRANCH  13  15
ENDBRANCH  11  13
BRANCH  12  37
HETATM   37  C   UNL     1      -8.606   6.438  68.748  1.00  0.00    -0.123 A  
HETATM   38  O   UNL     1      -5.939   8.125  66.062  1.00  0.00    -0.040 OA 
HETATM   39  C   UNL     1      -7.669   6.940  67.824  1.00  0.00    -0.112 A  
HETATM   40  O   UNL     1      -7.533   8.515  64.606  1.00  0.00    -0.089 OA 
HETATM   41  C   UNL     1     -10.378   6.903  67.150  1.00  0.00    -0.339 A  
HETATM   42  C   UNL     1      -8.099   7.469  66.601  1.00  0.00    -0.123 A  
HETATM   43  N   UNL     1      -7.119   8.076  65.690  1.00  0.00    -0.062 N  
HETATM   44  C   UNL     1      -9.453   7.449  66.258  1.00  0.00    -0.144 A  
HETATM   45  C   UNL     1      -9.959   6.406  68.388  1.00  0.00    -0.151 A  
ENDBRANCH  12  37
ENDBRANCH   3   5
ENDBRANCH   2   3
TORSDOF 8
ENDMDL
MODEL      256
REMARK 921   NORMALIZED FREE ENERGY PREDICTED BY IDOCK:    1.28 KCAL/MOL
REMARK 922        TOTAL FREE ENERGY PREDICTED BY IDOCK:   -0.04 KCAL/MOL
REMARK 923 INTER-LIGAND FREE ENERGY PREDICTED BY IDOCK:   -2.18 KCAL/MOL
REMARK 924 INTRA-LIGAND FREE ENERGY PREDICTED BY IDOCK:    2.14 KCAL/MOL
REMARK 927      BINDING AFFINITY PREDICTED BY RF-SCORE:    0.00 PKD
ROOT
HETATM    1  C   UNL     1      -8.832  10.482  67.692  1.00  0.00    -0.131 C  
HETATM    2  O   UNL     1      -7.920   9.786  68.548  1.00  0.00    -0.087 OA 
ENDROOT
BRANCH   2   3
HETATM    3  C   UNL     1      -8.301   9.788  69.854  1.00  0.00    -0.184 C  
HETATM    4  O   UNL     1      -7.902  10.591  70.683  1.00  0.00     0.289 OA 
BRANCH   3   5
HETATM    5  C   UNL     1      -9.264   8.687  70.126  1.00  0.00    -0.165 C  
HETATM    6  C   UNL     1     -10.567   8.946  70.397  1.00  0.00    -0.217 C  
HETATM    7  N   UNL     1     -11.448   7.895  70.580  1.00  0.00    -0.267 NA 
HETATM    8  C   UNL     1     -11.224  10.297  70.553  1.00  0.00    -0.408 C  
HETATM    9  C   UNL     1     -11.093   6.568  70.699  1.00  0.00    -0.309 C  
HETATM   10  C   UNL     1     -12.230   5.626  71.026  1.00  0.00     1.462 C  
HETATM   11  C   UNL     1      -9.802   6.201  70.515  1.00  0.00    -0.214 C  
HETATM   12  C   UNL     1      -8.742   7.233  70.102  1.00  0.00    -0.140 C  
BRANCH  11  13
HETATM   13  C   UNL     1      -9.437   4.787  70.791  1.00  0.00    -0.162 C  
HETATM   14  O   UNL     1     -10.027   4.105  71.614  1.00  0.00    -0.181 OA 
BRANCH  13  15
HETATM   15  O   UNL     1      -8.457   4.344  69.968  1.00  0.00    -0.065 OA 
HETATM   16  C   UNL     1      -7.524   3.483  67.850  1.00  0.00    -0.061 C  
HETATM   17  C   UNL     1      -9.152   5.430  67.902  1.00  0.00    -0.112 C  
HETATM   18  C   UNL     1      -8.780   4.094  68.565  1.00  0.00    -0.098 C  
HETATM   19  C   UNL     1      -9.905   3.049  68.383  1.00  0.00     0.251 C  
BRANCH  16  20
HETATM   20  N   UNL     1      -6.271   4.279  67.781  1.00  0.00    -0.035 NA 
HETATM   21  C   UNL     1      -5.132   3.498  68.271  1.00  0.00    -0.008 C  
BRANCH  20  22
HETATM   22  C   UNL     1      -5.966   4.654  66.384  1.00  0.00    -0.027 C  
BRANCH  22  23
HETATM   23  C   UNL     1      -6.949   4.159  65.321  1.00  0.00    -0.058 C  
HETATM   24  C   UNL     1      -8.213   5.020  65.067  1.00  0.00    -0.133 C  
HETATM   25  C   UNL     1      -9.179   4.167  64.228  1.00  0.00    -0.150 A  
HETATM   26  C   UNL     1      -7.866   6.410  64.527  1.00  0.00    -0.115 A  
HETATM   27  C   UNL     1     -10.463   3.872  64.712  1.00  0.00    -0.164 A  
HETATM   28  C   UNL     1      -7.714   6.702  63.163  1.00  0.00    -0.102 A  
HETATM   29  C   UNL     1     -11.263   2.919  64.072  1.00  0.00     0.626 A  
HETATM   30  C   UNL     1      -7.274   7.957  62.735  1.00  0.00    -0.090 A  
HETATM   31  C   UNL     1      -6.979   8.951  63.659  1.00  0.00    -0.088 A  
HETATM   32  C   UNL     1     -10.801   2.261  62.933  1.00  0.00    -0.214 A  
HETATM   33  C   UNL     1      -9.552   2.574  62.413  1.00  0.00    -0.089 A  
HETATM   34  C   UNL     1      -7.142   8.698  65.017  1.00  0.00    -0.080 A  
HETATM   35  C   UNL     1      -7.590   7.442  65.443  1.00  0.00    -0.096 A  
HETATM   36  C   UNL     1      -8.750   3.517  63.054  1.00  0.00    -0.093 A  
ENDBRANCH  22  23
ENDBRANCH  20  22
ENDBRANCH  16  20
ENDBRANCH  13  15
ENDBRANCH  11  13
BRANCH  12  37
HETATM   37  C   UNL     1      -7.467   7.074  70.936  1.00  0.00    -0.082 A  
HETATM   38  O   UNL     1      -7.228   4.232  73.943  1.00  0.00    -0.064 OA 
HETATM   39  C   UNL     1      -7.382   6.053  71.903  1.00  0.00    -0.094 A  
HETATM   40  O   UNL     1      -5.214   4.890  74.510  1.00  0.00    -0.015 OA 
HETATM   41  C   UNL     1      -5.250   7.827  71.589  1.00  0.00    -0.034 A  
HETATM   42  C   UNL     1      -6.262   5.964  72.738  1.00  0.00    -0.053 A  
HETATM   43  N   UNL     1      -6.232   4.953  73.804  1.00  0.00    -0.048 N  
HETATM   44  C   UNL     1      -5.191   6.848  72.582  1.00  0.00    -0.037 A  
HETATM   45  C   UNL     1      -6.381   7.944  70.776  1.00  0.00    -0.037 A  
ENDBRANCH  12  37
ENDBRANCH   3   5
ENDBRANCH   2   3
TORSDOF 8
ENDMDL
MODEL      257
REMARK 921   NORMALIZED FREE ENERGY PREDICTED BY IDOCK:    1.34 KCAL/MOL
REMARK 922        TOTAL FREE ENERGY PREDICTED BY IDOCK:    0.05 KCAL/MOL
REMARK 923 INTER-LIGAND FREE ENERGY PREDICTED BY IDOCK:   -3.94 KCAL/MOL
REMARK 924 INTRA-LIGAND FREE ENERGY PREDICTED BY IDOCK:    3.99 KCAL/MOL
REMARK 927      BINDING AFFINITY PREDICTED BY RF-SCORE:    0.00 PKD
ROOT
HETATM    1  C   UNL     1      -7.819  16.300  65.950  1.00  0.00     0.675 C  
HETATM    2  O   UNL     1      -6.429  16.636  65.888  1.00  0.00     0.255 OA 
ENDROOT
BRANCH   2   3
HETATM    3  C   UNL     1      -6.189  17.963  66.063  1.00  0.00    -0.246 C  
HETATM    4  O   UNL     1      -5.138  18.515  65.772  1.00  0.00    -0.133 OA 
BRANCH   3   5
HETATM    5  C   UNL     1      -7.375  18.644  66.649  1.00  0.00    -0.249 C  
HETATM    6  C   UNL     1      -7.879  19.775  66.097  1.00  0.00    -0.335 C  
HETATM    7  N   UNL     1      -9.022  20.344  66.628  1.00  0.00    -0.233 NA 
HETATM    8  C   UNL     1      -7.324  20.555  64.927  1.00  0.00     0.281 C  
HETATM    9  C   UNL     1      -9.621  19.971  67.813  1.00  0.00    -0.384 C  
HETATM   10  C   UNL     1     -10.786  20.836  68.244  1.00  0.00     0.586 C  
HETATM   11  C   UNL     1      -9.157  18.892  68.488  1.00  0.00    -0.392 C  
HETATM   12  C   UNL     1      -8.020  18.034  67.914  1.00  0.00    -0.241 C  
BRANCH  11  13
HETATM   13  C   UNL     1      -9.737  18.609  69.827  1.00  0.00     0.638 C  
HETATM   14  O   UNL     1      -9.418  19.234  70.826  1.00  0.00     1.678 OA 
BRANCH  13  15
HETATM   15  O   UNL     1     -10.703  17.662  69.774  1.00  0.00     0.190 OA 
HETATM   16  C   UNL     1     -11.912  15.741  68.801  1.00  0.00    -0.210 C  
HETATM   17  C   UNL     1      -9.379  15.788  68.957  1.00  0.00    -0.244 C  
HETATM   18  C   UNL     1     -10.633  16.647  68.726  1.00  0.00    -0.340 C  
HETATM   19  C   UNL     1     -10.640  17.250  67.302  1.00  0.00    -0.283 C  
BRANCH  16  20
HETATM   20  N   UNL     1     -12.168  14.950  70.033  1.00  0.00    -0.328 NA 
HETATM   21  C   UNL     1     -13.221  15.572  70.840  1.00  0.00    -0.415 C  
BRANCH  20  22
HETATM   22  C   UNL     1     -12.634  13.588  69.693  1.00  0.00     0.103 C  
BRANCH  22  23
HETATM   23  C   UNL     1     -11.572  12.487  69.707  1.00  0.00    -0.291 C  
HETATM   24  C   UNL     1     -11.476  11.578  68.454  1.00  0.00    -0.364 C  
HETATM   25  C   UNL     1     -10.596  10.376  68.835  1.00  0.00    -0.241 A  
HETATM   26  C   UNL     1     -11.077  12.362  67.201  1.00  0.00    -0.328 A  
HETATM   27  C   UNL     1     -11.106   9.072  68.747  1.00  0.00     0.139 A  
HETATM   28  C   UNL     1      -9.748  12.590  66.814  1.00  0.00    -0.234 A  
HETATM   29  C   UNL     1     -10.405   7.995  69.300  1.00  0.00    -0.224 A  
HETATM   30  C   UNL     1      -9.440  13.418  65.731  1.00  0.00     0.032 A  
HETATM   31  C   UNL     1     -10.453  14.035  65.008  1.00  0.00    -0.440 A  
HETATM   32  C   UNL     1      -9.179   8.202  69.932  1.00  0.00    -0.151 A  
HETATM   33  C   UNL     1      -8.637   9.479  69.986  1.00  0.00    -0.234 A  
HETATM   34  C   UNL     1     -11.780  13.809  65.355  1.00  0.00    -0.346 A  
HETATM   35  C   UNL     1     -12.087  12.973  66.435  1.00  0.00    -0.428 A  
HETATM   36  C   UNL     1      -9.338  10.554  69.444  1.00  0.00    -0.139 A  
ENDBRANCH  22  23
ENDBRANCH  20  22
ENDBRANCH  16  20
ENDBRANCH  13  15
ENDBRANCH  11  13
BRANCH  12  37
HETATM   37  C   UNL     1      -6.974  17.719  68.987  1.00  0.00    -0.236 A  
HETATM   38  O   UNL     1      -6.724  13.942  70.674  1.00  0.00     0.151 OA 
HETATM   39  C   UNL     1      -6.859  16.410  69.493  1.00  0.00    -0.187 A  
HETATM   40  O   UNL     1      -5.127  14.573  72.040  1.00  0.00    -0.151 OA 
HETATM   41  C   UNL     1      -5.231  18.428  70.526  1.00  0.00    -0.253 A  
HETATM   42  C   UNL     1      -5.976  16.135  70.545  1.00  0.00     0.090 A  
HETATM   43  N   UNL     1      -5.937  14.785  71.125  1.00  0.00    -0.026 N  
HETATM   44  C   UNL     1      -5.156  17.142  71.061  1.00  0.00    -0.175 A  
HETATM   45  C   UNL     1      -6.136  18.717  69.500  1.00  0.00    -0.280 A  
ENDBRANCH  12  37
ENDBRANCH   3   5
ENDBRANCH   2   3
TORSDOF 8
ENDMDL
MODEL      258
REMARK 921   NORMALIZED FREE ENERGY PREDICTED BY IDOCK:    1.70 KCAL/MOL
REMARK 922        TOTAL FREE ENERGY PREDICTED BY IDOCK:    0.58 KCAL/MOL
REMARK 923 INTER-LIGAND FREE ENERGY PREDICTED BY IDOCK:   -7.37 KCAL/MOL
REMARK 924 INTRA-LIGAND FREE ENERGY PREDICTED BY IDOCK:    7.95 KCAL/MOL
REMARK 927      BINDING AFFINITY PREDICTED BY RF-SCORE:    0.00 PKD
ROOT
HETATM    1  C   UNL     1     -10.544   6.506  67.456  1.00  0.00    -0.280 C  
HETATM    2  O   UNL     1      -9.890   5.574  68.324  1.00  0.00    -0.130 OA 
ENDROOT
BRANCH   2   3
HETATM    3  C   UNL     1      -8.769   6.078  68.907  1.00  0.00    -0.122 C  
HETATM    4  O   UNL     1      -7.886   5.394  69.402  1.00  0.00    -0.086 OA 
BRANCH   3   5
HETATM    5  C   UNL     1      -8.768   7.565  68.854  1.00  0.00    -0.132 C  
HETATM    6  C   UNL     1      -9.623   8.294  69.613  1.00  0.00    -0.167 C  
HETATM    7  N   UNL     1      -9.550   9.675  69.588  1.00  0.00    -0.195 NA 
HETATM    8  C   UNL     1     -10.718   7.780  70.518  1.00  0.00    -0.238 C  
HETATM    9  C   UNL     1      -8.794  10.418  68.706  1.00  0.00    -0.157 C  
HETATM   10  C   UNL     1      -8.987  11.916  68.797  1.00  0.00     0.045 C  
HETATM   11  C   UNL     1      -7.950   9.789  67.852  1.00  0.00    -0.104 C  
HETATM   12  C   UNL     1      -7.771   8.264  67.904  1.00  0.00    -0.103 C  
BRANCH  11  13
HETATM   13  C   UNL     1      -7.262  10.613  66.824  1.00  0.00    -0.119 C  
HETATM   14  O   UNL     1      -6.194  10.286  66.328  1.00  0.00    -0.071 OA 
BRANCH  13  15
HETATM   15  O   UNL     1      -7.997  11.688  66.457  1.00  0.00    -0.141 OA 
HETATM   16  C   UNL     1      -9.693  12.900  65.133  1.00  0.00     0.041 C  
HETATM   17  C   UNL     1     -10.144  10.596  66.097  1.00  0.00    -0.306 C  
HETATM   18  C   UNL     1      -9.068  11.504  65.480  1.00  0.00    -0.090 C  
HETATM   19  C   UNL     1      -8.564  10.933  64.134  1.00  0.00     0.057 C  
BRANCH  16  20
HETATM   20  N   UNL     1     -10.340  13.692  66.211  1.00  0.00    -0.287 NA 
HETATM   21  C   UNL     1     -10.682  15.035  65.735  1.00  0.00    -0.342 C  
BRANCH  20  22
HETATM   22  C   UNL     1     -11.603  13.054  66.643  1.00  0.00    -0.359 C  
BRANCH  22  23
HETATM   23  C   UNL     1     -12.284  13.665  67.869  1.00  0.00    -0.185 C  
HETATM   24  C   UNL     1     -11.399  13.925  69.116  1.00  0.00    -0.331 C  
HETATM   25  C   UNL     1     -12.348  14.214  70.291  1.00  0.00    -0.421 A  
HETATM   26  C   UNL     1     -10.302  14.957  68.840  1.00  0.00    -0.244 A  
HETATM   27  C   UNL     1     -12.318  13.407  71.438  1.00  0.00    -0.214 A  
HETATM   28  C   UNL     1     -10.473  16.340  68.998  1.00  0.00    -0.276 A  
HETATM   29  C   UNL     1     -13.319  13.513  72.410  1.00  0.00    -0.641 A  
HETATM   30  C   UNL     1      -9.479  17.243  68.612  1.00  0.00    -0.278 A  
HETATM   31  C   UNL     1      -8.289  16.784  68.062  1.00  0.00    -0.200 A  
HETATM   32  C   UNL     1     -14.353  14.436  72.259  1.00  0.00    -0.522 A  
HETATM   33  C   UNL     1     -14.372  15.277  71.153  1.00  0.00    -0.384 A  
HETATM   34  C   UNL     1      -8.082  15.418  67.915  1.00  0.00    -0.148 A  
HETATM   35  C   UNL     1      -9.075  14.515  68.309  1.00  0.00    -0.196 A  
HETATM   36  C   UNL     1     -13.381  15.166  70.180  1.00  0.00     0.192 A  
ENDBRANCH  22  23
ENDBRANCH  20  22
ENDBRANCH  16  20
ENDBRANCH  13  15
ENDBRANCH  11  13
BRANCH  12  37
HETATM   37  C   UNL     1      -7.809   7.659  66.497  1.00  0.00    -0.105 A  
HETATM   38  O   UNL     1      -5.216   4.611  65.420  1.00  0.00    -0.008 OA 
HETATM   39  C   UNL     1      -6.969   6.574  66.176  1.00  0.00    -0.062 A  
HETATM   40  O   UNL     1      -5.977   4.586  63.363  1.00  0.00    -0.017 OA 
HETATM   41  C   UNL     1      -8.626   7.657  64.208  1.00  0.00     0.323 A  
HETATM   42  C   UNL     1      -6.924   6.081  64.867  1.00  0.00    -0.055 A  
HETATM   43  N   UNL     1      -5.973   5.013  64.527  1.00  0.00    -0.021 N  
HETATM   44  C   UNL     1      -7.755   6.617  63.880  1.00  0.00    -0.112 A  
HETATM   45  C   UNL     1      -8.650   8.177  65.505  1.00  0.00    -0.173 A  
ENDBRANCH  12  37
ENDBRANCH   3   5
ENDBRANCH   2   3
TORSDOF 8
ENDMDL
MODEL      259
REMARK 921   NORMALIZED FREE ENERGY PREDICTED BY IDOCK:    1.74 KCAL/MOL
REMARK 922        TOTAL FREE ENERGY PREDICTED BY IDOCK:    0.65 KCAL/MOL
REMARK 923 INTER-LIGAND FREE ENERGY PREDICTED BY IDOCK:   -1.45 KCAL/MOL
REMARK 924 INTRA-LIGAND FREE ENERGY PREDICTED BY IDOCK:    2.09 KCAL/MOL
REMARK 927      BINDING AFFINITY PREDICTED BY RF-SCORE:    0.00 PKD
ROOT
HETATM    1  C   UNL     1     -10.558  16.119  70.940  1.00  0.00     0.479 C  
HETATM    2  O   UNL     1      -9.639  15.037  70.755  1.00  0.00     0.714 OA 
ENDROOT
BRANCH   2   3
HETATM    3  C   UNL     1      -8.590  15.355  69.950  1.00  0.00     0.166 C  
HETATM    4  O   UNL     1      -8.155  16.487  69.805  1.00  0.00     0.278 OA 
BRANCH   3   5
HETATM    5  C   UNL     1      -8.051  14.142  69.278  1.00  0.00     0.229 C  
HETATM    6  C   UNL     1      -6.874  13.590  69.666  1.00  0.00     0.107 C  
HETATM    7  N   UNL     1      -6.435  12.425  69.064  1.00  0.00    -0.090 NA 
HETATM    8  C   UNL     1      -5.914  14.110  70.710  1.00  0.00    -0.198 C  
HETATM    9  C   UNL     1      -6.998  11.843  67.948  1.00  0.00    -0.085 C  
HETATM   10  C   UNL     1      -6.253  10.644  67.404  1.00  0.00    -0.057 C  
HETATM   11  C   UNL     1      -8.142  12.353  67.431  1.00  0.00    -0.177 C  
HETATM   12  C   UNL     1      -8.861  13.525  68.116  1.00  0.00    -0.179 C  
BRANCH  11  13
HETATM   13  C   UNL     1      -8.637  11.787  66.149  1.00  0.00    -0.001 C  
HETATM   14  O   UNL     1      -8.708  12.447  65.124  1.00  0.00     0.810 OA 
BRANCH  13  15
HETATM   15  O   UNL     1      -8.899  10.462  66.244  1.00  0.00    -0.146 OA 
HETATM   16  C   UNL     1      -9.385   8.203  65.374  1.00  0.00     0.340 C  
HETATM   17  C   UNL     1      -7.561   9.659  64.374  1.00  0.00    -0.128 C  
HETATM   18  C   UNL     1      -8.957   9.670  65.018  1.00  0.00    -0.212 C  
HETATM   19  C   UNL     1     -10.025  10.179  64.022  1.00  0.00    -0.048 C  
BRANCH  16  20
HETATM   20  N   UNL     1      -8.518   7.393  66.269  1.00  0.00    -0.130 NA 
HETATM   21  C   UNL     1      -7.919   8.233  67.310  1.00  0.00    -0.105 C  
BRANCH  20  22
HETATM   22  C   UNL     1      -9.308   6.351  66.960  1.00  0.00    -0.131 C  
BRANCH  22  23
HETATM   23  C   UNL     1      -9.924   6.749  68.302  1.00  0.00    -0.153 C  
HETATM   24  C   UNL     1      -9.274   6.165  69.583  1.00  0.00    -0.148 C  
HETATM   25  C   UNL     1     -10.247   6.428  70.744  1.00  0.00    -0.228 A  
HETATM   26  C   UNL     1      -7.830   6.641  69.765  1.00  0.00    -0.115 A  
HETATM   27  C   UNL     1     -10.761   5.357  71.491  1.00  0.00    -0.262 A  
HETATM   28  C   UNL     1      -7.476   7.819  70.439  1.00  0.00    -0.078 A  
HETATM   29  C   UNL     1     -11.812   5.558  72.392  1.00  0.00    -0.117 A  
HETATM   30  C   UNL     1      -6.153   8.269  70.467  1.00  0.00    -0.032 A  
HETATM   31  C   UNL     1      -5.153   7.551  69.824  1.00  0.00    -0.022 A  
HETATM   32  C   UNL     1     -12.351   6.831  72.574  1.00  0.00     0.118 A  
HETATM   33  C   UNL     1     -11.823   7.911  71.878  1.00  0.00    -0.345 A  
HETATM   34  C   UNL     1      -5.471   6.367  69.168  1.00  0.00    -0.013 A  
HETATM   35  C   UNL     1      -6.794   5.914  69.148  1.00  0.00    -0.062 A  
HETATM   36  C   UNL     1     -10.782   7.711  70.973  1.00  0.00    -0.239 A  
ENDBRANCH  22  23
ENDBRANCH  20  22
ENDBRANCH  16  20
ENDBRANCH  13  15
ENDBRANCH  11  13
BRANCH  12  37
HETATM   37  C   UNL     1      -9.281  14.584  67.093  1.00  0.00    -0.233 A  
HETATM   38  O   UNL     1     -13.081  14.558  65.438  1.00  0.00    -0.495 OA 
HETATM   39  C   UNL     1     -10.600  14.600  66.599  1.00  0.00    -0.289 A  
HETATM   40  O   UNL     1     -12.612  16.266  64.144  1.00  0.00    -0.353 OA 
HETATM   41  C   UNL     1      -8.751  16.454  65.633  1.00  0.00     0.376 A  
HETATM   42  C   UNL     1     -10.965  15.500  65.591  1.00  0.00    -0.303 A  
HETATM   43  N   UNL     1     -12.318  15.439  65.019  1.00  0.00     0.218 N  
HETATM   44  C   UNL     1     -10.044  16.432  65.108  1.00  0.00     0.178 A  
HETATM   45  C   UNL     1      -8.371  15.534  66.615  1.00  0.00    -0.286 A  
ENDBRANCH  12  37
ENDBRANCH   3   5
ENDBRANCH   2   3
TORSDOF 8
ENDMDL
MODEL      260
REMARK 921   NORMALIZED FREE ENERGY PREDICTED BY IDOCK:    1.90 KCAL/MOL
REMARK 922        TOTAL FREE ENERGY PREDICTED BY IDOCK:    0.87 KCAL/MOL
REMARK 923 INTER-LIGAND FREE ENERGY PREDICTED BY IDOCK:   -5.58 KCAL/MOL
REMARK 924 INTRA-LIGAND FREE ENERGY PREDICTED BY IDOCK:    6.46 KCAL/MOL
REMARK 927      BINDING AFFINITY PREDICTED BY RF-SCORE:    0.00 PKD
ROOT
HETATM    1  C   UNL     1      -8.032   6.171  69.807  1.00  0.00    -0.110 C  
HETATM    2  O   UNL     1      -8.216   7.436  69.161  1.00  0.00    -0.119 OA 
ENDROOT
BRANCH   2   3
HETATM    3  C   UNL     1      -8.153   8.491  70.017  1.00  0.00    -0.111 C  
HETATM    4  O   UNL     1      -8.639   8.494  71.138  1.00  0.00    -0.137 OA 
BRANCH   3   5
HETATM    5  C   UNL     1      -7.415   9.628  69.404  1.00  0.00    -0.093 C  
HETATM    6  C   UNL     1      -6.291  10.125  69.977  1.00  0.00    -0.088 C  
HETATM    7  N   UNL     1      -5.593  11.139  69.345  1.00  0.00    -0.041 NA 
HETATM    8  C   UNL     1      -5.669   9.715  71.291  1.00  0.00    -0.075 C  
HETATM    9  C   UNL     1      -6.035  11.845  68.246  1.00  0.00    -0.050 C  
HETATM   10  C   UNL     1      -5.147  12.994  67.822  1.00  0.00    -0.094 C  
HETATM   11  C   UNL     1      -7.185  11.478  67.631  1.00  0.00    -0.103 C  
HETATM   12  C   UNL     1      -7.965  10.240  68.096  1.00  0.00    -0.109 C  
BRANCH  11  13
HETATM   13  C   UNL     1      -7.698  12.350  66.542  1.00  0.00     0.409 C  
HETATM   14  O   UNL     1      -8.317  11.910  65.585  1.00  0.00     0.320 OA 
BRANCH  13  15
HETATM   15  O   UNL     1      -7.478  13.662  66.793  1.00  0.00     0.325 OA 
HETATM   16  C   UNL     1      -8.127  15.985  67.321  1.00  0.00    -0.177 C  
HETATM   17  C   UNL     1      -9.107  14.004  68.571  1.00  0.00    -0.163 C  
HETATM   18  C   UNL     1      -8.606  14.495  67.203  1.00  0.00    -0.222 C  
HETATM   19  C   UNL     1      -9.751  14.513  66.164  1.00  0.00    -0.340 C  
BRANCH  16  20
HETATM   20  N   UNL     1      -7.067  16.328  68.304  1.00  0.00    -0.133 NA 
HETATM   21  C   UNL     1      -6.843  17.777  68.341  1.00  0.00    -0.221 C  
BRANCH  20  22
HETATM   22  C   UNL     1      -7.465  15.920  69.668  1.00  0.00    -0.056 C  
BRANCH  22  23
HETATM   23  C   UNL     1      -8.917  15.469  69.842  1.00  0.00     0.124 C  
HETATM   24  C   UNL     1      -9.945  16.540  70.289  1.00  0.00     0.832 C  
HETATM   25  C   UNL     1     -11.222  15.794  70.709  1.00  0.00    -0.404 A  
HETATM   26  C   UNL     1     -10.102  17.657  69.253  1.00  0.00    -0.147 A  
HETATM   27  C   UNL     1     -11.725  15.932  72.011  1.00  0.00    -0.588 A  
HETATM   28  C   UNL     1     -11.011  17.609  68.185  1.00  0.00    -0.089 A  
HETATM   29  C   UNL     1     -12.743  15.092  72.474  1.00  0.00    -0.440 A  
HETATM   30  C   UNL     1     -11.024  18.599  67.199  1.00  0.00    -0.189 A  
HETATM   31  C   UNL     1     -10.131  19.661  67.258  1.00  0.00    -0.534 A  
HETATM   32  C   UNL     1     -13.285  14.116  71.639  1.00  0.00    -0.426 A  
HETATM   33  C   UNL     1     -12.833  13.996  70.331  1.00  0.00    -0.231 A  
HETATM   34  C   UNL     1      -9.234  19.747  68.317  1.00  0.00    -0.388 A  
HETATM   35  C   UNL     1      -9.228  18.759  69.308  1.00  0.00     0.052 A  
HETATM   36  C   UNL     1     -11.812  14.827  69.872  1.00  0.00    -0.364 A  
ENDBRANCH  22  23
ENDBRANCH  20  22
ENDBRANCH  16  20
ENDBRANCH  13  15
ENDBRANCH  11  13
BRANCH  12  37
HETATM   37  C   UNL     1      -9.464  10.541  68.199  1.00  0.00    -0.157 A  
HETATM   38  O   UNL     1     -11.502  10.026  71.770  1.00  0.00    -0.185 OA 
HETATM   39  C   UNL     1     -10.120  10.430  69.440  1.00  0.00    -0.251 A  
HETATM   40  O   UNL     1     -13.414  10.576  70.848  1.00  0.00    -0.197 OA 
HETATM   41  C   UNL     1     -11.589  11.115  67.168  1.00  0.00    -0.034 A  
HETATM   42  C   UNL     1     -11.507  10.605  69.523  1.00  0.00    -0.291 A  
HETATM   43  N   UNL     1     -12.189  10.391  70.807  1.00  0.00    -0.328 N  
HETATM   44  C   UNL     1     -12.245  10.952  68.389  1.00  0.00     0.296 A  
HETATM   45  C   UNL     1     -10.210  10.906  67.072  1.00  0.00    -0.256 A  
ENDBRANCH  12  37
ENDBRANCH   3   5
ENDBRANCH   2   3
TORSDOF 8
ENDMDL
MODEL      261
REMARK 921   NORMALIZED FREE ENERGY PREDICTED BY IDOCK:    2.00 KCAL/MOL
REMARK 922        TOTAL FREE ENERGY PREDICTED BY IDOCK:    1.02 KCAL/MOL
REMARK 923 INTER-LIGAND FREE ENERGY PREDICTED BY IDOCK:   -5.27 KCAL/MOL
REMARK 924 INTRA-LIGAND FREE ENERGY PREDICTED BY IDOCK:    6.29 KCAL/MOL
REMARK 927      BINDING AFFINITY PREDICTED BY RF-SCORE:    0.00 PKD
ROOT
HETATM    1  C   UNL     1      -8.204   4.978  69.661  1.00  0.00    -0.088 C  
HETATM    2  O   UNL     1      -8.455   4.372  68.389  1.00  0.00    -0.091 OA 
ENDROOT
BRANCH   2   3
HETATM    3  C   UNL     1      -9.133   5.183  67.532  1.00  0.00    -0.114 C  
HETATM    4  O   UNL     1     -10.324   5.076  67.284  1.00  0.00    -0.188 OA 
BRANCH   3   5
HETATM    5  C   UNL     1      -8.229   6.210  66.948  1.00  0.00    -0.106 C  
HETATM    6  C   UNL     1      -7.265   5.870  66.056  1.00  0.00    -0.075 C  
HETATM    7  N   UNL     1      -6.486   6.860  65.483  1.00  0.00    -0.045 NA 
HETATM    8  C   UNL     1      -6.892   4.483  65.588  1.00  0.00    -0.057 C  
HETATM    9  C   UNL     1      -6.464   8.182  65.872  1.00  0.00    -0.045 C  
HETATM   10  C   UNL     1      -5.428   9.039  65.177  1.00  0.00    -0.042 C  
HETATM   11  C   UNL     1      -7.340   8.620  66.809  1.00  0.00    -0.079 C  
HETATM   12  C   UNL     1      -8.406   7.680  67.389  1.00  0.00    -0.116 C  
BRANCH  11  13
HETATM   13  C   UNL     1      -7.189  10.014  67.302  1.00  0.00    -0.086 C  
HETATM   14  O   UNL     1      -6.399  10.318  68.183  1.00  0.00    -0.055 OA 
BRANCH  13  15
HETATM   15  O   UNL     1      -7.949  10.888  66.601  1.00  0.00    -0.135 OA 
HETATM   16  C   UNL     1      -9.580  11.559  64.872  1.00  0.00    -0.186 C  
HETATM   17  C   UNL     1      -9.983   9.564  66.391  1.00  0.00    -0.339 C  
HETATM   18  C   UNL     1      -8.909  10.362  65.633  1.00  0.00    -0.173 C  
HETATM   19  C   UNL     1      -8.245   9.498  64.535  1.00  0.00    -0.152 C  
BRANCH  16  20
HETATM   20  N   UNL     1     -10.373  12.552  65.643  1.00  0.00    -0.266 NA 
HETATM   21  C   UNL     1     -11.769  12.120  65.763  1.00  0.00    -0.327 C  
BRANCH  20  22
HETATM   22  C   UNL     1      -9.846  12.690  67.018  1.00  0.00    -0.225 C  
BRANCH  22  23
HETATM   23  C   UNL     1      -8.841  13.820  67.246  1.00  0.00    -0.225 C  
HETATM   24  C   UNL     1      -9.409  15.205  67.650  1.00  0.00    -0.189 C  
HETATM   25  C   UNL     1      -8.269  16.225  67.494  1.00  0.00    -0.165 A  
HETATM   26  C   UNL     1     -10.122  15.163  69.005  1.00  0.00    -0.244 A  
HETATM   27  C   UNL     1      -8.414  17.319  66.628  1.00  0.00    -0.292 A  
HETATM   28  C   UNL     1      -9.475  15.362  70.234  1.00  0.00     0.452 A  
HETATM   29  C   UNL     1      -7.314  18.120  66.304  1.00  0.00    -0.302 A  
HETATM   30  C   UNL     1     -10.150  15.188  71.445  1.00  0.00     1.499 A  
HETATM   31  C   UNL     1     -11.488  14.814  71.456  1.00  0.00    -0.203 A  
HETATM   32  C   UNL     1      -6.060  17.852  66.852  1.00  0.00    -0.183 A  
HETATM   33  C   UNL     1      -5.909  16.802  67.748  1.00  0.00    -0.149 A  
HETATM   34  C   UNL     1     -12.161  14.632  70.253  1.00  0.00    -0.389 A  
HETATM   35  C   UNL     1     -11.486  14.815  69.042  1.00  0.00    -0.316 A  
HETATM   36  C   UNL     1      -7.001  15.997  68.065  1.00  0.00    -0.138 A  
ENDBRANCH  22  23
ENDBRANCH  20  22
ENDBRANCH  16  20
ENDBRANCH  13  15
ENDBRANCH  11  13
BRANCH  12  37
HETATM   37  C   UNL     1      -8.482   7.809  68.913  1.00  0.00    -0.129 A  
HETATM   38  O   UNL     1     -12.093   8.534  70.814  1.00  0.00    -0.206 OA 
HETATM   39  C   UNL     1      -9.730   7.982  69.543  1.00  0.00    -0.170 A  
HETATM   40  O   UNL     1     -11.125   8.643  72.779  1.00  0.00    -0.161 OA 
HETATM   41  C   UNL     1      -7.404   7.967  71.086  1.00  0.00    -0.063 A  
HETATM   42  C   UNL     1      -9.799   8.202  70.924  1.00  0.00    -0.176 A  
HETATM   43  N   UNL     1     -11.099   8.476  71.551  1.00  0.00    -0.257 N  
HETATM   44  C   UNL     1      -8.637   8.191  71.701  1.00  0.00    -0.181 A  
HETATM   45  C   UNL     1      -7.326   7.783  69.703  1.00  0.00    -0.088 A  
ENDBRANCH  12  37
ENDBRANCH   3   5
ENDBRANCH   2   3
TORSDOF 8
ENDMDL
MODEL      262
REMARK 921   NORMALIZED FREE ENERGY PREDICTED BY IDOCK:    2.03 KCAL/MOL
REMARK 922        TOTAL FREE ENERGY PREDICTED BY IDOCK:    1.06 KCAL/MOL
REMARK 923 INTER-LIGAND FREE ENERGY PREDICTED BY IDOCK:   -2.83 KCAL/MOL
REMARK 924 INTRA-LIGAND FREE ENERGY PREDICTED BY IDOCK:    3.90 KCAL/MOL
REMARK 927      BINDING AFFINITY PREDICTED BY RF-SCORE:    0.00 PKD
ROOT
HETATM    1  C   UNL     1      -5.559  18.584  65.707  1.00  0.00    -0.180 C  
HETATM    2  O   UNL     1      -6.001  17.325  66.228  1.00  0.00    -0.201 OA 
ENDROOT
BRANCH   2   3
HETATM    3  C   UNL     1      -6.339  17.378  67.544  1.00  0.00    -0.147 C  
HETATM    4  O   UNL     1      -5.532  17.447  68.458  1.00  0.00    -0.146 OA 
BRANCH   3   5
HETATM    5  C   UNL     1      -7.817  17.341  67.712  1.00  0.00    -0.194 C  
HETATM    6  C   UNL     1      -8.467  18.304  68.413  1.00  0.00    -0.303 C  
HETATM    7  N   UNL     1      -9.848  18.274  68.494  1.00  0.00    -0.364 NA 
HETATM    8  C   UNL     1      -7.859  19.458  69.174  1.00  0.00    -0.253 C  
HETATM    9  C   UNL     1     -10.649  17.233  68.075  1.00  0.00    -0.394 C  
HETATM   10  C   UNL     1     -12.121  17.386  68.393  1.00  0.00     2.380 C  
HETATM   11  C   UNL     1     -10.096  16.183  67.421  1.00  0.00    -0.257 C  
HETATM   12  C   UNL     1      -8.600  16.171  67.076  1.00  0.00    -0.233 C  
BRANCH  11  13
HETATM   13  C   UNL     1     -10.969  15.019  67.114  1.00  0.00    -0.329 C  
HETATM   14  O   UNL     1     -11.756  15.018  66.180  1.00  0.00    -0.242 OA 
BRANCH  13  15
HETATM   15  O   UNL     1     -10.714  13.964  67.922  1.00  0.00    -0.236 OA 
HETATM   16  C   UNL     1     -10.789  12.684  70.033  1.00  0.00     0.910 C  
HETATM   17  C   UNL     1     -12.846  13.838  69.094  1.00  0.00     0.939 C  
HETATM   18  C   UNL     1     -11.320  13.937  69.252  1.00  0.00    -0.272 C  
HETATM   19  C   UNL     1     -10.928  15.157  70.117  1.00  0.00    -0.277 C  
BRANCH  16  20
HETATM   20  N   UNL     1     -11.067  11.326  69.498  1.00  0.00    -0.252 NA 
HETATM   21  C   UNL     1     -12.360  10.833  69.980  1.00  0.00    -0.298 C  
BRANCH  20  22
HETATM   22  C   UNL     1     -11.140  11.350  68.021  1.00  0.00    -0.257 C  
BRANCH  22  23
HETATM   23  C   UNL     1     -10.512  10.160  67.293  1.00  0.00    -0.313 C  
HETATM   24  C   UNL     1      -9.315   9.457  67.984  1.00  0.00    -0.140 C  
HETATM   25  C   UNL     1      -8.663   8.540  66.936  1.00  0.00    -0.137 A  
HETATM   26  C   UNL     1      -9.714   8.815  69.316  1.00  0.00    -0.172 A  
HETATM   27  C   UNL     1      -7.316   8.715  66.586  1.00  0.00    -0.081 A  
HETATM   28  C   UNL     1     -10.211   7.509  69.435  1.00  0.00    -0.204 A  
HETATM   29  C   UNL     1      -6.775   8.046  65.481  1.00  0.00    -0.048 A  
HETATM   30  C   UNL     1     -10.677   7.018  70.658  1.00  0.00    -0.255 A  
HETATM   31  C   UNL     1     -10.653   7.821  71.791  1.00  0.00    -0.260 A  
HETATM   32  C   UNL     1      -7.566   7.183  64.724  1.00  0.00    -0.105 A  
HETATM   33  C   UNL     1      -8.888   6.962  65.085  1.00  0.00     0.228 A  
HETATM   34  C   UNL     1     -10.144   9.112  71.709  1.00  0.00    -0.279 A  
HETATM   35  C   UNL     1      -9.671   9.598  70.485  1.00  0.00    -0.280 A  
HETATM   36  C   UNL     1      -9.431   7.633  66.179  1.00  0.00    -0.117 A  
ENDBRANCH  22  23
ENDBRANCH  20  22
ENDBRANCH  16  20
ENDBRANCH  13  15
ENDBRANCH  11  13
BRANCH  12  37
HETATM   37  C   UNL     1      -7.969  14.817  67.415  1.00  0.00    -0.220 A  
HETATM   38  O   UNL     1      -5.628  14.345  70.802  1.00  0.00    -0.139 OA 
HETATM   39  C   UNL     1      -7.238  14.661  68.609  1.00  0.00    -0.122 A  
HETATM   40  O   UNL     1      -5.183  12.257  70.298  1.00  0.00    -0.085 OA 
HETATM   41  C   UNL     1      -7.447  12.514  66.838  1.00  0.00     0.092 A  
HETATM   42  C   UNL     1      -6.574  13.458  68.878  1.00  0.00    -0.107 A  
HETATM   43  N   UNL     1      -5.738  13.345  70.081  1.00  0.00    -0.125 N  
HETATM   44  C   UNL     1      -6.680  12.380  67.996  1.00  0.00    -0.081 A  
HETATM   45  C   UNL     1      -8.083  13.724  66.546  1.00  0.00     0.722 A  
ENDBRANCH  12  37
ENDBRANCH   3   5
ENDBRANCH   2   3
TORSDOF 8
ENDMDL
MODEL      263
REMARK 921   NORMALIZED FREE ENERGY PREDICTED BY IDOCK:    2.05 KCAL/MOL
REMARK 922        TOTAL FREE ENERGY PREDICTED BY IDOCK:    1.10 KCAL/MOL
REMARK 923 INTER-LIGAND FREE ENERGY PREDICTED BY IDOCK:   -3.57 KCAL/MOL
REMARK 924 INTRA-LIGAND FREE ENERGY PREDICTED BY IDOCK:    4.67 KCAL/MOL
REMARK 927      BINDING AFFINITY PREDICTED BY RF-SCORE:    0.00 PKD
ROOT
HETATM    1  C   UNL     1      -8.088   9.206  64.441  1.00  0.00    -0.145 C  
HETATM    2  O   UNL     1      -6.743   8.775  64.210  1.00  0.00    -0.074 OA 
ENDROOT
BRANCH   2   3
HETATM    3  C   UNL     1      -6.303   7.871  65.126  1.00  0.00    -0.041 C  
HETATM    4  O   UNL     1      -5.136   7.535  65.254  1.00  0.00    -0.027 OA 
BRANCH   3   5
HETATM    5  C   UNL     1      -7.433   7.356  65.946  1.00  0.00    -0.080 C  
HETATM    6  C   UNL     1      -8.508   6.766  65.367  1.00  0.00    -0.096 C  
HETATM    7  N   UNL     1      -9.510   6.240  66.162  1.00  0.00    -0.107 NA 
HETATM    8  C   UNL     1      -8.789   6.611  63.890  1.00  0.00     0.826 C  
HETATM    9  C   UNL     1      -9.622   6.419  67.525  1.00  0.00    -0.120 C  
HETATM   10  C   UNL     1     -10.880   5.852  68.146  1.00  0.00    -0.323 C  
HETATM   11  C   UNL     1      -8.635   7.056  68.201  1.00  0.00    -0.128 C  
HETATM   12  C   UNL     1      -7.360   7.517  67.481  1.00  0.00    -0.102 C  
BRANCH  11  13
HETATM   13  C   UNL     1      -8.860   7.352  69.640  1.00  0.00    -0.141 C  
HETATM   14  O   UNL     1      -8.100   6.968  70.516  1.00  0.00    -0.111 OA 
BRANCH  13  15
HETATM   15  O   UNL     1      -9.931   8.157  69.833  1.00  0.00    -0.185 OA 
HETATM   16  C   UNL     1     -11.346   9.747  71.086  1.00  0.00    -0.389 C  
HETATM   17  C   UNL     1      -8.827  10.026  70.940  1.00  0.00     1.011 C  
HETATM   18  C   UNL     1      -9.968   8.999  71.027  1.00  0.00    -0.279 C  
HETATM   19  C   UNL     1      -9.885   8.185  72.340  1.00  0.00    -0.346 C  
BRANCH  16  20
HETATM   20  N   UNL     1     -11.709  10.683  69.991  1.00  0.00    -0.296 NA 
HETATM   21  C   UNL     1     -12.730  10.093  69.121  1.00  0.00     1.540 C  
BRANCH  20  22
HETATM   22  C   UNL     1     -12.280  11.932  70.538  1.00  0.00    -0.336 C  
BRANCH  22  23
HETATM   23  C   UNL     1     -11.823  13.233  69.873  1.00  0.00    -0.380 C  
HETATM   24  C   UNL     1     -10.529  13.177  69.021  1.00  0.00    -0.031 C  
HETATM   25  C   UNL     1     -10.104  14.630  68.749  1.00  0.00    -0.235 A  
HETATM   26  C   UNL     1     -10.677  12.258  67.806  1.00  0.00    -0.246 A  
HETATM   27  C   UNL     1      -8.846  15.088  69.167  1.00  0.00    -0.184 A  
HETATM   28  C   UNL     1     -11.166  12.682  66.561  1.00  0.00    -0.342 A  
HETATM   29  C   UNL     1      -8.537  16.452  69.132  1.00  0.00    -0.182 A  
HETATM   30  C   UNL     1     -11.398  11.774  65.525  1.00  0.00    -0.283 A  
HETATM   31  C   UNL     1     -11.145  10.420  65.707  1.00  0.00     0.432 A  
HETATM   32  C   UNL     1      -9.472  17.374  68.663  1.00  0.00    -0.280 A  
HETATM   33  C   UNL     1     -10.706  16.933  68.201  1.00  0.00    -0.375 A  
HETATM   34  C   UNL     1     -10.638   9.974  66.923  1.00  0.00    -0.261 A  
HETATM   35  C   UNL     1     -10.399  10.886  67.956  1.00  0.00    -0.212 A  
HETATM   36  C   UNL     1     -11.018  15.576  68.244  1.00  0.00    -0.305 A  
ENDBRANCH  22  23
ENDBRANCH  20  22
ENDBRANCH  16  20
ENDBRANCH  13  15
ENDBRANCH  11  13
BRANCH  12  37
HETATM   37  C   UNL     1      -6.988   8.947  67.884  1.00  0.00    -0.078 A  
HETATM   38  O   UNL     1      -5.129   9.726  71.505  1.00  0.00    -0.058 OA 
HETATM   39  C   UNL     1      -6.291   9.180  69.085  1.00  0.00    -0.042 A  
HETATM   40  O   UNL     1      -5.164  11.889  71.145  1.00  0.00    -0.153 OA 
HETATM   41  C   UNL     1      -7.060  11.346  67.502  1.00  0.00    -0.106 A  
HETATM   42  C   UNL     1      -6.036  10.490  69.510  1.00  0.00    -0.050 A  
HETATM   43  N   UNL     1      -5.393  10.717  70.812  1.00  0.00    -0.095 N  
HETATM   44  C   UNL     1      -6.416  11.576  68.719  1.00  0.00    -0.058 A  
HETATM   45  C   UNL     1      -7.349  10.042  67.090  1.00  0.00    -0.091 A  
ENDBRANCH  12  37
ENDBRANCH   3   5
ENDBRANCH   2   3
TORSDOF 8
ENDMDL
MODEL      264
REMARK 921   NORMALIZED FREE ENERGY PREDICTED BY IDOCK:    2.19 KCAL/MOL
REMARK 922        TOTAL FREE ENERGY PREDICTED BY IDOCK:    1.31 KCAL/MOL
REMARK 923 INTER-LIGAND FREE ENERGY PREDICTED BY IDOCK:   -7.77 KCAL/MOL
REMARK 924 INTRA-LIGAND FREE ENERGY PREDICTED BY IDOCK:    9.07 KCAL/MOL
REMARK 927      BINDING AFFINITY PREDICTED BY RF-SCORE:    0.00 PKD
ROOT
HETATM    1  C   UNL     1      -9.959  17.425  68.667  1.00  0.00    -0.340 C  
HETATM    2  O   UNL     1     -10.603  16.374  67.939  1.00  0.00    -0.299 OA 
ENDROOT
BRANCH   2   3
HETATM    3  C   UNL     1     -10.022  16.121  66.735  1.00  0.00    -0.258 C  
HETATM    4  O   UNL     1      -9.267  16.891  66.162  1.00  0.00    -0.365 OA 
BRANCH   3   5
HETATM    5  C   UNL     1     -10.429  14.784  66.222  1.00  0.00    -0.300 C  
HETATM    6  C   UNL     1     -10.991  14.646  64.996  1.00  0.00    -0.405 C  
HETATM    7  N   UNL     1     -11.297  13.382  64.524  1.00  0.00    -0.351 NA 
HETATM    8  C   UNL     1     -11.366  15.741  64.026  1.00  0.00     0.202 C  
HETATM    9  C   UNL     1     -11.256  12.222  65.268  1.00  0.00    -0.328 C  
HETATM   10  C   UNL     1     -11.764  10.985  64.559  1.00  0.00     0.776 C  
HETATM   11  C   UNL     1     -10.775  12.254  66.534  1.00  0.00    -0.279 C  
HETATM   12  C   UNL     1     -10.205  13.552  67.126  1.00  0.00    -0.247 C  
BRANCH  11  13
HETATM   13  C   UNL     1     -10.880  11.015  67.348  1.00  0.00    -0.274 C  
HETATM   14  O   UNL     1     -11.901  10.704  67.942  1.00  0.00    -0.485 OA 
BRANCH  13  15
HETATM   15  O   UNL     1      -9.762  10.256  67.269  1.00  0.00    -0.159 OA 
HETATM   16  C   UNL     1      -7.504   9.510  67.935  1.00  0.00    -0.083 C  
HETATM   17  C   UNL     1      -9.334   9.929  69.644  1.00  0.00    -0.247 C  
HETATM   18  C   UNL     1      -8.742  10.400  68.306  1.00  0.00    -0.128 C  
HETATM   19  C   UNL     1      -8.194  11.842  68.415  1.00  0.00    -0.154 C  
BRANCH  16  20
HETATM   20  N   UNL     1      -7.678   8.038  67.822  1.00  0.00    -0.108 NA 
HETATM   21  C   UNL     1      -8.298   7.494  69.034  1.00  0.00    -0.129 C  
BRANCH  20  22
HETATM   22  C   UNL     1      -8.574   7.703  66.694  1.00  0.00    -0.133 C  
BRANCH  22  23
HETATM   23  C   UNL     1      -8.376   6.324  66.060  1.00  0.00    -0.138 C  
HETATM   24  C   UNL     1      -8.494   6.229  64.517  1.00  0.00     0.080 C  
HETATM   25  C   UNL     1      -8.590   4.735  64.163  1.00  0.00    -0.137 A  
HETATM   26  C   UNL     1      -7.411   7.043  63.803  1.00  0.00    -0.096 A  
HETATM   27  C   UNL     1      -9.708   4.245  63.471  1.00  0.00    -0.059 A  
HETATM   28  C   UNL     1      -6.144   6.538  63.475  1.00  0.00    -0.030 A  
HETATM   29  C   UNL     1      -9.917   2.867  63.343  1.00  0.00    -0.128 A  
HETATM   30  C   UNL     1      -5.152   7.363  62.938  1.00  0.00    -0.034 A  
HETATM   31  C   UNL     1      -5.404   8.710  62.713  1.00  0.00    -0.070 A  
HETATM   32  C   UNL     1      -9.006   1.962  63.888  1.00  0.00    -0.094 A  
HETATM   33  C   UNL     1      -7.870   2.431  64.535  1.00  0.00    -0.074 A  
HETATM   34  C   UNL     1      -6.658   9.233  63.007  1.00  0.00    -0.094 A  
HETATM   35  C   UNL     1      -7.652   8.404  63.538  1.00  0.00    -0.133 A  
HETATM   36  C   UNL     1      -7.665   3.802  64.671  1.00  0.00    -0.081 A  
ENDBRANCH  22  23
ENDBRANCH  20  22
ENDBRANCH  16  20
ENDBRANCH  13  15
ENDBRANCH  11  13
BRANCH  12  37
HETATM   37  C   UNL     1     -10.733  13.786  68.545  1.00  0.00    -0.274 A  
HETATM   38  O   UNL     1     -13.146  10.980  70.411  1.00  0.00    -0.127 OA 
HETATM   39  C   UNL     1     -11.490  12.786  69.187  1.00  0.00    -0.361 A  
HETATM   40  O   UNL     1     -13.397  12.257  72.177  1.00  0.00    -0.526 OA 
HETATM   41  C   UNL     1     -11.042  15.216  70.486  1.00  0.00    -0.294 A  
HETATM   42  C   UNL     1     -12.061  13.031  70.442  1.00  0.00    -0.314 A  
HETATM   43  N   UNL     1     -12.927  12.014  71.055  1.00  0.00    -0.170 N  
HETATM   44  C   UNL     1     -11.835  14.244  71.097  1.00  0.00    -0.265 A  
HETATM   45  C   UNL     1     -10.499  14.991  69.218  1.00  0.00    -0.252 A  
ENDBRANCH  12  37
ENDBRANCH   3   5
ENDBRANCH   2   3
TORSDOF 8
ENDMDL
MODEL      265
REMARK 921   NORMALIZED FREE ENERGY PREDICTED BY IDOCK:    2.24 KCAL/MOL
REMARK 922        TOTAL FREE ENERGY PREDICTED BY IDOCK:    1.38 KCAL/MOL
REMARK 923 INTER-LIGAND FREE ENERGY PREDICTED BY IDOCK:   -2.69 KCAL/MOL
REMARK 924 INTRA-LIGAND FREE ENERGY PREDICTED BY IDOCK:    4.07 KCAL/MOL
REMARK 927      BINDING AFFINITY PREDICTED BY RF-SCORE:    0.00 PKD
ROOT
HETATM    1  C   UNL     1      -6.898   6.105  65.742  1.00  0.00    -0.056 C  
HETATM    2  O   UNL     1      -7.916   6.042  64.738  1.00  0.00    -0.115 OA 
ENDROOT
BRANCH   2   3
HETATM    3  C   UNL     1      -8.144   7.237  64.129  1.00  0.00    -0.036 C  
HETATM    4  O   UNL     1      -8.843   7.380  63.138  1.00  0.00     0.509 OA 
BRANCH   3   5
HETATM    5  C   UNL     1      -7.432   8.336  64.836  1.00  0.00    -0.092 C  
HETATM    6  C   UNL     1      -6.107   8.549  64.645  1.00  0.00    -0.065 C  
HETATM    7  N   UNL     1      -5.491   9.620  65.268  1.00  0.00    -0.048 NA 
HETATM    8  C   UNL     1      -5.151   7.724  63.815  1.00  0.00    -0.037 C  
HETATM    9  C   UNL     1      -6.063  10.414  66.239  1.00  0.00    -0.090 C  
HETATM   10  C   UNL     1      -5.138  11.439  66.859  1.00  0.00    -0.095 C  
HETATM   11  C   UNL     1      -7.369  10.244  66.560  1.00  0.00    -0.113 C  
HETATM   12  C   UNL     1      -8.238   9.228  65.806  1.00  0.00    -0.117 C  
BRANCH  11  13
HETATM   13  C   UNL     1      -7.908  11.021  67.707  1.00  0.00    -0.110 C  
HETATM   14  O   UNL     1      -8.045  10.538  68.821  1.00  0.00    -0.113 OA 
BRANCH  13  15
HETATM   15  O   UNL     1      -8.128  12.318  67.386  1.00  0.00    -0.156 OA 
HETATM   16  C   UNL     1      -9.488  14.360  67.104  1.00  0.00    -0.222 C  
HETATM   17  C   UNL     1      -9.654  12.919  69.187  1.00  0.00     0.561 C  
HETATM   18  C   UNL     1      -9.441  12.895  67.665  1.00  0.00    -0.197 C  
HETATM   19  C   UNL     1     -10.592  12.145  66.954  1.00  0.00    -0.257 C  
BRANCH  16  20
HETATM   20  N   UNL     1      -8.543  15.372  67.643  1.00  0.00    -0.162 NA 
HETATM   21  C   UNL     1      -8.032  14.959  68.953  1.00  0.00    -0.163 C  
BRANCH  20  22
HETATM   22  C   UNL     1      -7.371  15.520  66.752  1.00  0.00     0.136 C  
BRANCH  22  23
HETATM   23  C   UNL     1      -6.855  16.946  66.545  1.00  0.00    -0.249 C  
HETATM   24  C   UNL     1      -7.894  18.025  66.146  1.00  0.00    -0.245 C  
HETATM   25  C   UNL     1      -7.105  19.260  65.679  1.00  0.00    -0.278 A  
HETATM   26  C   UNL     1      -8.947  18.244  67.235  1.00  0.00    -0.259 A  
HETATM   27  C   UNL     1      -7.284  19.763  64.382  1.00  0.00     1.218 A  
HETATM   28  C   UNL     1      -8.798  19.154  68.293  1.00  0.00    -0.377 A  
HETATM   29  C   UNL     1      -6.417  20.735  63.870  1.00  0.00    -0.223 A  
HETATM   30  C   UNL     1      -9.735  19.223  69.328  1.00  0.00    -0.292 A  
HETATM   31  C   UNL     1     -10.844  18.386  69.328  1.00  0.00     1.070 A  
HETATM   32  C   UNL     1      -5.373  21.230  64.651  1.00  0.00    -0.182 A  
HETATM   33  C   UNL     1      -5.211  20.778  65.954  1.00  0.00    -0.225 A  
HETATM   34  C   UNL     1     -11.029  17.490  68.282  1.00  0.00    -0.103 A  
HETATM   35  C   UNL     1     -10.094  17.428  67.242  1.00  0.00    -0.310 A  
HETATM   36  C   UNL     1      -6.068  19.803  66.463  1.00  0.00    -0.174 A  
ENDBRANCH  22  23
ENDBRANCH  20  22
ENDBRANCH  16  20
ENDBRANCH  13  15
ENDBRANCH  11  13
BRANCH  12  37
HETATM   37  C   UNL     1      -9.078   8.394  66.778  1.00  0.00    -0.192 A  
HETATM   38  O   UNL     1      -7.273   6.075  69.701  1.00  0.00    -0.069 OA 
HETATM   39  C   UNL     1      -8.447   7.672  67.810  1.00  0.00    -0.122 A  
HETATM   40  O   UNL     1      -9.206   5.290  70.380  1.00  0.00    -0.140 OA 
HETATM   41  C   UNL     1     -11.216   7.497  67.507  1.00  0.00     0.243 A  
HETATM   42  C   UNL     1      -9.195   6.828  68.640  1.00  0.00    -0.132 A  
HETATM   43  N   UNL     1      -8.509   6.009  69.649  1.00  0.00    -0.124 N  
HETATM   44  C   UNL     1     -10.581   6.741  68.494  1.00  0.00    -0.265 A  
HETATM   45  C   UNL     1     -10.470   8.313  66.652  1.00  0.00    -0.217 A  
ENDBRANCH  12  37
ENDBRANCH   3   5
ENDBRANCH   2   3
TORSDOF 8
ENDMDL
MODEL      266
REMARK 921   NORMALIZED FREE ENERGY PREDICTED BY IDOCK:    2.31 KCAL/MOL
REMARK 922        TOTAL FREE ENERGY PREDICTED BY IDOCK:    1.48 KCAL/MOL
REMARK 923 INTER-LIGAND FREE ENERGY PREDICTED BY IDOCK:   -3.25 KCAL/MOL
REMARK 924 INTRA-LIGAND FREE ENERGY PREDICTED BY IDOCK:    4.73 KCAL/MOL
REMARK 927      BINDING AFFINITY PREDICTED BY RF-SCORE:    0.00 PKD
ROOT
HETATM    1  C   UNL     1     -11.609   6.129  67.609  1.00  0.00     0.963 C  
HETATM    2  O   UNL     1     -10.543   5.304  67.128  1.00  0.00    -0.227 OA 
ENDROOT
BRANCH   2   3
HETATM    3  C   UNL     1      -9.350   5.954  67.061  1.00  0.00    -0.120 C  
HETATM    4  O   UNL     1      -8.768   6.215  66.019  1.00  0.00    -0.145 OA 
BRANCH   3   5
HETATM    5  C   UNL     1      -8.859   6.301  68.422  1.00  0.00    -0.114 C  
HETATM    6  C   UNL     1      -8.667   5.343  69.363  1.00  0.00    -0.105 C  
HETATM    7  N   UNL     1      -8.147   5.693  70.597  1.00  0.00    -0.114 NA 
HETATM    8  C   UNL     1      -8.975   3.868  69.253  1.00  0.00    -0.175 C  
HETATM    9  C   UNL     1      -7.967   6.983  71.049  1.00  0.00    -0.101 C  
HETATM   10  C   UNL     1      -7.506   7.101  72.485  1.00  0.00    -0.084 C  
HETATM   11  C   UNL     1      -8.194   8.025  70.213  1.00  0.00    -0.123 C  
HETATM   12  C   UNL     1      -8.579   7.785  68.746  1.00  0.00    -0.129 C  
BRANCH  11  13
HETATM   13  C   UNL     1      -8.126   9.397  70.779  1.00  0.00    -0.116 C  
HETATM   14  O   UNL     1      -8.634   9.691  71.851  1.00  0.00     0.390 OA 
BRANCH  13  15
HETATM   15  O   UNL     1      -7.370  10.225  70.020  1.00  0.00    -0.155 OA 
HETATM   16  C   UNL     1      -5.362  10.896  68.749  1.00  0.00    -0.040 C  
HETATM   17  C   UNL     1      -6.394   8.589  68.501  1.00  0.00    -0.054 C  
HETATM   18  C   UNL     1      -6.102   9.728  69.492  1.00  0.00    -0.044 C  
HETATM   19  C   UNL     1      -5.128   9.265  70.601  1.00  0.00    -0.023 C  
BRANCH  16  20
HETATM   20  N   UNL     1      -6.007  11.525  67.567  1.00  0.00    -0.062 NA 
HETATM   21  C   UNL     1      -7.090  10.680  67.057  1.00  0.00    -0.100 C  
BRANCH  20  22
HETATM   22  C   UNL     1      -6.610  12.825  67.931  1.00  0.00    -0.118 C  
BRANCH  22  23
HETATM   23  C   UNL     1      -7.848  13.242  67.133  1.00  0.00    -0.047 C  
HETATM   24  C   UNL     1      -8.605  14.509  67.609  1.00  0.00    -0.184 C  
HETATM   25  C   UNL     1      -9.959  14.526  66.880  1.00  0.00    -0.259 A  
HETATM   26  C   UNL     1      -7.743  15.770  67.504  1.00  0.00    -0.186 A  
HETATM   27  C   UNL     1     -11.155  14.521  67.613  1.00  0.00    -0.314 A  
HETATM   28  C   UNL     1      -7.666  16.569  66.352  1.00  0.00    -0.294 A  
HETATM   29  C   UNL     1     -12.381  14.307  66.972  1.00  0.00    -0.203 A  
HETATM   30  C   UNL     1      -6.768  17.636  66.269  1.00  0.00    -0.317 A  
HETATM   31  C   UNL     1      -5.929  17.933  67.336  1.00  0.00    -0.161 A  
HETATM   32  C   UNL     1     -12.431  14.115  65.592  1.00  0.00    -0.490 A  
HETATM   33  C   UNL     1     -11.261  14.165  64.845  1.00  0.00    -0.373 A  
HETATM   34  C   UNL     1      -5.999  17.174  68.498  1.00  0.00    -0.147 A  
HETATM   35  C   UNL     1      -6.905  16.110  68.582  1.00  0.00    -0.131 A  
HETATM   36  C   UNL     1     -10.039  14.369  65.482  1.00  0.00    -0.382 A  
ENDBRANCH  22  23
ENDBRANCH  20  22
ENDBRANCH  16  20
ENDBRANCH  13  15
ENDBRANCH  11  13
BRANCH  12  37
HETATM   37  C   UNL     1      -9.747   8.685  68.331  1.00  0.00    -0.176 A  
HETATM   38  O   UNL     1     -10.125  10.020  64.425  1.00  0.00    -0.205 OA 
HETATM   39  C   UNL     1      -9.897   9.066  66.983  1.00  0.00    -0.270 A  
HETATM   40  O   UNL     1     -11.898  11.212  64.923  1.00  0.00     0.301 OA 
HETATM   41  C   UNL     1     -11.690  10.035  68.890  1.00  0.00     0.135 A  
HETATM   42  C   UNL     1     -10.901   9.969  66.612  1.00  0.00     0.012 A  
HETATM   43  N   UNL     1     -10.983  10.430  65.219  1.00  0.00     0.316 N  
HETATM   44  C   UNL     1     -11.803  10.452  67.563  1.00  0.00     1.118 A  
HETATM   45  C   UNL     1     -10.667   9.162  69.272  1.00  0.00    -0.199 A  
ENDBRANCH  12  37
ENDBRANCH   3   5
ENDBRANCH   2   3
TORSDOF 8
ENDMDL
MODEL      267
REMARK 921   NORMALIZED FREE ENERGY PREDICTED BY IDOCK:    2.51 KCAL/MOL
REMARK 922        TOTAL FREE ENERGY PREDICTED BY IDOCK:    1.77 KCAL/MOL
REMARK 923 INTER-LIGAND FREE ENERGY PREDICTED BY IDOCK:   -2.39 KCAL/MOL
REMARK 924 INTRA-LIGAND FREE ENERGY PREDICTED BY IDOCK:    4.16 KCAL/MOL
REMARK 927      BINDING AFFINITY PREDICTED BY RF-SCORE:    0.00 PKD
ROOT
HETATM    1  C   UNL     1      -8.195  18.283  65.082  1.00  0.00     2.261 C  
HETATM    2  O   UNL     1      -8.340  17.013  65.726  1.00  0.00    -0.500 OA 
ENDROOT
BRANCH   2   3
HETATM    3  C   UNL     1      -9.502  16.381  65.410  1.00  0.00     0.412 C  
HETATM    4  O   UNL     1     -10.337  16.824  64.637  1.00  0.00    -0.158 OA 
BRANCH   3   5
HETATM    5  C   UNL     1      -9.611  15.083  66.131  1.00  0.00    -0.345 C  
HETATM    6  C   UNL     1     -10.797  14.433  66.228  1.00  0.00    -0.313 C  
HETATM    7  N   UNL     1     -10.849  13.197  66.849  1.00  0.00    -0.263 NA 
HETATM    8  C   UNL     1     -12.148  14.903  65.743  1.00  0.00     0.004 C  
HETATM    9  C   UNL     1      -9.820  12.619  67.562  1.00  0.00    -0.203 C  
HETATM   10  C   UNL     1     -10.170  11.321  68.256  1.00  0.00    -0.198 C  
HETATM   11  C   UNL     1      -8.605  13.218  67.591  1.00  0.00    -0.196 C  
HETATM   12  C   UNL     1      -8.338  14.494  66.778  1.00  0.00    -0.041 C  
BRANCH  11  13
HETATM   13  C   UNL     1      -7.567  12.641  68.484  1.00  0.00    -0.121 C  
HETATM   14  O   UNL     1      -6.921  13.321  69.266  1.00  0.00    -0.079 OA 
BRANCH  13  15
HETATM   15  O   UNL     1      -7.505  11.292  68.387  1.00  0.00    -0.095 OA 
HETATM   16  C   UNL     1      -6.799   9.144  67.393  1.00  0.00    -0.077 C  
HETATM   17  C   UNL     1      -5.161  11.047  67.769  1.00  0.00    -0.039 C  
HETATM   18  C   UNL     1      -6.612  10.702  67.392  1.00  0.00    -0.071 C  
HETATM   19  C   UNL     1      -6.935  11.154  65.949  1.00  0.00     0.123 C  
BRANCH  16  20
HETATM   20  N   UNL     1      -6.494   8.379  68.630  1.00  0.00    -0.053 NA 
HETATM   21  C   UNL     1      -7.727   8.038  69.346  1.00  0.00    -0.104 C  
BRANCH  20  22
HETATM   22  C   UNL     1      -5.821   7.103  68.303  1.00  0.00    -0.022 C  
BRANCH  22  23
HETATM   23  C   UNL     1      -6.326   6.371  67.059  1.00  0.00    -0.041 C  
HETATM   24  C   UNL     1      -6.033   4.851  66.961  1.00  0.00    -0.027 C  
HETATM   25  C   UNL     1      -6.331   4.426  65.514  1.00  0.00    -0.035 A  
HETATM   26  C   UNL     1      -6.723   4.058  68.074  1.00  0.00    -0.047 A  
HETATM   27  C   UNL     1      -5.323   3.850  64.726  1.00  0.00    -0.009 A  
HETATM   28  C   UNL     1      -8.026   3.547  67.976  1.00  0.00    -0.075 A  
HETATM   29  C   UNL     1      -5.511   3.670  63.351  1.00  0.00    -0.009 A  
HETATM   30  C   UNL     1      -8.651   2.939  69.068  1.00  0.00    -0.115 A  
HETATM   31  C   UNL     1      -7.988   2.826  70.283  1.00  0.00    -0.051 A  
HETATM   32  C   UNL     1      -6.711   4.044  62.748  1.00  0.00    -0.031 A  
HETATM   33  C   UNL     1      -7.737   4.572  63.522  1.00  0.00    -0.074 A  
HETATM   34  C   UNL     1      -6.688   3.303  70.404  1.00  0.00    -0.033 A  
HETATM   35  C   UNL     1      -6.061   3.904  69.307  1.00  0.00    -0.027 A  
HETATM   36  C   UNL     1      -7.549   4.761  64.889  1.00  0.00    -0.077 A  
ENDBRANCH  22  23
ENDBRANCH  20  22
ENDBRANCH  16  20
ENDBRANCH  13  15
ENDBRANCH  11  13
BRANCH  12  37
HETATM   37  C   UNL     1      -7.596  15.536  67.620  1.00  0.00    -0.182 A  
HETATM   38  O   UNL     1      -9.483  19.013  68.855  1.00  0.00    -0.367 OA 
HETATM   39  C   UNL     1      -8.279  16.675  68.091  1.00  0.00    -0.192 A  
HETATM   40  O   UNL     1      -7.651  19.765  69.797  1.00  0.00    -0.069 OA 
HETATM   41  C   UNL     1      -5.556  16.386  68.632  1.00  0.00    -0.106 A  
HETATM   42  C   UNL     1      -7.585  17.681  68.774  1.00  0.00    -0.253 A  
HETATM   43  N   UNL     1      -8.292  18.906  69.174  1.00  0.00    -0.113 N  
HETATM   44  C   UNL     1      -6.223  17.538  69.051  1.00  0.00    -0.212 A  
HETATM   45  C   UNL     1      -6.235  15.395  67.918  1.00  0.00    -0.167 A  
ENDBRANCH  12  37
ENDBRANCH   3   5
ENDBRANCH   2   3
TORSDOF 8
ENDMDL
MODEL      268
REMARK 921   NORMALIZED FREE ENERGY PREDICTED BY IDOCK:    2.77 KCAL/MOL
REMARK 922        TOTAL FREE ENERGY PREDICTED BY IDOCK:    2.16 KCAL/MOL
REMARK 923 INTER-LIGAND FREE ENERGY PREDICTED BY IDOCK:   -2.70 KCAL/MOL
REMARK 924 INTRA-LIGAND FREE ENERGY PREDICTED BY IDOCK:    4.85 KCAL/MOL
REMARK 927      BINDING AFFINITY PREDICTED BY RF-SCORE:    0.00 PKD
ROOT
HETATM    1  C   UNL     1      -7.395  16.324  65.709  1.00  0.00     1.804 C  
HETATM    2  O   UNL     1      -6.088  16.908  65.713  1.00  0.00     0.168 OA 
ENDROOT
BRANCH   2   3
HETATM    3  C   UNL     1      -6.100  18.251  65.928  1.00  0.00    -0.224 C  
HETATM    4  O   UNL     1      -5.146  18.986  65.727  1.00  0.00    -0.133 OA 
BRANCH   3   5
HETATM    5  C   UNL     1      -7.427  18.694  66.434  1.00  0.00    -0.275 C  
HETATM    6  C   UNL     1      -8.058  19.769  65.900  1.00  0.00    -0.252 C  
HETATM    7  N   UNL     1      -9.320  20.114  66.350  1.00  0.00    -0.359 NA 
HETATM    8  C   UNL     1      -7.539  20.706  64.834  1.00  0.00     0.626 C  
HETATM    9  C   UNL     1      -9.950  19.569  67.449  1.00  0.00    -0.383 C  
HETATM   10  C   UNL     1     -11.272  20.208  67.813  1.00  0.00     0.560 C  
HETATM   11  C   UNL     1      -9.377  18.530  68.104  1.00  0.00    -0.336 C  
HETATM   12  C   UNL     1      -8.071  17.904  67.595  1.00  0.00    -0.224 C  
BRANCH  11  13
HETATM   13  C   UNL     1     -10.017  18.067  69.364  1.00  0.00     0.046 C  
HETATM   14  O   UNL     1      -9.867  18.647  70.428  1.00  0.00     1.248 OA 
BRANCH  13  15
HETATM   15  O   UNL     1     -10.836  17.009  69.160  1.00  0.00    -0.288 OA 
HETATM   16  C   UNL     1     -11.802  15.133  67.876  1.00  0.00    -0.170 C  
HETATM   17  C   UNL     1      -9.297  15.540  67.973  1.00  0.00    -0.193 C  
HETATM   18  C   UNL     1     -10.674  16.223  67.939  1.00  0.00    -0.329 C  
HETATM   19  C   UNL     1     -10.846  17.066  66.653  1.00  0.00     0.034 C  
BRANCH  16  20
HETATM   20  N   UNL     1     -11.872  14.103  68.945  1.00  0.00    -0.331 NA 
HETATM   21  C   UNL     1     -12.933  14.422  69.904  1.00  0.00     0.252 C  
BRANCH  20  22
HETATM   22  C   UNL     1     -12.194  12.777  68.373  1.00  0.00     0.081 C  
BRANCH  22  23
HETATM   23  C   UNL     1     -11.052  12.055  67.654  1.00  0.00    -0.319 C  
HETATM   24  C   UNL     1      -9.952  11.412  68.537  1.00  0.00    -0.203 C  
HETATM   25  C   UNL     1      -8.779  11.055  67.609  1.00  0.00    -0.128 A  
HETATM   26  C   UNL     1     -10.504  10.289  69.420  1.00  0.00    -0.259 A  
HETATM   27  C   UNL     1      -7.507  11.603  67.836  1.00  0.00    -0.105 A  
HETATM   28  C   UNL     1     -10.594   8.949  69.014  1.00  0.00    -0.203 A  
HETATM   29  C   UNL     1      -6.495  11.472  66.880  1.00  0.00    -0.144 A  
HETATM   30  C   UNL     1     -11.222   7.990  69.813  1.00  0.00     0.019 A  
HETATM   31  C   UNL     1     -11.771   8.347  71.039  1.00  0.00    -0.296 A  
HETATM   32  C   UNL     1      -6.731  10.779  65.693  1.00  0.00    -0.019 A  
HETATM   33  C   UNL     1      -7.970  10.190  65.472  1.00  0.00    -0.146 A  
HETATM   34  C   UNL     1     -11.676   9.663  71.477  1.00  0.00    -0.472 A  
HETATM   35  C   UNL     1     -11.041  10.620  70.679  1.00  0.00    -0.064 A  
HETATM   36  C   UNL     1      -8.982  10.327  66.420  1.00  0.00    -0.166 A  
ENDBRANCH  22  23
ENDBRANCH  20  22
ENDBRANCH  16  20
ENDBRANCH  13  15
ENDBRANCH  11  13
BRANCH  12  37
HETATM   37  C   UNL     1      -7.084  17.682  68.745  1.00  0.00    -0.263 A  
HETATM   38  O   UNL     1      -6.532  13.914  70.381  1.00  0.00    -0.085 OA 
HETATM   39  C   UNL     1      -6.858  16.381  69.236  1.00  0.00    -0.218 A  
HETATM   40  O   UNL     1      -5.133  14.687  71.884  1.00  0.00    -0.149 OA 
HETATM   41  C   UNL     1      -5.563  18.544  70.434  1.00  0.00    -0.212 A  
HETATM   42  C   UNL     1      -6.036  16.180  70.351  1.00  0.00    -0.001 A  
HETATM   43  N   UNL     1      -5.887  14.829  70.909  1.00  0.00    -0.133 N  
HETATM   44  C   UNL     1      -5.382  17.260  70.951  1.00  0.00    -0.158 A  
HETATM   45  C   UNL     1      -6.411  18.754  69.343  1.00  0.00    -0.293 A  
ENDBRANCH  12  37
ENDBRANCH   3   5
ENDBRANCH   2   3
TORSDOF 8
ENDMDL
MODEL      269
REMARK 921   NORMALIZED FREE ENERGY PREDICTED BY IDOCK:    3.08 KCAL/MOL
REMARK 922        TOTAL FREE ENERGY PREDICTED BY IDOCK:    2.61 KCAL/MOL
REMARK 923 INTER-LIGAND FREE ENERGY PREDICTED BY IDOCK:   -3.30 KCAL/MOL
REMARK 924 INTRA-LIGAND FREE ENERGY PREDICTED BY IDOCK:    5.92 KCAL/MOL
REMARK 927      BINDING AFFINITY PREDICTED BY RF-SCORE:    0.00 PKD
ROOT
HETATM    1  C   UNL     1     -12.113   9.499  72.497  1.00  0.00     0.402 C  
HETATM    2  O   UNL     1     -10.822   9.287  71.917  1.00  0.00    -0.351 OA 
ENDROOT
BRANCH   2   3
HETATM    3  C   UNL     1     -10.788   9.529  70.578  1.00  0.00    -0.292 C  
HETATM    4  O   UNL     1     -10.909  10.636  70.078  1.00  0.00    -0.274 OA 
BRANCH   3   5
HETATM    5  C   UNL     1     -10.580   8.267  69.818  1.00  0.00    -0.228 C  
HETATM    6  C   UNL     1     -11.561   7.335  69.724  1.00  0.00     0.084 C  
HETATM    7  N   UNL     1     -11.357   6.203  68.955  1.00  0.00    -0.282 NA 
HETATM    8  C   UNL     1     -12.915   7.353  70.395  1.00  0.00     0.565 C  
HETATM    9  C   UNL     1     -10.154   5.823  68.400  1.00  0.00    -0.170 C  
HETATM   10  C   UNL     1     -10.161   4.476  67.712  1.00  0.00    -0.060 C  
HETATM   11  C   UNL     1      -9.083   6.649  68.491  1.00  0.00    -0.128 C  
HETATM   12  C   UNL     1      -9.211   8.034  69.140  1.00  0.00    -0.151 C  
BRANCH  11  13
HETATM   13  C   UNL     1      -7.773   6.142  68.006  1.00  0.00    -0.102 C  
HETATM   14  O   UNL     1      -7.244   5.142  68.468  1.00  0.00    -0.060 OA 
BRANCH  13  15
HETATM   15  O   UNL     1      -7.307   6.857  66.955  1.00  0.00    -0.082 OA 
HETATM   16  C   UNL     1      -7.501   8.242  64.920  1.00  0.00    -0.092 C  
HETATM   17  C   UNL     1      -8.903   8.696  66.988  1.00  0.00    -0.143 C  
HETATM   18  C   UNL     1      -8.261   7.593  66.130  1.00  0.00    -0.124 C  
HETATM   19  C   UNL     1      -9.339   6.682  65.498  1.00  0.00     0.354 C  
BRANCH  16  20
HETATM   20  N   UNL     1      -6.433   9.239  65.188  1.00  0.00    -0.069 NA 
HETATM   21  C   UNL     1      -5.931   9.811  63.935  1.00  0.00    -0.112 C  
BRANCH  20  22
HETATM   22  C   UNL     1      -6.957  10.364  65.993  1.00  0.00    -0.129 C  
BRANCH  22  23
HETATM   23  C   UNL     1      -8.109  11.158  65.376  1.00  0.00     0.206 C  
HETATM   24  C   UNL     1      -9.083  11.871  66.350  1.00  0.00    -0.208 C  
HETATM   25  C   UNL     1     -10.308  12.303  65.529  1.00  0.00    -0.296 A  
HETATM   26  C   UNL     1      -8.383  12.954  67.176  1.00  0.00    -0.158 A  
HETATM   27  C   UNL     1     -11.587  11.838  65.871  1.00  0.00    -0.200 A  
HETATM   28  C   UNL     1      -8.243  14.286  66.757  1.00  0.00     0.114 A  
HETATM   29  C   UNL     1     -12.670  12.035  65.007  1.00  0.00     0.444 A  
HETATM   30  C   UNL     1      -7.486  15.202  67.493  1.00  0.00    -0.223 A  
HETATM   31  C   UNL     1      -6.854  14.809  68.666  1.00  0.00    -0.103 A  
HETATM   32  C   UNL     1     -12.496  12.713  63.801  1.00  0.00    -0.514 A  
HETATM   33  C   UNL     1     -11.247  13.221  63.469  1.00  0.00     0.003 A  
HETATM   34  C   UNL     1      -6.994  13.501  69.117  1.00  0.00    -0.055 A  
HETATM   35  C   UNL     1      -7.758  12.588  68.383  1.00  0.00    -0.136 A  
HETATM   36  C   UNL     1     -10.165  13.018  64.323  1.00  0.00    -0.316 A  
ENDBRANCH  22  23
ENDBRANCH  20  22
ENDBRANCH  16  20
ENDBRANCH  13  15
ENDBRANCH  11  13
BRANCH  12  37
HETATM   37  C   UNL     1      -8.050   8.299  70.103  1.00  0.00    -0.112 A  
HETATM   38  O   UNL     1      -8.722   8.807  74.161  1.00  0.00     0.041 OA 
HETATM   39  C   UNL     1      -8.293   8.395  71.488  1.00  0.00    -0.196 A  
HETATM   40  O   UNL     1      -6.599   9.207  74.541  1.00  0.00    -0.350 OA 
HETATM   41  C   UNL     1      -5.704   8.779  70.518  1.00  0.00    -0.027 A  
HETATM   42  C   UNL     1      -7.256   8.737  72.364  1.00  0.00     0.101 A  
HETATM   43  N   UNL     1      -7.546   8.927  73.792  1.00  0.00     0.237 N  
HETATM   44  C   UNL     1      -5.958   8.925  71.883  1.00  0.00    -0.069 A  
HETATM   45  C   UNL     1      -6.742   8.473  69.634  1.00  0.00    -0.040 A  
ENDBRANCH  12  37
ENDBRANCH   3   5
ENDBRANCH   2   3
TORSDOF 8
ENDMDL
MODEL      270
REMARK 921   NORMALIZED FREE ENERGY PREDICTED BY IDOCK:    3.75 KCAL/MOL
REMARK 922        TOTAL FREE ENERGY PREDICTED BY IDOCK:    3.59 KCAL/MOL
REMARK 923 INTER-LIGAND FREE ENERGY PREDICTED BY IDOCK:   -5.98 KCAL/MOL
REMARK 924 INTRA-LIGAND FREE ENERGY PREDICTED BY IDOCK:    9.57 KCAL/MOL
REMARK 927      BINDING AFFINITY PREDICTED BY RF-SCORE:    0.00 PKD
ROOT
HETATM    1  C   UNL     1      -8.139   4.783  70.253  1.00  0.00    -0.072 C  
HETATM    2  O   UNL     1      -8.249   4.142  68.978  1.00  0.00    -0.070 OA 
ENDROOT
BRANCH   2   3
HETATM    3  C   UNL     1      -8.864   4.912  68.040  1.00  0.00    -0.104 C  
HETATM    4  O   UNL     1      -9.989   4.706  67.612  1.00  0.00    -0.160 OA 
BRANCH   3   5
HETATM    5  C   UNL     1      -7.981   6.032  67.614  1.00  0.00    -0.102 C  
HETATM    6  C   UNL     1      -6.890   5.810  66.841  1.00  0.00    -0.063 C  
HETATM    7  N   UNL     1      -6.129   6.881  66.409  1.00  0.00    -0.033 NA 
HETATM    8  C   UNL     1      -6.348   4.479  66.373  1.00  0.00    -0.033 C  
HETATM    9  C   UNL     1      -6.264   8.182  66.847  1.00  0.00    -0.055 C  
HETATM   10  C   UNL     1      -5.224   9.148  66.321  1.00  0.00    -0.036 C  
HETATM   11  C   UNL     1      -7.282   8.507  67.679  1.00  0.00    -0.084 C  
HETATM   12  C   UNL     1      -8.332   7.462  68.083  1.00  0.00    -0.124 C  
BRANCH  11  13
HETATM   13  C   UNL     1      -7.309   9.884  68.239  1.00  0.00    -0.079 C  
HETATM   14  O   UNL     1      -6.637  10.214  69.204  1.00  0.00    -0.050 OA 
BRANCH  13  15
HETATM   15  O   UNL     1      -8.078  10.719  67.502  1.00  0.00    -0.110 OA 
HETATM   16  C   UNL     1      -9.580  11.329  65.639  1.00  0.00    -0.229 C  
HETATM   17  C   UNL     1      -9.929   9.216  67.003  1.00  0.00    -0.294 C  
HETATM   18  C   UNL     1      -8.871  10.160  66.409  1.00  0.00    -0.143 C  
HETATM   19  C   UNL     1      -8.009   9.434  65.350  1.00  0.00    -0.105 C  
BRANCH  16  20
HETATM   20  N   UNL     1     -10.549  12.191  66.364  1.00  0.00    -0.235 NA 
HETATM   21  C   UNL     1     -11.909  11.659  66.242  1.00  0.00     0.269 C  
BRANCH  20  22
HETATM   22  C   UNL     1     -10.232  12.233  67.808  1.00  0.00    -0.202 C  
BRANCH  22  23
HETATM   23  C   UNL     1      -9.326  13.377  68.268  1.00  0.00    -0.205 C  
HETATM   24  C   UNL     1      -8.583  14.180  67.168  1.00  0.00    -0.230 C  
HETATM   25  C   UNL     1      -7.509  15.025  67.873  1.00  0.00    -0.150 A  
HETATM   26  C   UNL     1      -9.552  14.921  66.242  1.00  0.00    -0.334 A  
HETATM   27  C   UNL     1      -6.156  14.868  67.538  1.00  0.00    -0.002 A  
HETATM   28  C   UNL     1     -10.035  16.214  66.492  1.00  0.00    -0.293 A  
HETATM   29  C   UNL     1      -5.156  15.456  68.321  1.00  0.00    -0.106 A  
HETATM   30  C   UNL     1     -11.013  16.793  65.678  1.00  0.00     0.004 A  
HETATM   31  C   UNL     1     -11.529  16.093  64.594  1.00  0.00    -0.225 A  
HETATM   32  C   UNL     1      -5.493  16.221  69.437  1.00  0.00    -0.127 A  
HETATM   33  C   UNL     1      -6.830  16.426  69.755  1.00  0.00     0.008 A  
HETATM   34  C   UNL     1     -11.052  14.819  64.309  1.00  0.00     0.039 A  
HETATM   35  C   UNL     1     -10.067  14.245  65.120  1.00  0.00    -0.353 A  
HETATM   36  C   UNL     1      -7.826  15.834  68.982  1.00  0.00    -0.206 A  
ENDBRANCH  22  23
ENDBRANCH  20  22
ENDBRANCH  16  20
ENDBRANCH  13  15
ENDBRANCH  11  13
BRANCH  12  37
HETATM   37  C   UNL     1      -8.606   7.513  69.589  1.00  0.00    -0.136 A  
HETATM   38  O   UNL     1     -12.473   7.871  71.039  1.00  0.00    -0.245 OA 
HETATM   39  C   UNL     1      -9.933   7.560  70.060  1.00  0.00    -0.186 A  
HETATM   40  O   UNL     1     -11.768   7.960  73.114  1.00  0.00    -0.264 OA 
HETATM   41  C   UNL     1      -7.824   7.649  71.886  1.00  0.00    -0.096 A  
HETATM   42  C   UNL     1     -10.191   7.709  71.429  1.00  0.00    -0.185 A  
HETATM   43  N   UNL     1     -11.577   7.853  71.894  1.00  0.00    -0.277 N  
HETATM   44  C   UNL     1      -9.138   7.749  72.346  1.00  0.00    -0.208 A  
HETATM   45  C   UNL     1      -7.559   7.536  70.518  1.00  0.00    -0.085 A  
ENDBRANCH  12  37
ENDBRANCH   3   5
ENDBRANCH   2   3
TORSDOF 8
ENDMDL
MODEL      271
REMARK 921   NORMALIZED FREE ENERGY PREDICTED BY IDOCK:    3.86 KCAL/MOL
REMARK 922        TOTAL FREE ENERGY PREDICTED BY IDOCK:    3.75 KCAL/MOL
REMARK 923 INTER-LIGAND FREE ENERGY PREDICTED BY IDOCK:   -4.51 KCAL/MOL
REMARK 924 INTRA-LIGAND FREE ENERGY PREDICTED BY IDOCK:    8.26 KCAL/MOL
REMARK 927      BINDING AFFINITY PREDICTED BY RF-SCORE:    0.00 PKD
ROOT
HETATM    1  C   UNL     1     -11.004  10.373  64.772  1.00  0.00     0.867 C  
HETATM    2  O   UNL     1      -9.743  10.972  64.459  1.00  0.00    -0.235 OA 
ENDROOT
BRANCH   2   3
HETATM    3  C   UNL     1      -9.653  12.272  64.850  1.00  0.00     0.069 C  
HETATM    4  O   UNL     1     -10.157  13.206  64.247  1.00  0.00    -0.343 OA 
BRANCH   3   5
HETATM    5  C   UNL     1      -8.866  12.393  66.107  1.00  0.00     0.108 C  
HETATM    6  C   UNL     1      -8.682  13.595  66.706  1.00  0.00    -0.082 C  
HETATM    7  N   UNL     1      -8.000  13.662  67.908  1.00  0.00    -0.145 NA 
HETATM    8  C   UNL     1      -9.128  14.950  66.208  1.00  0.00    -0.262 C  
HETATM    9  C   UNL     1      -7.307  12.622  68.490  1.00  0.00    -0.115 C  
HETATM   10  C   UNL     1      -6.535  12.985  69.740  1.00  0.00    -0.005 C  
HETATM   11  C   UNL     1      -7.364  11.386  67.938  1.00  0.00    -0.093 C  
HETATM   12  C   UNL     1      -8.249  11.112  66.713  1.00  0.00    -0.154 C  
BRANCH  11  13
HETATM   13  C   UNL     1      -6.492  10.328  68.512  1.00  0.00    -0.052 C  
HETATM   14  O   UNL     1      -5.392  10.062  68.051  1.00  0.00    -0.039 OA 
BRANCH  13  15
HETATM   15  O   UNL     1      -7.021   9.784  69.632  1.00  0.00    -0.061 OA 
HETATM   16  C   UNL     1      -8.494   8.271  70.912  1.00  0.00    -0.132 C  
HETATM   17  C   UNL     1      -7.140   7.456  68.925  1.00  0.00    -0.080 C  
HETATM   18  C   UNL     1      -7.927   8.646  69.498  1.00  0.00    -0.097 C  
HETATM   19  C   UNL     1      -9.167   8.963  68.630  1.00  0.00    -0.137 C  
BRANCH  16  20
HETATM   20  N   UNL     1      -7.552   7.840  71.978  1.00  0.00    -0.076 NA 
HETATM   21  C   UNL     1      -8.275   7.531  73.216  1.00  0.00    -0.125 C  
BRANCH  20  22
HETATM   22  C   UNL     1      -6.838   6.608  71.579  1.00  0.00    -0.066 C  
BRANCH  22  23
HETATM   23  C   UNL     1      -7.537   5.728  70.540  1.00  0.00    -0.090 C  
HETATM   24  C   UNL     1      -8.725   4.859  71.029  1.00  0.00    -0.143 C  
HETATM   25  C   UNL     1      -9.030   3.844  69.915  1.00  0.00    -0.162 A  
HETATM   26  C   UNL     1      -9.893   5.711  71.533  1.00  0.00    -0.213 A  
HETATM   27  C   UNL     1      -8.966   2.468  70.177  1.00  0.00    -0.160 A  
HETATM   28  C   UNL     1     -10.923   6.188  70.708  1.00  0.00    -0.365 A  
HETATM   29  C   UNL     1      -9.016   1.541  69.129  1.00  0.00    -0.133 A  
HETATM   30  C   UNL     1     -11.896   7.065  71.197  1.00  0.00    -0.380 A  
HETATM   31  C   UNL     1     -11.864   7.481  72.522  1.00  0.00    -0.266 A  
HETATM   32  C   UNL     1      -9.150   1.974  67.811  1.00  0.00    -0.209 A  
HETATM   33  C   UNL     1      -9.263   3.331  67.538  1.00  0.00    -0.233 A  
HETATM   34  C   UNL     1     -10.868   7.006  73.368  1.00  0.00    -0.332 A  
HETATM   35  C   UNL     1      -9.900   6.123  72.879  1.00  0.00    -0.174 A  
HETATM   36  C   UNL     1      -9.204   4.256  68.578  1.00  0.00    -0.194 A  
ENDBRANCH  22  23
ENDBRANCH  20  22
ENDBRANCH  16  20
ENDBRANCH  13  15
ENDBRANCH  11  13
BRANCH  12  37
HETATM   37  C   UNL     1      -7.495  10.294  65.661  1.00  0.00    -0.149 A  
HETATM   38  O   UNL     1      -7.564   6.150  65.733  1.00  0.00    -0.080 OA 
HETATM   39  C   UNL     1      -7.593   8.889  65.661  1.00  0.00    -0.086 A  
HETATM   40  O   UNL     1      -6.195   6.021  64.024  1.00  0.00    -0.028 OA 
HETATM   41  C   UNL     1      -5.948  10.150  63.791  1.00  0.00    -0.140 A  
HETATM   42  C   UNL     1      -6.827   8.128  64.768  1.00  0.00    -0.067 A  
HETATM   43  N   UNL     1      -6.868   6.662  64.845  1.00  0.00    -0.049 N  
HETATM   44  C   UNL     1      -6.007   8.756  63.828  1.00  0.00    -0.072 A  
HETATM   45  C   UNL     1      -6.682  10.914  64.704  1.00  0.00     0.473 A  
ENDBRANCH  12  37
ENDBRANCH   3   5
ENDBRANCH   2   3
TORSDOF 8
ENDMDL
MODEL      272
REMARK 921   NORMALIZED FREE ENERGY PREDICTED BY IDOCK:    3.87 KCAL/MOL
REMARK 922        TOTAL FREE ENERGY PREDICTED BY IDOCK:    3.76 KCAL/MOL
REMARK 923 INTER-LIGAND FREE ENERGY PREDICTED BY IDOCK:   -4.81 KCAL/MOL
REMARK 924 INTRA-LIGAND FREE ENERGY PREDICTED BY IDOCK:    8.57 KCAL/MOL
REMARK 927      BINDING AFFINITY PREDICTED BY RF-SCORE:    0.00 PKD
ROOT
HETATM    1  C   UNL     1     -10.680   4.904  66.636  1.00  0.00    -0.003 C  
HETATM    2  O   UNL     1     -10.479   3.863  67.598  1.00  0.00     0.582 OA 
ENDROOT
BRANCH   2   3
HETATM    3  C   UNL     1      -9.203   3.392  67.622  1.00  0.00    -0.190 C  
HETATM    4  O   UNL     1      -8.909   2.212  67.738  1.00  0.00    -0.104 OA 
BRANCH   3   5
HETATM    5  C   UNL     1      -8.225   4.505  67.484  1.00  0.00    -0.100 C  
HETATM    6  C   UNL     1      -6.921   4.262  67.202  1.00  0.00    -0.060 C  
HETATM    7  N   UNL     1      -6.053   5.323  67.017  1.00  0.00    -0.029 NA 
HETATM    8  C   UNL     1      -6.242   2.918  67.074  1.00  0.00    -0.028 C  
HETATM    9  C   UNL     1      -6.345   6.646  67.275  1.00  0.00    -0.037 C  
HETATM   10  C   UNL     1      -5.183   7.602  67.116  1.00  0.00    -0.030 C  
HETATM   11  C   UNL     1      -7.604   6.997  67.631  1.00  0.00    -0.110 C  
HETATM   12  C   UNL     1      -8.728   5.952  67.679  1.00  0.00    -0.104 C  
BRANCH  11  13
HETATM   13  C   UNL     1      -7.842   8.407  68.037  1.00  0.00    -0.111 C  
HETATM   14  O   UNL     1      -7.768   8.778  69.199  1.00  0.00    -0.089 OA 
BRANCH  13  15
HETATM   15  O   UNL     1      -8.050   9.216  66.972  1.00  0.00    -0.108 OA 
HETATM   16  C   UNL     1      -8.388   9.737  64.582  1.00  0.00    -0.162 C  
HETATM   17  C   UNL     1      -9.618   7.832  65.723  1.00  0.00     0.264 C  
HETATM   18  C   UNL     1      -8.291   8.607  65.665  1.00  0.00    -0.145 C  
HETATM   19  C   UNL     1      -7.132   7.693  65.204  1.00  0.00    -0.060 C  
BRANCH  16  20
HETATM   20  N   UNL     1      -9.464  10.756  64.692  1.00  0.00    -0.232 NA 
HETATM   21  C   UNL     1     -10.768  10.115  64.889  1.00  0.00     0.760 C  
BRANCH  20  22
HETATM   22  C   UNL     1      -9.236  11.633  65.862  1.00  0.00    -0.196 C  
BRANCH  22  23
HETATM   23  C   UNL     1     -10.234  11.497  67.013  1.00  0.00    -0.244 C  
HETATM   24  C   UNL     1      -9.730  11.855  68.435  1.00  0.00    -0.201 C  
HETATM   25  C   UNL     1     -10.777  11.330  69.431  1.00  0.00    -0.188 A  
HETATM   26  C   UNL     1      -9.338  13.330  68.554  1.00  0.00    -0.091 A  
HETATM   27  C   UNL     1     -10.412  10.397  70.414  1.00  0.00    -0.018 A  
HETATM   28  C   UNL     1     -10.236  14.351  68.900  1.00  0.00    -0.215 A  
HETATM   29  C   UNL     1     -11.389   9.744  71.173  1.00  0.00    -0.459 A  
HETATM   30  C   UNL     1      -9.853  15.695  68.871  1.00  0.00    -0.219 A  
HETATM   31  C   UNL     1      -8.562  16.049  68.498  1.00  0.00    -0.190 A  
HETATM   32  C   UNL     1     -12.740  10.024  70.975  1.00  0.00    -0.455 A  
HETATM   33  C   UNL     1     -13.117  10.979  70.040  1.00  0.00     0.245 A  
HETATM   34  C   UNL     1      -7.644  15.057  68.173  1.00  0.00    -0.113 A  
HETATM   35  C   UNL     1      -8.028  13.712  68.210  1.00  0.00    -0.150 A  
HETATM   36  C   UNL     1     -12.146  11.625  69.276  1.00  0.00    -0.323 A  
ENDBRANCH  22  23
ENDBRANCH  20  22
ENDBRANCH  16  20
ENDBRANCH  13  15
ENDBRANCH  11  13
BRANCH  12  37
HETATM   37  C   UNL     1      -9.557   6.097  68.959  1.00  0.00    -0.144 A  
HETATM   38  O   UNL     1      -8.290   4.395  72.520  1.00  0.00    -0.105 OA 
HETATM   39  C   UNL     1      -9.071   5.573  70.174  1.00  0.00    -0.162 A  
HETATM   40  O   UNL     1     -10.104   5.048  73.567  1.00  0.00    -0.151 OA 
HETATM   41  C   UNL     1     -11.583   6.789  70.110  1.00  0.00    -0.397 A  
HETATM   42  C   UNL     1      -9.865   5.611  71.326  1.00  0.00    -0.175 A  
HETATM   43  N   UNL     1      -9.383   4.976  72.560  1.00  0.00    -0.132 N  
HETATM   44  C   UNL     1     -11.121   6.222  71.299  1.00  0.00    -0.345 A  
HETATM   45  C   UNL     1     -10.809   6.722  68.948  1.00  0.00    -0.288 A  
ENDBRANCH  12  37
ENDBRANCH   3   5
ENDBRANCH   2   3
TORSDOF 8
ENDMDL
MODEL      273
REMARK 921   NORMALIZED FREE ENERGY PREDICTED BY IDOCK:    4.00 KCAL/MOL
REMARK 922        TOTAL FREE ENERGY PREDICTED BY IDOCK:    3.96 KCAL/MOL
REMARK 923 INTER-LIGAND FREE ENERGY PREDICTED BY IDOCK:   -1.54 KCAL/MOL
REMARK 924 INTRA-LIGAND FREE ENERGY PREDICTED BY IDOCK:    5.50 KCAL/MOL
REMARK 927      BINDING AFFINITY PREDICTED BY RF-SCORE:    0.00 PKD
ROOT
HETATM    1  C   UNL     1      -7.322  16.339  65.704  1.00  0.00     2.371 C  
HETATM    2  O   UNL     1      -6.050  16.992  65.787  1.00  0.00     0.041 OA 
ENDROOT
BRANCH   2   3
HETATM    3  C   UNL     1      -6.147  18.330  66.012  1.00  0.00    -0.212 C  
HETATM    4  O   UNL     1      -5.233  19.122  65.845  1.00  0.00    -0.145 OA 
BRANCH   3   5
HETATM    5  C   UNL     1      -7.512  18.690  66.484  1.00  0.00    -0.267 C  
HETATM    6  C   UNL     1      -8.187  19.736  65.946  1.00  0.00    -0.223 C  
HETATM    7  N   UNL     1      -9.479  20.002  66.363  1.00  0.00    -0.404 NA 
HETATM    8  C   UNL     1      -7.691  20.717  64.910  1.00  0.00     0.861 C  
HETATM    9  C   UNL     1     -10.109  19.405  67.435  1.00  0.00    -0.398 C  
HETATM   10  C   UNL     1     -11.476  19.963  67.768  1.00  0.00     0.885 C  
HETATM   11  C   UNL     1      -9.498  18.390  68.092  1.00  0.00    -0.327 C  
HETATM   12  C   UNL     1      -8.144  17.847  67.614  1.00  0.00    -0.224 C  
BRANCH  11  13
HETATM   13  C   UNL     1     -10.147  17.872  69.325  1.00  0.00    -0.111 C  
HETATM   14  O   UNL     1     -10.085  18.457  70.395  1.00  0.00     1.146 OA 
BRANCH  13  15
HETATM   15  O   UNL     1     -10.870  16.752  69.088  1.00  0.00    -0.324 OA 
HETATM   16  C   UNL     1     -11.483  14.692  67.873  1.00  0.00    -0.329 C  
HETATM   17  C   UNL     1      -9.070  15.247  68.435  1.00  0.00    -0.189 C  
HETATM   18  C   UNL     1     -10.429  15.843  68.033  1.00  0.00    -0.274 C  
HETATM   19  C   UNL     1     -10.350  16.523  66.646  1.00  0.00    -0.298 C  
BRANCH  16  20
HETATM   20  N   UNL     1     -11.746  13.787  69.022  1.00  0.00    -0.307 NA 
HETATM   21  C   UNL     1     -12.866  14.283  69.827  1.00  0.00     0.199 C  
BRANCH  20  22
HETATM   22  C   UNL     1     -12.121  12.436  68.550  1.00  0.00    -0.075 C  
BRANCH  22  23
HETATM   23  C   UNL     1     -11.568  11.260  69.357  1.00  0.00    -0.390 C  
HETATM   24  C   UNL     1     -10.464  10.399  68.691  1.00  0.00    -0.216 C  
HETATM   25  C   UNL     1     -10.319   9.120  69.534  1.00  0.00    -0.220 A  
HETATM   26  C   UNL     1      -9.188  11.202  68.423  1.00  0.00    -0.175 A  
HETATM   27  C   UNL     1     -10.525   7.862  68.949  1.00  0.00    -0.205 A  
HETATM   28  C   UNL     1      -8.147  11.347  69.352  1.00  0.00     0.311 A  
HETATM   29  C   UNL     1     -10.621   6.715  69.744  1.00  0.00    -0.270 A  
HETATM   30  C   UNL     1      -7.064  12.194  69.102  1.00  0.00    -0.015 A  
HETATM   31  C   UNL     1      -6.994  12.913  67.915  1.00  0.00    -0.122 A  
HETATM   32  C   UNL     1     -10.495   6.805  71.129  1.00  0.00    -0.239 A  
HETATM   33  C   UNL     1     -10.244   8.036  71.722  1.00  0.00    -0.260 A  
HETATM   34  C   UNL     1      -8.000  12.771  66.966  1.00  0.00    -0.045 A  
HETATM   35  C   UNL     1      -9.080  11.917  67.215  1.00  0.00    -0.178 A  
HETATM   36  C   UNL     1     -10.157   9.181  70.932  1.00  0.00    -0.356 A  
ENDBRANCH  22  23
ENDBRANCH  20  22
ENDBRANCH  16  20
ENDBRANCH  13  15
ENDBRANCH  11  13
BRANCH  12  37
HETATM   37  C   UNL     1      -7.180  17.662  68.790  1.00  0.00    -0.268 A  
HETATM   38  O   UNL     1      -6.682  20.645  71.625  1.00  0.00    -0.335 OA 
HETATM   39  C   UNL     1      -7.082  18.659  69.781  1.00  0.00     0.237 A  
HETATM   40  O   UNL     1      -5.142  19.493  72.679  1.00  0.00     0.071 OA 
HETATM   41  C   UNL     1      -5.447  16.402  69.937  1.00  0.00    -0.166 A  
HETATM   42  C   UNL     1      -6.132  18.545  70.804  1.00  0.00     0.390 A  
HETATM   43  N   UNL     1      -5.978  19.638  71.774  1.00  0.00    -0.164 N  
HETATM   44  C   UNL     1      -5.315  17.415  70.888  1.00  0.00    -0.168 A  
HETATM   45  C   UNL     1      -6.368  16.526  68.894  1.00  0.00    -0.157 A  
ENDBRANCH  12  37
ENDBRANCH   3   5
ENDBRANCH   2   3
TORSDOF 8
ENDMDL
MODEL      274
REMARK 921   NORMALIZED FREE ENERGY PREDICTED BY IDOCK:    4.03 KCAL/MOL
REMARK 922        TOTAL FREE ENERGY PREDICTED BY IDOCK:    4.00 KCAL/MOL
REMARK 923 INTER-LIGAND FREE ENERGY PREDICTED BY IDOCK:    4.05 KCAL/MOL
REMARK 924 INTRA-LIGAND FREE ENERGY PREDICTED BY IDOCK:   -0.04 KCAL/MOL
REMARK 927      BINDING AFFINITY PREDICTED BY RF-SCORE:    0.00 PKD
ROOT
HETATM    1  C   UNL     1      -9.399  11.713  70.569  1.00  0.00     4.916 C  
HETATM    2  O   UNL     1      -8.112  11.209  70.195  1.00  0.00     0.733 OA 
ENDROOT
BRANCH   2   3
HETATM    3  C   UNL     1      -8.109   9.871  69.954  1.00  0.00    -0.188 C  
HETATM    4  O   UNL     1      -8.496   9.029  70.750  1.00  0.00    -0.165 OA 
BRANCH   3   5
HETATM    5  C   UNL     1      -7.574   9.579  68.596  1.00  0.00    -0.080 C  
HETATM    6  C   UNL     1      -6.245   9.645  68.337  1.00  0.00    -0.047 C  
HETATM    7  N   UNL     1      -5.776   9.303  67.081  1.00  0.00    -0.044 NA 
HETATM    8  C   UNL     1      -5.144  10.081  69.275  1.00  0.00    -0.035 C  
HETATM    9  C   UNL     1      -6.564   9.068  65.973  1.00  0.00    -0.065 C  
HETATM   10  C   UNL     1      -5.806   8.841  64.683  1.00  0.00    -0.064 C  
HETATM   11  C   UNL     1      -7.912   9.046  66.102  1.00  0.00    -0.103 C  
HETATM   12  C   UNL     1      -8.574   9.205  67.479  1.00  0.00    -0.116 C  
BRANCH  11  13
HETATM   13  C   UNL     1      -8.726   8.931  64.863  1.00  0.00    -0.149 C  
HETATM   14  O   UNL     1      -8.744   9.802  64.007  1.00  0.00    -0.183 OA 
BRANCH  13  15
HETATM   15  O   UNL     1      -9.347   7.732  64.771  1.00  0.00     0.842 OA 
HETATM   16  C   UNL     1      -9.465   5.281  64.499  1.00  0.00     0.430 C  
HETATM   17  C   UNL     1      -7.785   6.375  66.056  1.00  0.00    -0.093 C  
HETATM   18  C   UNL     1      -8.531   6.522  64.719  1.00  0.00     0.062 C  
HETATM   19  C   UNL     1      -7.545   6.511  63.528  1.00  0.00    -0.092 C  
BRANCH  16  20
HETATM   20  N   UNL     1     -10.496   4.960  65.520  1.00  0.00    -0.107 NA 
HETATM   21  C   UNL     1     -11.356   3.865  65.063  1.00  0.00     1.083 C  
BRANCH  20  22
HETATM   22  C   UNL     1      -9.863   4.512  66.779  1.00  0.00    -0.221 C  
BRANCH  22  23
HETATM   23  C   UNL     1     -10.212   5.315  68.034  1.00  0.00    -0.204 C  
HETATM   24  C   UNL     1      -9.492   4.924  69.351  1.00  0.00    -0.218 C  
HETATM   25  C   UNL     1     -10.237   5.625  70.498  1.00  0.00    -0.297 A  
HETATM   26  C   UNL     1      -7.979   5.144  69.268  1.00  0.00    -0.080 A  
HETATM   27  C   UNL     1     -10.808   4.871  71.534  1.00  0.00     0.043 A  
HETATM   28  C   UNL     1      -7.348   6.355  69.590  1.00  0.00    -0.080 A  
HETATM   29  C   UNL     1     -11.676   5.469  72.455  1.00  0.00    -0.182 A  
HETATM   30  C   UNL     1      -5.979   6.539  69.376  1.00  0.00    -0.022 A  
HETATM   31  C   UNL     1      -5.209   5.515  68.839  1.00  0.00     0.000 A  
HETATM   32  C   UNL     1     -11.971   6.829  72.365  1.00  0.00    -0.171 A  
HETATM   33  C   UNL     1     -11.377   7.600  71.375  1.00  0.00    -0.285 A  
HETATM   34  C   UNL     1      -5.803   4.297  68.531  1.00  0.00    -0.025 A  
HETATM   35  C   UNL     1      -7.172   4.112  68.753  1.00  0.00    -0.055 A  
HETATM   36  C   UNL     1     -10.520   7.005  70.452  1.00  0.00    -0.225 A  
ENDBRANCH  22  23
ENDBRANCH  20  22
ENDBRANCH  16  20
ENDBRANCH  13  15
ENDBRANCH  11  13
BRANCH  12  37
HETATM   37  C   UNL     1      -9.745  10.190  67.415  1.00  0.00    -0.192 A  
HETATM   38  O   UNL     1      -9.097  14.236  66.792  1.00  0.00    -0.249 OA 
HETATM   39  C   UNL     1      -9.507  11.548  67.128  1.00  0.00    -0.186 A  
HETATM   40  O   UNL     1     -11.236  14.686  66.981  1.00  0.00    -0.324 OA 
HETATM   41  C   UNL     1     -12.110  10.694  67.660  1.00  0.00     1.352 A  
HETATM   42  C   UNL     1     -10.558  12.472  67.167  1.00  0.00    -0.228 A  
HETATM   43  N   UNL     1     -10.277  13.900  66.961  1.00  0.00    -0.252 N  
HETATM   44  C   UNL     1     -11.863  12.048  67.429  1.00  0.00    -0.268 A  
HETATM   45  C   UNL     1     -11.059   9.772  67.658  1.00  0.00    -0.118 A  
ENDBRANCH  12  37
ENDBRANCH   3   5
ENDBRANCH   2   3
TORSDOF 8
ENDMDL
MODEL      275
REMARK 921   NORMALIZED FREE ENERGY PREDICTED BY IDOCK:    4.68 KCAL/MOL
REMARK 922        TOTAL FREE ENERGY PREDICTED BY IDOCK:    4.96 KCAL/MOL
REMARK 923 INTER-LIGAND FREE ENERGY PREDICTED BY IDOCK:    1.65 KCAL/MOL
REMARK 924 INTRA-LIGAND FREE ENERGY PREDICTED BY IDOCK:    3.31 KCAL/MOL
REMARK 927      BINDING AFFINITY PREDICTED BY RF-SCORE:    0.00 PKD
ROOT
HETATM    1  C   UNL     1      -7.787   3.136  64.765  1.00  0.00    -0.078 C  
HETATM    2  O   UNL     1      -7.875   4.564  64.718  1.00  0.00    -0.083 OA 
ENDROOT
BRANCH   2   3
HETATM    3  C   UNL     1      -9.130   5.033  64.954  1.00  0.00    -0.077 C  
HETATM    4  O   UNL     1     -10.100   4.321  65.167  1.00  0.00    -0.203 OA 
BRANCH   3   5
HETATM    5  C   UNL     1      -9.154   6.520  64.920  1.00  0.00     0.607 C  
HETATM    6  C   UNL     1      -8.677   7.205  63.851  1.00  0.00     0.715 C  
HETATM    7  N   UNL     1      -8.775   8.585  63.825  1.00  0.00     0.076 NA 
HETATM    8  C   UNL     1      -7.998   6.641  62.625  1.00  0.00    -0.095 C  
HETATM    9  C   UNL     1      -9.157   9.377  64.887  1.00  0.00    -0.202 C  
HETATM   10  C   UNL     1      -9.057  10.867  64.645  1.00  0.00    -0.189 C  
HETATM   11  C   UNL     1      -9.590   8.799  66.033  1.00  0.00    -0.297 C  
HETATM   12  C   UNL     1      -9.730   7.273  66.140  1.00  0.00     0.029 C  
BRANCH  11  13
HETATM   13  C   UNL     1      -9.855   9.682  67.199  1.00  0.00    -0.186 C  
HETATM   14  O   UNL     1      -9.844   9.272  68.350  1.00  0.00    -0.148 OA 
BRANCH  13  15
HETATM   15  O   UNL     1     -10.012  10.976  66.832  1.00  0.00    -0.187 OA 
HETATM   16  C   UNL     1     -11.289  13.036  66.363  1.00  0.00    -0.317 C  
HETATM   17  C   UNL     1     -11.719  11.639  68.438  1.00  0.00    -0.374 C  
HETATM   18  C   UNL     1     -11.336  11.582  66.950  1.00  0.00    -0.253 C  
HETATM   19  C   UNL     1     -12.413  10.840  66.126  1.00  0.00     4.788 C  
BRANCH  16  20
HETATM   20  N   UNL     1     -10.390  14.041  66.988  1.00  0.00    -0.266 NA 
HETATM   21  C   UNL     1     -10.985  15.379  66.925  1.00  0.00    -0.294 C  
BRANCH  20  22
HETATM   22  C   UNL     1     -10.176  13.733  68.419  1.00  0.00    -0.248 C  
BRANCH  22  23
HETATM   23  C   UNL     1      -8.867  13.022  68.769  1.00  0.00     0.174 C  
HETATM   24  C   UNL     1      -7.773  12.970  67.671  1.00  0.00    -0.161 C  
HETATM   25  C   UNL     1      -6.723  11.944  68.129  1.00  0.00    -0.062 A  
HETATM   26  C   UNL     1      -7.264  14.364  67.297  1.00  0.00    -0.030 A  
HETATM   27  C   UNL     1      -6.435  10.825  67.333  1.00  0.00    -0.063 A  
HETATM   28  C   UNL     1      -6.205  15.011  67.953  1.00  0.00    -0.174 A  
HETATM   29  C   UNL     1      -5.659   9.775  67.836  1.00  0.00    -0.040 A  
HETATM   30  C   UNL     1      -5.865  16.332  67.653  1.00  0.00    -0.169 A  
HETATM   31  C   UNL     1      -6.572  17.038  66.687  1.00  0.00    -0.272 A  
HETATM   32  C   UNL     1      -5.146   9.835  69.131  1.00  0.00    -0.036 A  
HETATM   33  C   UNL     1      -5.381  10.956  69.916  1.00  0.00    -0.046 A  
HETATM   34  C   UNL     1      -7.611  16.416  66.005  1.00  0.00     0.380 A  
HETATM   35  C   UNL     1      -7.945  15.090  66.302  1.00  0.00     0.916 A  
HETATM   36  C   UNL     1      -6.161  11.999  69.420  1.00  0.00    -0.109 A  
ENDBRANCH  22  23
ENDBRANCH  20  22
ENDBRANCH  16  20
ENDBRANCH  13  15
ENDBRANCH  11  13
BRANCH  12  37
HETATM   37  C   UNL     1      -9.139   6.757  67.455  1.00  0.00    -0.117 A  
HETATM   38  O   UNL     1     -11.460   6.498  70.879  1.00  0.00    -0.312 OA 
HETATM   39  C   UNL     1      -9.964   6.608  68.587  1.00  0.00    -0.151 A  
HETATM   40  O   UNL     1      -9.753   5.820  72.078  1.00  0.00    -0.154 OA 
HETATM   41  C   UNL     1      -7.239   6.042  68.792  1.00  0.00    -0.083 A  
HETATM   42  C   UNL     1      -9.413   6.234  69.818  1.00  0.00    -0.151 A  
HETATM   43  N   UNL     1     -10.271   6.176  71.009  1.00  0.00    -0.191 N  
HETATM   44  C   UNL     1      -8.050   5.946  69.924  1.00  0.00    -0.116 A  
HETATM   45  C   UNL     1      -7.777   6.449  67.568  1.00  0.00    -0.101 A  
ENDBRANCH  12  37
ENDBRANCH   3   5
ENDBRANCH   2   3
TORSDOF 8
ENDMDL
MODEL      276
REMARK 921   NORMALIZED FREE ENERGY PREDICTED BY IDOCK:    4.83 KCAL/MOL
REMARK 922        TOTAL FREE ENERGY PREDICTED BY IDOCK:    5.17 KCAL/MOL
REMARK 923 INTER-LIGAND FREE ENERGY PREDICTED BY IDOCK:   -8.84 KCAL/MOL
REMARK 924 INTRA-LIGAND FREE ENERGY PREDICTED BY IDOCK:   14.02 KCAL/MOL
REMARK 927      BINDING AFFINITY PREDICTED BY RF-SCORE:    0.00 PKD
ROOT
HETATM    1  C   UNL     1     -10.032  17.906  69.106  1.00  0.00    -0.195 C  
HETATM    2  O   UNL     1     -10.794  16.979  68.325  1.00  0.00    -0.370 OA 
ENDROOT
BRANCH   2   3
HETATM    3  C   UNL     1     -10.281  16.776  67.081  1.00  0.00    -0.295 C  
HETATM    4  O   UNL     1      -9.509  17.540  66.524  1.00  0.00    -0.258 OA 
BRANCH   3   5
HETATM    5  C   UNL     1     -10.787  15.502  66.502  1.00  0.00    -0.284 C  
HETATM    6  C   UNL     1     -11.320  15.461  65.256  1.00  0.00    -0.243 C  
HETATM    7  N   UNL     1     -11.720  14.249  64.723  1.00  0.00    -0.393 NA 
HETATM    8  C   UNL     1     -11.567  16.623  64.321  1.00  0.00     0.525 C  
HETATM    9  C   UNL     1     -11.805  13.062  65.420  1.00  0.00    -0.388 C  
HETATM   10  C   UNL     1     -12.397  11.904  64.646  1.00  0.00    -0.108 C  
HETATM   11  C   UNL     1     -11.363  13.002  66.699  1.00  0.00    -0.366 C  
HETATM   12  C   UNL     1     -10.702  14.220  67.360  1.00  0.00    -0.282 C  
BRANCH  11  13
HETATM   13  C   UNL     1     -11.603  11.747  67.458  1.00  0.00    -0.291 C  
HETATM   14  O   UNL     1     -12.695  11.458  67.922  1.00  0.00     0.817 OA 
BRANCH  13  15
HETATM   15  O   UNL     1     -10.509  10.950  67.483  1.00  0.00    -0.192 OA 
HETATM   16  C   UNL     1      -8.210  10.275  66.885  1.00  0.00    -0.123 C  
HETATM   17  C   UNL     1      -8.774  12.658  67.552  1.00  0.00    -0.184 C  
HETATM   18  C   UNL     1      -9.291  11.410  66.819  1.00  0.00    -0.180 C  
HETATM   19  C   UNL     1      -9.498  11.694  65.313  1.00  0.00    -0.170 C  
BRANCH  16  20
HETATM   20  N   UNL     1      -7.727   9.811  68.211  1.00  0.00    -0.085 NA 
HETATM   21  C   UNL     1      -7.033  10.892  68.918  1.00  0.00    -0.084 C  
BRANCH  20  22
HETATM   22  C   UNL     1      -8.861   9.398  69.066  1.00  0.00    -0.141 C  
BRANCH  22  23
HETATM   23  C   UNL     1      -8.560   8.330  70.120  1.00  0.00    -0.128 C  
HETATM   24  C   UNL     1      -9.653   7.262  70.382  1.00  0.00    -0.165 C  
HETATM   25  C   UNL     1      -9.268   6.530  71.678  1.00  0.00    -0.143 A  
HETATM   26  C   UNL     1      -9.921   6.396  69.148  1.00  0.00    -0.173 A  
HETATM   27  C   UNL     1     -10.144   6.528  72.774  1.00  0.00    -0.193 A  
HETATM   28  C   UNL     1      -9.214   5.221  68.851  1.00  0.00    -0.150 A  
HETATM   29  C   UNL     1      -9.717   6.067  74.024  1.00  0.00    -0.194 A  
HETATM   30  C   UNL     1      -9.415   4.538  67.649  1.00  0.00    -0.196 A  
HETATM   31  C   UNL     1     -10.328   5.012  66.715  1.00  0.00    -0.290 A  
HETATM   32  C   UNL     1      -8.419   5.586  74.193  1.00  0.00    -0.114 A  
HETATM   33  C   UNL     1      -7.554   5.537  73.108  1.00  0.00    -0.097 A  
HETATM   34  C   UNL     1     -11.059   6.162  66.992  1.00  0.00    -0.332 A  
HETATM   35  C   UNL     1     -10.862   6.840  68.200  1.00  0.00    -0.296 A  
HETATM   36  C   UNL     1      -7.974   6.004  71.864  1.00  0.00    -0.107 A  
ENDBRANCH  22  23
ENDBRANCH  20  22
ENDBRANCH  16  20
ENDBRANCH  13  15
ENDBRANCH  11  13
BRANCH  12  37
HETATM   37  C   UNL     1     -11.252  14.445  68.772  1.00  0.00    -0.282 A  
HETATM   38  O   UNL     1     -13.210  11.410  70.805  1.00  0.00    -0.008 OA 
HETATM   39  C   UNL     1     -11.848  13.378  69.472  1.00  0.00    -0.391 A  
HETATM   40  O   UNL     1     -13.640  12.724  72.508  1.00  0.00    -0.538 OA 
HETATM   41  C   UNL     1     -11.761  15.911  70.643  1.00  0.00    -0.411 A  
HETATM   42  C   UNL     1     -12.443  13.599  70.720  1.00  0.00    -0.359 A  
HETATM   43  N   UNL     1     -13.144  12.498  71.394  1.00  0.00    -0.287 N  
HETATM   44  C   UNL     1     -12.398  14.864  71.312  1.00  0.00    -0.385 A  
HETATM   45  C   UNL     1     -11.197  15.705  69.381  1.00  0.00    -0.313 A  
ENDBRANCH  12  37
ENDBRANCH   3   5
ENDBRANCH   2   3
TORSDOF 8
ENDMDL
MODEL      277
REMARK 921   NORMALIZED FREE ENERGY PREDICTED BY IDOCK:    4.94 KCAL/MOL
REMARK 922        TOTAL FREE ENERGY PREDICTED BY IDOCK:    5.34 KCAL/MOL
REMARK 923 INTER-LIGAND FREE ENERGY PREDICTED BY IDOCK:    1.35 KCAL/MOL
REMARK 924 INTRA-LIGAND FREE ENERGY PREDICTED BY IDOCK:    3.99 KCAL/MOL
REMARK 927      BINDING AFFINITY PREDICTED BY RF-SCORE:    0.00 PKD
ROOT
HETATM    1  C   UNL     1     -11.693  16.831  71.133  1.00  0.00     0.587 C  
HETATM    2  O   UNL     1     -12.022  15.540  70.607  1.00  0.00    -0.316 OA 
ENDROOT
BRANCH   2   3
HETATM    3  C   UNL     1     -11.045  14.615  70.806  1.00  0.00     0.051 C  
HETATM    4  O   UNL     1     -10.259  14.637  71.741  1.00  0.00     1.811 OA 
BRANCH   3   5
HETATM    5  C   UNL     1     -11.071  13.580  69.737  1.00  0.00     0.037 C  
HETATM    6  C   UNL     1     -11.800  12.445  69.878  1.00  0.00    -0.305 C  
HETATM    7  N   UNL     1     -11.853  11.534  68.837  1.00  0.00    -0.334 NA 
HETATM    8  C   UNL     1     -12.591  12.002  71.086  1.00  0.00    -0.372 C  
HETATM    9  C   UNL     1     -11.071  11.575  67.702  1.00  0.00    -0.266 C  
HETATM   10  C   UNL     1     -11.226  10.390  66.773  1.00  0.00     0.136 C  
HETATM   11  C   UNL     1     -10.252  12.633  67.490  1.00  0.00    -0.215 C  
HETATM   12  C   UNL     1     -10.237  13.823  68.460  1.00  0.00    -0.235 C  
BRANCH  11  13
HETATM   13  C   UNL     1      -9.324  12.570  66.330  1.00  0.00    -0.209 C  
HETATM   14  O   UNL     1      -9.061  13.548  65.646  1.00  0.00     0.301 OA 
BRANCH  13  15
HETATM   15  O   UNL     1      -8.757  11.349  66.197  1.00  0.00    -0.181 OA 
HETATM   16  C   UNL     1      -6.932   9.693  66.357  1.00  0.00    -0.088 C  
HETATM   17  C   UNL     1      -7.466  11.284  68.262  1.00  0.00    -0.099 C  
HETATM   18  C   UNL     1      -7.413  11.138  66.732  1.00  0.00    -0.146 C  
HETATM   19  C   UNL     1      -6.364  12.093  66.117  1.00  0.00     1.375 C  
BRANCH  16  20
HETATM   20  N   UNL     1      -7.694   8.522  66.863  1.00  0.00    -0.091 NA 
HETATM   21  C   UNL     1      -8.222   7.726  65.751  1.00  0.00    -0.132 C  
BRANCH  20  22
HETATM   22  C   UNL     1      -6.818   7.629  67.653  1.00  0.00    -0.069 C  
BRANCH  22  23
HETATM   23  C   UNL     1      -6.665   6.198  67.132  1.00  0.00    -0.057 C  
HETATM   24  C   UNL     1      -7.445   5.084  67.877  1.00  0.00    -0.079 C  
HETATM   25  C   UNL     1      -6.880   3.738  67.395  1.00  0.00    -0.054 A  
HETATM   26  C   UNL     1      -8.961   5.277  67.780  1.00  0.00    -0.110 A  
HETATM   27  C   UNL     1      -6.317   2.839  68.313  1.00  0.00    -0.029 A  
HETATM   28  C   UNL     1      -9.747   4.765  66.736  1.00  0.00    -0.203 A  
HETATM   29  C   UNL     1      -5.601   1.722  67.868  1.00  0.00    -0.018 A  
HETATM   30  C   UNL     1     -11.105   5.077  66.632  1.00  0.00     0.535 A  
HETATM   31  C   UNL     1     -11.710   5.905  67.569  1.00  0.00     1.727 A  
HETATM   32  C   UNL     1      -5.452   1.479  66.503  1.00  0.00    -0.013 A  
HETATM   33  C   UNL     1      -6.043   2.332  65.581  1.00  0.00    -0.023 A  
HETATM   34  C   UNL     1     -10.961   6.408  68.626  1.00  0.00    -0.404 A  
HETATM   35  C   UNL     1      -9.603   6.088  68.734  1.00  0.00    -0.148 A  
HETATM   36  C   UNL     1      -6.749   3.449  66.022  1.00  0.00    -0.041 A  
ENDBRANCH  22  23
ENDBRANCH  20  22
ENDBRANCH  16  20
ENDBRANCH  13  15
ENDBRANCH  11  13
BRANCH  12  37
HETATM   37  C   UNL     1      -8.802  14.243  68.792  1.00  0.00    -0.094 A  
HETATM   38  O   UNL     1      -7.858  18.213  69.516  1.00  0.00     0.201 OA 
HETATM   39  C   UNL     1      -8.518  15.587  69.107  1.00  0.00    -0.248 A  
HETATM   40  O   UNL     1      -5.727  17.745  69.744  1.00  0.00    -0.218 OA 
HETATM   41  C   UNL     1      -6.436  13.730  69.008  1.00  0.00    -0.105 A  
HETATM   42  C   UNL     1      -7.196  15.999  69.312  1.00  0.00    -0.226 A  
HETATM   43  N   UNL     1      -6.907  17.421  69.544  1.00  0.00    -0.154 N  
HETATM   44  C   UNL     1      -6.151  15.072  69.268  1.00  0.00    -0.107 A  
HETATM   45  C   UNL     1      -7.750  13.319  68.767  1.00  0.00    -0.022 A  
ENDBRANCH  12  37
ENDBRANCH   3   5
ENDBRANCH   2   3
TORSDOF 8
ENDMDL
MODEL      278
REMARK 921   NORMALIZED FREE ENERGY PREDICTED BY IDOCK:    5.49 KCAL/MOL
REMARK 922        TOTAL FREE ENERGY PREDICTED BY IDOCK:    6.15 KCAL/MOL
REMARK 923 INTER-LIGAND FREE ENERGY PREDICTED BY IDOCK:    1.71 KCAL/MOL
REMARK 924 INTRA-LIGAND FREE ENERGY PREDICTED BY IDOCK:    4.44 KCAL/MOL
REMARK 927      BINDING AFFINITY PREDICTED BY RF-SCORE:    0.00 PKD
ROOT
HETATM    1  C   UNL     1      -7.307  16.308  65.551  1.00  0.00     3.026 C  
HETATM    2  O   UNL     1      -6.032  16.957  65.608  1.00  0.00     0.347 OA 
ENDROOT
BRANCH   2   3
HETATM    3  C   UNL     1      -6.123  18.304  65.774  1.00  0.00    -0.233 C  
HETATM    4  O   UNL     1      -5.202  19.083  65.579  1.00  0.00    -0.146 OA 
BRANCH   3   5
HETATM    5  C   UNL     1      -7.488  18.692  66.220  1.00  0.00    -0.288 C  
HETATM    6  C   UNL     1      -8.170  19.690  65.606  1.00  0.00     0.109 C  
HETATM    7  N   UNL     1      -9.462  19.981  66.004  1.00  0.00    -0.362 NA 
HETATM    8  C   UNL     1      -7.680  20.592  64.497  1.00  0.00     1.184 C  
HETATM    9  C   UNL     1     -10.088  19.465  67.119  1.00  0.00    -0.384 C  
HETATM   10  C   UNL     1     -11.456  20.040  67.412  1.00  0.00     0.826 C  
HETATM   11  C   UNL     1      -9.470  18.506  67.851  1.00  0.00    -0.316 C  
HETATM   12  C   UNL     1      -8.113  17.935  67.413  1.00  0.00    -0.217 C  
BRANCH  11  13
HETATM   13  C   UNL     1     -10.113  18.080  69.121  1.00  0.00    -0.196 C  
HETATM   14  O   UNL     1      -9.992  18.708  70.162  1.00  0.00     0.732 OA 
BRANCH  13  15
HETATM   15  O   UNL     1     -10.902  16.993  68.953  1.00  0.00    -0.307 OA 
HETATM   16  C   UNL     1     -11.647  14.908  67.860  1.00  0.00    -0.344 C  
HETATM   17  C   UNL     1      -9.199  15.353  68.367  1.00  0.00    -0.192 C  
HETATM   18  C   UNL     1     -10.527  16.004  67.946  1.00  0.00    -0.292 C  
HETATM   19  C   UNL     1     -10.427  16.602  66.523  1.00  0.00    -0.262 C  
BRANCH  16  20
HETATM   20  N   UNL     1     -11.947  14.084  69.059  1.00  0.00    -0.350 NA 
HETATM   21  C   UNL     1     -13.106  14.618  69.779  1.00  0.00     0.504 C  
BRANCH  20  22
HETATM   22  C   UNL     1     -12.283  12.697  68.671  1.00  0.00     0.074 C  
BRANCH  22  23
HETATM   23  C   UNL     1     -12.391  11.683  69.812  1.00  0.00    -0.197 C  
HETATM   24  C   UNL     1     -11.968  10.223  69.506  1.00  0.00    -0.087 C  
HETATM   25  C   UNL     1     -12.472   9.354  70.670  1.00  0.00    -0.042 A  
HETATM   26  C   UNL     1     -10.483  10.115  69.150  1.00  0.00    -0.242 A  
HETATM   27  C   UNL     1     -13.358   8.294  70.427  1.00  0.00     1.272 A  
HETATM   28  C   UNL     1      -9.465   9.933  70.099  1.00  0.00    -0.214 A  
HETATM   29  C   UNL     1     -13.998   7.644  71.489  1.00  0.00    -0.500 A  
HETATM   30  C   UNL     1      -8.117   9.967  69.731  1.00  0.00    -0.188 A  
HETATM   31  C   UNL     1      -7.755  10.180  68.406  1.00  0.00    -0.089 A  
HETATM   32  C   UNL     1     -13.749   8.031  72.805  1.00  0.00     0.364 A  
HETATM   33  C   UNL     1     -12.839   9.046  73.066  1.00  0.00     0.433 A  
HETATM   34  C   UNL     1      -8.743  10.340  67.441  1.00  0.00    -0.128 A  
HETATM   35  C   UNL     1     -10.092  10.298  67.811  1.00  0.00    -0.213 A  
HETATM   36  C   UNL     1     -12.207   9.701  72.010  1.00  0.00    -0.330 A  
ENDBRANCH  22  23
ENDBRANCH  20  22
ENDBRANCH  16  20
ENDBRANCH  13  15
ENDBRANCH  11  13
BRANCH  12  37
HETATM   37  C   UNL     1      -7.147  17.845  68.597  1.00  0.00    -0.266 A  
HETATM   38  O   UNL     1      -6.577  14.272  70.619  1.00  0.00    -0.078 OA 
HETATM   39  C   UNL     1      -6.913  16.605  69.223  1.00  0.00    -0.225 A  
HETATM   40  O   UNL     1      -5.219  15.215  72.060  1.00  0.00    -0.114 OA 
HETATM   41  C   UNL     1      -5.670  18.898  70.216  1.00  0.00    -0.241 A  
HETATM   42  C   UNL     1      -6.110  16.531  70.367  1.00  0.00     0.149 A  
HETATM   43  N   UNL     1      -5.955  15.246  71.063  1.00  0.00     0.124 N  
HETATM   44  C   UNL     1      -5.483  17.676  70.865  1.00  0.00    -0.080 A  
HETATM   45  C   UNL     1      -6.499  18.983  69.094  1.00  0.00    -0.315 A  
ENDBRANCH  12  37
ENDBRANCH   3   5
ENDBRANCH   2   3
TORSDOF 8
ENDMDL
MODEL      279
REMARK 921   NORMALIZED FREE ENERGY PREDICTED BY IDOCK:    5.73 KCAL/MOL
REMARK 922        TOTAL FREE ENERGY PREDICTED BY IDOCK:    6.50 KCAL/MOL
REMARK 923 INTER-LIGAND FREE ENERGY PREDICTED BY IDOCK:   -0.26 KCAL/MOL
REMARK 924 INTRA-LIGAND FREE ENERGY PREDICTED BY IDOCK:    6.76 KCAL/MOL
REMARK 927      BINDING AFFINITY PREDICTED BY RF-SCORE:    0.00 PKD
ROOT
HETATM    1  C   UNL     1      -9.566  13.395  64.186  1.00  0.00     1.360 C  
HETATM    2  O   UNL     1     -10.030  12.355  65.054  1.00  0.00    -0.265 OA 
ENDROOT
BRANCH   2   3
HETATM    3  C   UNL     1     -11.221  12.640  65.645  1.00  0.00    -0.309 C  
HETATM    4  O   UNL     1     -12.139  13.225  65.091  1.00  0.00    -0.366 OA 
BRANCH   3   5
HETATM    5  C   UNL     1     -11.249  12.142  67.047  1.00  0.00    -0.370 C  
HETATM    6  C   UNL     1     -12.017  12.743  67.990  1.00  0.00    -0.264 C  
HETATM    7  N   UNL     1     -12.069  12.214  69.267  1.00  0.00    -0.230 NA 
HETATM    8  C   UNL     1     -12.857  13.989  67.835  1.00  0.00     1.364 C  
HETATM    9  C   UNL     1     -11.254  11.212  69.748  1.00  0.00    -0.245 C  
HETATM   10  C   UNL     1     -11.420  10.900  71.220  1.00  0.00     0.552 C  
HETATM   11  C   UNL     1     -10.396  10.584  68.908  1.00  0.00    -0.226 C  
HETATM   12  C   UNL     1     -10.371  10.924  67.411  1.00  0.00    -0.248 C  
BRANCH  11  13
HETATM   13  C   UNL     1      -9.437   9.611  69.495  1.00  0.00    -0.199 C  
HETATM   14  O   UNL     1      -8.575   9.940  70.295  1.00  0.00    -0.175 OA 
BRANCH  13  15
HETATM   15  O   UNL     1      -9.701   8.341  69.110  1.00  0.00    -0.166 OA 
HETATM   16  C   UNL     1     -10.926   6.197  69.135  1.00  0.00    -0.381 C  
HETATM   17  C   UNL     1     -12.135   8.428  69.092  1.00  0.00     2.223 C  
HETATM   18  C   UNL     1     -10.900   7.686  69.628  1.00  0.00    -0.191 C  
HETATM   19  C   UNL     1     -10.924   7.608  71.172  1.00  0.00    -0.263 C  
BRANCH  16  20
HETATM   20  N   UNL     1     -10.981   5.918  67.676  1.00  0.00    -0.241 NA 
HETATM   21  C   UNL     1     -10.124   6.849  66.937  1.00  0.00    -0.218 C  
BRANCH  20  22
HETATM   22  C   UNL     1     -10.487   4.555  67.385  1.00  0.00     0.275 C  
BRANCH  22  23
HETATM   23  C   UNL     1      -9.145   4.464  66.655  1.00  0.00    -0.130 C  
HETATM   24  C   UNL     1      -8.013   5.409  67.133  1.00  0.00    -0.101 C  
HETATM   25  C   UNL     1      -6.911   5.371  66.060  1.00  0.00    -0.058 A  
HETATM   26  C   UNL     1      -7.588   5.119  68.575  1.00  0.00    -0.079 A  
HETATM   27  C   UNL     1      -6.519   6.551  65.409  1.00  0.00    -0.039 A  
HETATM   28  C   UNL     1      -6.600   4.186  68.925  1.00  0.00    -0.045 A  
HETATM   29  C   UNL     1      -5.690   6.500  64.283  1.00  0.00    -0.030 A  
HETATM   30  C   UNL     1      -6.341   3.870  70.261  1.00  0.00    -0.027 A  
HETATM   31  C   UNL     1      -7.062   4.482  71.280  1.00  0.00    -0.043 A  
HETATM   32  C   UNL     1      -5.228   5.275  63.803  1.00  0.00    -0.010 A  
HETATM   33  C   UNL     1      -5.567   4.101  64.464  1.00  0.00    -0.014 A  
HETATM   34  C   UNL     1      -8.031   5.427  70.964  1.00  0.00    -0.105 A  
HETATM   35  C   UNL     1      -8.283   5.747  69.625  1.00  0.00    -0.108 A  
HETATM   36  C   UNL     1      -6.399   4.149  65.580  1.00  0.00    -0.032 A  
ENDBRANCH  22  23
ENDBRANCH  20  22
ENDBRANCH  16  20
ENDBRANCH  13  15
ENDBRANCH  11  13
BRANCH  12  37
HETATM   37  C   UNL     1      -8.933  11.092  66.910  1.00  0.00    -0.164 A  
HETATM   38  O   UNL     1      -7.408   8.626  63.948  1.00  0.00    -0.094 OA 
HETATM   39  C   UNL     1      -8.460  10.292  65.852  1.00  0.00    -0.154 A  
HETATM   40  O   UNL     1      -5.431   9.569  64.074  1.00  0.00    -0.060 OA 
HETATM   41  C   UNL     1      -6.733  12.112  67.075  1.00  0.00    -0.072 A  
HETATM   42  C   UNL     1      -7.119  10.368  65.455  1.00  0.00    -0.117 A  
HETATM   43  N   UNL     1      -6.618   9.458  64.415  1.00  0.00    -0.086 N  
HETATM   44  C   UNL     1      -6.253  11.281  66.062  1.00  0.00     0.052 A  
HETATM   45  C   UNL     1      -8.061  12.016  67.499  1.00  0.00    -0.159 A  
ENDBRANCH  12  37
ENDBRANCH   3   5
ENDBRANCH   2   3
TORSDOF 8
ENDMDL
MODEL      280
REMARK 921   NORMALIZED FREE ENERGY PREDICTED BY IDOCK:    5.77 KCAL/MOL
REMARK 922        TOTAL FREE ENERGY PREDICTED BY IDOCK:    6.55 KCAL/MOL
REMARK 923 INTER-LIGAND FREE ENERGY PREDICTED BY IDOCK:   -7.11 KCAL/MOL
REMARK 924 INTRA-LIGAND FREE ENERGY PREDICTED BY IDOCK:   13.65 KCAL/MOL
REMARK 927      BINDING AFFINITY PREDICTED BY RF-SCORE:    0.00 PKD
ROOT
HETATM    1  C   UNL     1      -9.401  17.571  69.083  1.00  0.00     0.015 C  
HETATM    2  O   UNL     1      -9.982  16.393  68.513  1.00  0.00    -0.223 OA 
ENDROOT
BRANCH   2   3
HETATM    3  C   UNL     1      -9.387  16.009  67.351  1.00  0.00    -0.217 C  
HETATM    4  O   UNL     1      -8.482  16.622  66.808  1.00  0.00    -0.193 OA 
BRANCH   3   5
HETATM    5  C   UNL     1      -9.988  14.747  66.842  1.00  0.00    -0.246 C  
HETATM    6  C   UNL     1     -10.342  14.614  65.539  1.00  0.00    -0.362 C  
HETATM    7  N   UNL     1     -10.837  13.405  65.086  1.00  0.00    -0.300 NA 
HETATM    8  C   UNL     1     -10.285  15.668  64.458  1.00  0.00     0.825 C  
HETATM    9  C   UNL     1     -11.190  12.338  65.885  1.00  0.00    -0.340 C  
HETATM   10  C   UNL     1     -11.831  11.175  65.159  1.00  0.00     0.820 C  
HETATM   11  C   UNL     1     -10.944  12.388  67.217  1.00  0.00    -0.302 C  
HETATM   12  C   UNL     1     -10.211  13.586  67.837  1.00  0.00    -0.247 C  
BRANCH  11  13
HETATM   13  C   UNL     1     -11.467  11.282  68.061  1.00  0.00    -0.298 C  
HETATM   14  O   UNL     1     -12.603  11.278  68.509  1.00  0.00    -0.228 OA 
BRANCH  13  15
HETATM   15  O   UNL     1     -10.578  10.268  68.181  1.00  0.00    -0.190 OA 
HETATM   16  C   UNL     1      -8.392   9.155  67.896  1.00  0.00    -0.117 C  
HETATM   17  C   UNL     1      -8.576  11.557  68.695  1.00  0.00    -0.109 C  
HETATM   18  C   UNL     1      -9.195  10.497  67.770  1.00  0.00    -0.145 C  
HETATM   19  C   UNL     1      -9.070  10.913  66.285  1.00  0.00    -0.192 C  
BRANCH  16  20
HETATM   20  N   UNL     1      -8.255   8.516  69.230  1.00  0.00    -0.113 NA 
HETATM   21  C   UNL     1      -8.755   9.404  70.284  1.00  0.00    -0.230 C  
BRANCH  20  22
HETATM   22  C   UNL     1      -9.054   7.273  69.300  1.00  0.00    -0.138 C  
BRANCH  22  23
HETATM   23  C   UNL     1      -8.304   6.012  69.734  1.00  0.00    -0.126 C  
HETATM   24  C   UNL     1      -8.944   4.646  69.373  1.00  0.00    -0.140 C  
HETATM   25  C   UNL     1      -8.203   3.571  70.185  1.00  0.00    -0.068 A  
HETATM   26  C   UNL     1      -9.035   4.434  67.859  1.00  0.00    -0.138 A  
HETATM   27  C   UNL     1      -8.908   2.752  71.080  1.00  0.00    -0.141 A  
HETATM   28  C   UNL     1      -8.012   3.861  67.089  1.00  0.00    -0.092 A  
HETATM   29  C   UNL     1      -8.223   1.933  71.984  1.00  0.00    -0.049 A  
HETATM   30  C   UNL     1      -8.098   3.806  65.695  1.00  0.00    -0.093 A  
HETATM   31  C   UNL     1      -9.209   4.319  65.039  1.00  0.00    -0.155 A  
HETATM   32  C   UNL     1      -6.829   1.907  71.997  1.00  0.00    -0.018 A  
HETATM   33  C   UNL     1      -6.116   2.676  71.086  1.00  0.00    -0.018 A  
HETATM   34  C   UNL     1     -10.249   4.872  65.778  1.00  0.00    -0.207 A  
HETATM   35  C   UNL     1     -10.165   4.919  67.174  1.00  0.00    -0.211 A  
HETATM   36  C   UNL     1      -6.796   3.499  70.190  1.00  0.00    -0.034 A  
ENDBRANCH  22  23
ENDBRANCH  20  22
ENDBRANCH  16  20
ENDBRANCH  13  15
ENDBRANCH  11  13
BRANCH  12  37
HETATM   37  C   UNL     1     -10.913  14.059  69.112  1.00  0.00    -0.263 A  
HETATM   38  O   UNL     1     -12.969  11.392  71.528  1.00  0.00    -0.432 OA 
HETATM   39  C   UNL     1     -11.543  13.124  69.957  1.00  0.00    -0.202 A  
HETATM   40  O   UNL     1     -13.620  12.996  72.876  1.00  0.00    -0.501 OA 
HETATM   41  C   UNL     1     -11.664  15.841  70.586  1.00  0.00    -0.412 A  
HETATM   42  C   UNL     1     -12.272  13.558  71.070  1.00  0.00    -0.262 A  
HETATM   43  N   UNL     1     -13.003  12.577  71.885  1.00  0.00    -0.340 N  
HETATM   44  C   UNL     1     -12.332  14.916  71.391  1.00  0.00    -0.397 A  
HETATM   45  C   UNL     1     -10.964  15.417  69.453  1.00  0.00    -0.276 A  
ENDBRANCH  12  37
ENDBRANCH   3   5
ENDBRANCH   2   3
TORSDOF 8
ENDMDL
MODEL      281
REMARK 921   NORMALIZED FREE ENERGY PREDICTED BY IDOCK:    6.51 KCAL/MOL
REMARK 922        TOTAL FREE ENERGY PREDICTED BY IDOCK:    7.64 KCAL/MOL
REMARK 923 INTER-LIGAND FREE ENERGY PREDICTED BY IDOCK:   -2.23 KCAL/MOL
REMARK 924 INTRA-LIGAND FREE ENERGY PREDICTED BY IDOCK:    9.87 KCAL/MOL
REMARK 927      BINDING AFFINITY PREDICTED BY RF-SCORE:    0.00 PKD
ROOT
HETATM    1  C   UNL     1      -6.974   5.584  65.726  1.00  0.00    -0.066 C  
HETATM    2  O   UNL     1      -7.997   5.419  64.739  1.00  0.00    -0.097 OA 
ENDROOT
BRANCH   2   3
HETATM    3  C   UNL     1      -8.349   6.584  64.130  1.00  0.00     0.123 C  
HETATM    4  O   UNL     1      -9.030   6.651  63.118  1.00  0.00     0.649 OA 
BRANCH   3   5
HETATM    5  C   UNL     1      -7.795   7.753  64.864  1.00  0.00    -0.123 C  
HETATM    6  C   UNL     1      -6.508   8.144  64.691  1.00  0.00    -0.064 C  
HETATM    7  N   UNL     1      -6.045   9.275  65.340  1.00  0.00    -0.062 NA 
HETATM    8  C   UNL     1      -5.445   7.470  63.856  1.00  0.00    -0.037 C  
HETATM    9  C   UNL     1      -6.725   9.968  66.319  1.00  0.00    -0.094 C  
HETATM   10  C   UNL     1      -5.949  11.094  66.967  1.00  0.00    -0.091 C  
HETATM   11  C   UNL     1      -7.999   9.620  66.623  1.00  0.00    -0.109 C  
HETATM   12  C   UNL     1      -8.720   8.512  65.841  1.00  0.00    -0.203 C  
BRANCH  11  13
HETATM   13  C   UNL     1      -8.646  10.296  67.778  1.00  0.00    -0.118 C  
HETATM   14  O   UNL     1      -8.750   9.767  68.875  1.00  0.00    -0.125 OA 
BRANCH  13  15
HETATM   15  O   UNL     1      -9.006  11.568  67.488  1.00  0.00    -0.154 OA 
HETATM   16  C   UNL     1     -10.506  13.530  67.480  1.00  0.00    -0.237 C  
HETATM   17  C   UNL     1     -10.113  12.154  69.577  1.00  0.00     0.786 C  
HETATM   18  C   UNL     1     -10.251  12.089  68.047  1.00  0.00    -0.198 C  
HETATM   19  C   UNL     1     -11.489  11.260  67.635  1.00  0.00    -0.341 C  
BRANCH  16  20
HETATM   20  N   UNL     1      -9.521  14.605  67.766  1.00  0.00    -0.202 NA 
HETATM   21  C   UNL     1      -8.681  14.247  68.913  1.00  0.00    -0.027 C  
BRANCH  20  22
HETATM   22  C   UNL     1      -8.615  14.804  66.614  1.00  0.00    -0.135 C  
BRANCH  22  23
HETATM   23  C   UNL     1      -8.031  16.209  66.448  1.00  0.00    -0.252 C  
HETATM   24  C   UNL     1      -8.117  17.162  67.669  1.00  0.00    -0.187 C  
HETATM   25  C   UNL     1      -7.784  18.575  67.162  1.00  0.00    -0.232 A  
HETATM   26  C   UNL     1      -7.312  16.644  68.863  1.00  0.00    -0.225 A  
HETATM   27  C   UNL     1      -8.715  19.615  67.307  1.00  0.00    -0.367 A  
HETATM   28  C   UNL     1      -5.953  16.927  69.070  1.00  0.00    -0.166 A  
HETATM   29  C   UNL     1      -8.523  20.838  66.655  1.00  0.00     0.061 A  
HETATM   30  C   UNL     1      -5.237  16.326  70.109  1.00  0.00    -0.168 A  
HETATM   31  C   UNL     1      -5.863  15.431  70.967  1.00  0.00     0.185 A  
HETATM   32  C   UNL     1      -7.392  21.046  65.865  1.00  0.00     0.356 A  
HETATM   33  C   UNL     1      -6.437  20.044  65.750  1.00  0.00    -0.252 A  
HETATM   34  C   UNL     1      -7.214  15.149  70.800  1.00  0.00     0.970 A  
HETATM   35  C   UNL     1      -7.931  15.758  69.764  1.00  0.00     0.118 A  
HETATM   36  C   UNL     1      -6.631  18.822  66.391  1.00  0.00    -0.225 A  
ENDBRANCH  22  23
ENDBRANCH  20  22
ENDBRANCH  16  20
ENDBRANCH  13  15
ENDBRANCH  11  13
BRANCH  12  37
HETATM   37  C   UNL     1      -9.449   7.556  66.790  1.00  0.00    -0.230 A  
HETATM   38  O   UNL     1      -7.474   4.340  68.504  1.00  0.00    -0.059 OA 
HETATM   39  C   UNL     1      -8.739   6.513  67.418  1.00  0.00    -0.117 A  
HETATM   40  O   UNL     1      -9.306   3.640  69.487  1.00  0.00    -0.148 OA 
HETATM   41  C   UNL     1     -11.486   6.759  67.849  1.00  0.00     0.213 A  
HETATM   42  C   UNL     1      -9.416   5.574  68.206  1.00  0.00    -0.115 A  
HETATM   43  N   UNL     1      -8.678   4.439  68.776  1.00  0.00    -0.092 N  
HETATM   44  C   UNL     1     -10.790   5.697  68.428  1.00  0.00    -0.161 A  
HETATM   45  C   UNL     1     -10.822   7.679  67.033  1.00  0.00    -0.219 A  
ENDBRANCH  12  37
ENDBRANCH   3   5
ENDBRANCH   2   3
TORSDOF 8
ENDMDL
MODEL      282
REMARK 921   NORMALIZED FREE ENERGY PREDICTED BY IDOCK:    7.07 KCAL/MOL
REMARK 922        TOTAL FREE ENERGY PREDICTED BY IDOCK:    8.46 KCAL/MOL
REMARK 923 INTER-LIGAND FREE ENERGY PREDICTED BY IDOCK:   -2.04 KCAL/MOL
REMARK 924 INTRA-LIGAND FREE ENERGY PREDICTED BY IDOCK:   10.50 KCAL/MOL
REMARK 927      BINDING AFFINITY PREDICTED BY RF-SCORE:    0.00 PKD
ROOT
HETATM    1  C   UNL     1      -8.301   5.973  66.469  1.00  0.00    -0.113 C  
HETATM    2  O   UNL     1      -7.939   5.215  67.628  1.00  0.00    -0.098 OA 
ENDROOT
BRANCH   2   3
HETATM    3  C   UNL     1      -7.750   5.982  68.735  1.00  0.00    -0.095 C  
HETATM    4  O   UNL     1      -6.740   5.961  69.421  1.00  0.00    -0.055 OA 
BRANCH   3   5
HETATM    5  C   UNL     1      -8.935   6.846  68.988  1.00  0.00    -0.132 C  
HETATM    6  C   UNL     1     -10.194   6.385  68.788  1.00  0.00    -0.177 C  
HETATM    7  N   UNL     1     -11.274   7.193  69.096  1.00  0.00    -0.035 NA 
HETATM    8  C   UNL     1     -10.606   5.044  68.228  1.00  0.00     0.095 C  
HETATM    9  C   UNL     1     -11.201   8.530  69.426  1.00  0.00     0.217 C  
HETATM   10  C   UNL     1     -12.535   9.225  69.591  1.00  0.00     1.401 C  
HETATM   11  C   UNL     1      -9.990   9.115  69.587  1.00  0.00    -0.198 C  
HETATM   12  C   UNL     1      -8.698   8.292  69.478  1.00  0.00    -0.138 C  
BRANCH  11  13
HETATM   13  C   UNL     1      -9.953  10.585  69.802  1.00  0.00    -0.045 C  
HETATM   14  O   UNL     1      -9.941  11.086  70.916  1.00  0.00     2.163 OA 
BRANCH  13  15
HETATM   15  O   UNL     1      -9.842  11.268  68.638  1.00  0.00    -0.197 OA 
HETATM   16  C   UNL     1     -10.373  11.791  66.284  1.00  0.00    -0.224 C  
HETATM   17  C   UNL     1     -12.191  11.348  67.999  1.00  0.00     0.298 C  
HETATM   18  C   UNL     1     -10.771  10.960  67.554  1.00  0.00    -0.252 C  
HETATM   19  C   UNL     1     -10.712   9.479  67.112  1.00  0.00    -0.252 C  
BRANCH  16  20
HETATM   20  N   UNL     1     -10.399  13.275  66.352  1.00  0.00    -0.280 NA 
HETATM   21  C   UNL     1      -9.766  13.860  65.167  1.00  0.00     0.051 C  
BRANCH  20  22
HETATM   22  C   UNL     1     -11.792  13.772  66.385  1.00  0.00    -0.404 C  
BRANCH  22  23
HETATM   23  C   UNL     1     -12.336  14.167  67.760  1.00  0.00    -0.050 C  
HETATM   24  C   UNL     1     -11.305  14.605  68.832  1.00  0.00    -0.305 C  
HETATM   25  C   UNL     1     -12.039  14.623  70.184  1.00  0.00    -0.385 A  
HETATM   26  C   UNL     1     -10.559  15.880  68.430  1.00  0.00    -0.266 A  
HETATM   27  C   UNL     1     -11.589  13.819  71.242  1.00  0.00     0.684 A  
HETATM   28  C   UNL     1     -11.015  17.175  68.718  1.00  0.00    -0.109 A  
HETATM   29  C   UNL     1     -12.371  13.653  72.391  1.00  0.00     0.236 A  
HETATM   30  C   UNL     1     -10.360  18.303  68.218  1.00  0.00    -0.379 A  
HETATM   31  C   UNL     1      -9.231  18.163  67.421  1.00  0.00    -0.257 A  
HETATM   32  C   UNL     1     -13.601  14.299  72.506  1.00  0.00    -0.620 A  
HETATM   33  C   UNL     1     -14.040  15.136  71.488  1.00  0.00    -0.636 A  
HETATM   34  C   UNL     1      -8.742  16.893  67.137  1.00  0.00    -0.219 A  
HETATM   35  C   UNL     1      -9.396  15.765  67.646  1.00  0.00    -0.216 A  
HETATM   36  C   UNL     1     -13.267  15.296  70.339  1.00  0.00    -0.171 A  
ENDBRANCH  22  23
ENDBRANCH  20  22
ENDBRANCH  16  20
ENDBRANCH  13  15
ENDBRANCH  11  13
BRANCH  12  37
HETATM   37  C   UNL     1      -7.655   9.017  68.622  1.00  0.00    -0.092 A  
HETATM   38  O   UNL     1      -7.512  13.157  68.490  1.00  0.00    -0.112 OA 
HETATM   39  C   UNL     1      -7.578  10.423  68.650  1.00  0.00    -0.092 A  
HETATM   40  O   UNL     1      -5.888  13.130  67.015  1.00  0.00    -0.248 OA 
HETATM   41  C   UNL     1      -5.881   8.988  66.960  1.00  0.00    -0.046 A  
HETATM   42  C   UNL     1      -6.697  11.098  67.795  1.00  0.00    -0.065 A  
HETATM   43  N   UNL     1      -6.697  12.567  67.768  1.00  0.00    -0.107 N  
HETATM   44  C   UNL     1      -5.843  10.383  66.952  1.00  0.00    -0.052 A  
HETATM   45  C   UNL     1      -6.783   8.310  67.785  1.00  0.00    -0.066 A  
ENDBRANCH  12  37
ENDBRANCH   3   5
ENDBRANCH   2   3
TORSDOF 8
ENDMDL
MODEL      283
REMARK 921   NORMALIZED FREE ENERGY PREDICTED BY IDOCK:    7.24 KCAL/MOL
REMARK 922        TOTAL FREE ENERGY PREDICTED BY IDOCK:    8.71 KCAL/MOL
REMARK 923 INTER-LIGAND FREE ENERGY PREDICTED BY IDOCK:    7.24 KCAL/MOL
REMARK 924 INTRA-LIGAND FREE ENERGY PREDICTED BY IDOCK:    1.47 KCAL/MOL
REMARK 927      BINDING AFFINITY PREDICTED BY RF-SCORE:    0.00 PKD
ROOT
HETATM    1  C   UNL     1     -12.164   6.604  66.928  1.00  0.00     4.117 C  
HETATM    2  O   UNL     1     -11.496   7.831  67.237  1.00  0.00     0.567 OA 
ENDROOT
BRANCH   2   3
HETATM    3  C   UNL     1     -10.198   7.658  67.605  1.00  0.00    -0.214 C  
HETATM    4  O   UNL     1      -9.719   6.588  67.949  1.00  0.00    -0.122 OA 
BRANCH   3   5
HETATM    5  C   UNL     1      -9.450   8.942  67.529  1.00  0.00    -0.172 C  
HETATM    6  C   UNL     1      -9.389   9.650  66.374  1.00  0.00    -0.174 C  
HETATM    7  N   UNL     1      -8.740  10.872  66.355  1.00  0.00    -0.164 NA 
HETATM    8  C   UNL     1      -9.946   9.261  65.024  1.00  0.00     0.489 C  
HETATM    9  C   UNL     1      -7.967  11.379  67.378  1.00  0.00    -0.139 C  
HETATM   10  C   UNL     1      -7.256  12.677  67.063  1.00  0.00     0.064 C  
HETATM   11  C   UNL     1      -7.900  10.719  68.559  1.00  0.00    -0.122 C  
HETATM   12  C   UNL     1      -8.732   9.450  68.799  1.00  0.00    -0.131 C  
BRANCH  11  13
HETATM   13  C   UNL     1      -6.947  11.222  69.583  1.00  0.00    -0.056 C  
HETATM   14  O   UNL     1      -5.860  10.701  69.780  1.00  0.00    -0.044 OA 
BRANCH  13  15
HETATM   15  O   UNL     1      -7.389  12.354  70.179  1.00  0.00     0.904 OA 
HETATM   16  C   UNL     1      -7.199  14.664  71.030  1.00  0.00     1.400 C  
HETATM   17  C   UNL     1      -6.321  14.004  68.741  1.00  0.00    -0.090 C  
HETATM   18  C   UNL     1      -6.519  13.527  70.189  1.00  0.00     0.072 C  
HETATM   19  C   UNL     1      -5.160  13.263  70.879  1.00  0.00    -0.131 C  
BRANCH  16  20
HETATM   20  N   UNL     1      -8.509  15.208  70.585  1.00  0.00     1.329 NA 
HETATM   21  C   UNL     1      -8.339  16.084  69.422  1.00  0.00    -0.139 C  
BRANCH  20  22
HETATM   22  C   UNL     1      -9.416  14.115  70.172  1.00  0.00     1.808 C  
BRANCH  22  23
HETATM   23  C   UNL     1     -10.098  14.281  68.813  1.00  0.00    -0.217 C  
HETATM   24  C   UNL     1     -11.424  13.510  68.585  1.00  0.00    -0.343 C  
HETATM   25  C   UNL     1     -11.727  13.566  67.078  1.00  0.00    -0.424 A  
HETATM   26  C   UNL     1     -12.533  13.975  69.533  1.00  0.00    -0.159 A  
HETATM   27  C   UNL     1     -11.851  12.381  66.338  1.00  0.00    -0.421 A  
HETATM   28  C   UNL     1     -13.407  15.036  69.251  1.00  0.00     1.777 A  
HETATM   29  C   UNL     1     -11.898  12.416  64.940  1.00  0.00    -0.442 A  
HETATM   30  C   UNL     1     -14.317  15.499  70.205  1.00  0.00     1.684 A  
HETATM   31  C   UNL     1     -14.377  14.910  71.462  1.00  0.00    -0.631 A  
HETATM   32  C   UNL     1     -11.839  13.634  64.264  1.00  0.00    -0.464 A  
HETATM   33  C   UNL     1     -11.764  14.820  64.982  1.00  0.00    -0.364 A  
HETATM   34  C   UNL     1     -13.539  13.842  71.762  1.00  0.00    -0.466 A  
HETATM   35  C   UNL     1     -12.634  13.376  70.803  1.00  0.00    -0.369 A  
HETATM   36  C   UNL     1     -11.708  14.786  66.374  1.00  0.00    -0.268 A  
ENDBRANCH  22  23
ENDBRANCH  20  22
ENDBRANCH  16  20
ENDBRANCH  13  15
ENDBRANCH  11  13
BRANCH  12  37
HETATM   37  C   UNL     1      -7.885   8.352  69.449  1.00  0.00    -0.103 A  
HETATM   38  O   UNL     1      -8.452   7.289  73.414  1.00  0.00    -0.123 OA 
HETATM   39  C   UNL     1      -8.144   7.957  70.775  1.00  0.00    -0.101 A  
HETATM   40  O   UNL     1      -6.795   5.853  73.346  1.00  0.00    -0.077 OA 
HETATM   41  C   UNL     1      -6.026   6.787  69.384  1.00  0.00    -0.022 A  
HETATM   42  C   UNL     1      -7.312   7.027  71.410  1.00  0.00    -0.080 A  
HETATM   43  N   UNL     1      -7.539   6.697  72.824  1.00  0.00    -0.096 N  
HETATM   44  C   UNL     1      -6.253   6.436  70.716  1.00  0.00    -0.039 A  
HETATM   45  C   UNL     1      -6.832   7.741  68.756  1.00  0.00    -0.059 A  
ENDBRANCH  12  37
ENDBRANCH   3   5
ENDBRANCH   2   3
TORSDOF 8
ENDMDL
MODEL      284
REMARK 921   NORMALIZED FREE ENERGY PREDICTED BY IDOCK:    7.47 KCAL/MOL
REMARK 922        TOTAL FREE ENERGY PREDICTED BY IDOCK:    9.05 KCAL/MOL
REMARK 923 INTER-LIGAND FREE ENERGY PREDICTED BY IDOCK:    4.75 KCAL/MOL
REMARK 924 INTRA-LIGAND FREE ENERGY PREDICTED BY IDOCK:    4.30 KCAL/MOL
REMARK 927      BINDING AFFINITY PREDICTED BY RF-SCORE:    0.00 PKD
ROOT
HETATM    1  C   UNL     1      -9.392  16.594  66.420  1.00  0.00    -0.281 C  
HETATM    2  O   UNL     1      -8.036  16.466  66.861  1.00  0.00    -0.184 OA 
ENDROOT
BRANCH   2   3
HETATM    3  C   UNL     1      -7.843  15.419  67.708  1.00  0.00    -0.143 C  
HETATM    4  O   UNL     1      -6.948  15.363  68.537  1.00  0.00    -0.108 OA 
BRANCH   3   5
HETATM    5  C   UNL     1      -8.869  14.364  67.487  1.00  0.00    -0.197 C  
HETATM    6  C   UNL     1      -9.109  13.868  66.248  1.00  0.00     0.004 C  
HETATM    7  N   UNL     1     -10.023  12.842  66.088  1.00  0.00    -0.263 NA 
HETATM    8  C   UNL     1      -8.497  14.318  64.942  1.00  0.00     5.494 C  
HETATM    9  C   UNL     1     -10.877  12.376  67.065  1.00  0.00    -0.246 C  
HETATM   10  C   UNL     1     -11.873  11.335  66.604  1.00  0.00     0.573 C  
HETATM   11  C   UNL     1     -10.772  12.851  68.330  1.00  0.00    -0.261 C  
HETATM   12  C   UNL     1      -9.666  13.848  68.706  1.00  0.00    -0.096 C  
BRANCH  11  13
HETATM   13  C   UNL     1     -11.800  12.430  69.317  1.00  0.00    -0.304 C  
HETATM   14  O   UNL     1     -12.928  12.900  69.332  1.00  0.00     0.796 OA 
BRANCH  13  15
HETATM   15  O   UNL     1     -11.364  11.423  70.109  1.00  0.00    -0.248 OA 
HETATM   16  C   UNL     1     -11.522   9.790  71.955  1.00  0.00     0.374 C  
HETATM   17  C   UNL     1     -13.441  10.170  70.336  1.00  0.00     0.281 C  
HETATM   18  C   UNL     1     -12.286  10.852  71.088  1.00  0.00    -0.374 C  
HETATM   19  C   UNL     1     -12.819  11.898  72.095  1.00  0.00    -0.096 C  
BRANCH  16  20
HETATM   20  N   UNL     1     -10.940   8.596  71.290  1.00  0.00    -0.250 NA 
HETATM   21  C   UNL     1     -11.860   7.457  71.371  1.00  0.00    -0.300 C  
BRANCH  20  22
HETATM   22  C   UNL     1     -10.708   8.858  69.853  1.00  0.00    -0.227 C  
BRANCH  22  23
HETATM   23  C   UNL     1     -10.359   7.643  68.992  1.00  0.00    -0.220 C  
HETATM   24  C   UNL     1      -8.883   7.491  68.542  1.00  0.00    -0.126 C  
HETATM   25  C   UNL     1      -8.853   6.417  67.443  1.00  0.00    -0.104 A  
HETATM   26  C   UNL     1      -7.935   7.297  69.729  1.00  0.00    -0.123 A  
HETATM   27  C   UNL     1      -8.366   6.727  66.164  1.00  0.00    -0.130 A  
HETATM   28  C   UNL     1      -7.621   6.046  70.280  1.00  0.00    -0.095 A  
HETATM   29  C   UNL     1      -8.542   5.837  65.100  1.00  0.00    -0.110 A  
HETATM   30  C   UNL     1      -6.850   5.937  71.441  1.00  0.00    -0.063 A  
HETATM   31  C   UNL     1      -6.372   7.077  72.075  1.00  0.00    -0.044 A  
HETATM   32  C   UNL     1      -9.190   4.618  65.300  1.00  0.00    -0.156 A  
HETATM   33  C   UNL     1      -9.637   4.274  66.569  1.00  0.00    -0.214 A  
HETATM   34  C   UNL     1      -6.648   8.329  71.539  1.00  0.00    -0.058 A  
HETATM   35  C   UNL     1      -7.414   8.435  70.373  1.00  0.00    -0.067 A  
HETATM   36  C   UNL     1      -9.470   5.164  67.629  1.00  0.00    -0.145 A  
ENDBRANCH  22  23
ENDBRANCH  20  22
ENDBRANCH  16  20
ENDBRANCH  13  15
ENDBRANCH  11  13
BRANCH  12  37
HETATM   37  C   UNL     1     -10.227  15.000  69.545  1.00  0.00    -0.198 A  
HETATM   38  O   UNL     1     -10.022  18.914  68.198  1.00  0.00    -0.337 OA 
HETATM   39  C   UNL     1     -10.213  16.313  69.035  1.00  0.00    -0.261 A  
HETATM   40  O   UNL     1     -10.918  19.679  70.048  1.00  0.00     1.421 OA 
HETATM   41  C   UNL     1     -11.186  15.851  71.610  1.00  0.00    -0.214 A  
HETATM   42  C   UNL     1     -10.630  17.385  69.834  1.00  0.00     0.456 A  
HETATM   43  N   UNL     1     -10.519  18.757  69.321  1.00  0.00     0.207 N  
HETATM   44  C   UNL     1     -11.122  17.157  71.121  1.00  0.00     1.101 A  
HETATM   45  C   UNL     1     -10.738  14.781  70.830  1.00  0.00     0.286 A  
ENDBRANCH  12  37
ENDBRANCH   3   5
ENDBRANCH   2   3
TORSDOF 8
ENDMDL
MODEL      285
REMARK 921   NORMALIZED FREE ENERGY PREDICTED BY IDOCK:    7.78 KCAL/MOL
REMARK 922        TOTAL FREE ENERGY PREDICTED BY IDOCK:    9.51 KCAL/MOL
REMARK 923 INTER-LIGAND FREE ENERGY PREDICTED BY IDOCK:    6.88 KCAL/MOL
REMARK 924 INTRA-LIGAND FREE ENERGY PREDICTED BY IDOCK:    2.63 KCAL/MOL
REMARK 927      BINDING AFFINITY PREDICTED BY RF-SCORE:    0.00 PKD
ROOT
HETATM    1  C   UNL     1     -11.690  16.828  71.165  1.00  0.00     0.587 C  
HETATM    2  O   UNL     1     -12.139  15.619  70.542  1.00  0.00    -0.352 OA 
ENDROOT
BRANCH   2   3
HETATM    3  C   UNL     1     -11.247  14.598  70.647  1.00  0.00    -0.066 C  
HETATM    4  O   UNL     1     -10.515  14.422  71.608  1.00  0.00     1.820 OA 
BRANCH   3   5
HETATM    5  C   UNL     1     -11.291  13.731  69.438  1.00  0.00    -0.306 C  
HETATM    6  C   UNL     1     -12.175  12.707  69.342  1.00  0.00    -0.061 C  
HETATM    7  N   UNL     1     -12.233  11.962  68.177  1.00  0.00    -0.381 NA 
HETATM    8  C   UNL     1     -13.148  12.228  70.393  1.00  0.00     0.552 C  
HETATM    9  C   UNL     1     -11.331  12.039  67.137  1.00  0.00    -0.333 C  
HETATM   10  C   UNL     1     -11.537  11.025  66.032  1.00  0.00     0.634 C  
HETATM   11  C   UNL     1     -10.359  12.983  67.159  1.00  0.00    -0.243 C  
HETATM   12  C   UNL     1     -10.295  14.017  68.293  1.00  0.00    -0.247 C  
BRANCH  11  13
HETATM   13  C   UNL     1      -9.325  12.941  66.093  1.00  0.00    -0.092 C  
HETATM   14  O   UNL     1      -8.961  13.939  65.491  1.00  0.00     0.601 OA 
BRANCH  13  15
HETATM   15  O   UNL     1      -8.791  11.705  65.950  1.00  0.00    -0.164 OA 
HETATM   16  C   UNL     1      -7.036   9.980  66.160  1.00  0.00    -0.108 C  
HETATM   17  C   UNL     1      -7.635  11.522  68.086  1.00  0.00    -0.113 C  
HETATM   18  C   UNL     1      -7.492  11.428  66.558  1.00  0.00    -0.068 C  
HETATM   19  C   UNL     1      -6.375  12.366  66.044  1.00  0.00     2.447 C  
BRANCH  16  20
HETATM   20  N   UNL     1      -7.867   8.820  66.575  1.00  0.00    -0.102 NA 
HETATM   21  C   UNL     1      -8.957   8.595  65.622  1.00  0.00    -0.182 C  
BRANCH  20  22
HETATM   22  C   UNL     1      -7.059   7.582  66.606  1.00  0.00    -0.078 C  
BRANCH  22  23
HETATM   23  C   UNL     1      -7.519   6.452  65.681  1.00  0.00    -0.082 C  
HETATM   24  C   UNL     1      -8.003   5.140  66.351  1.00  0.00    -0.104 C  
HETATM   25  C   UNL     1      -8.086   4.074  65.246  1.00  0.00    -0.101 A  
HETATM   26  C   UNL     1      -9.257   5.356  67.203  1.00  0.00    -0.111 A  
HETATM   27  C   UNL     1      -7.332   2.895  65.345  1.00  0.00    -0.071 A  
HETATM   28  C   UNL     1     -10.565   5.275  66.702  1.00  0.00    -0.334 A  
HETATM   29  C   UNL     1      -7.221   2.027  64.252  1.00  0.00    -0.056 A  
HETATM   30  C   UNL     1     -11.667   5.604  67.496  1.00  0.00     2.301 A  
HETATM   31  C   UNL     1     -11.488   6.019  68.809  1.00  0.00     0.210 A  
HETATM   32  C   UNL     1      -7.875   2.315  63.055  1.00  0.00    -0.063 A  
HETATM   33  C   UNL     1      -8.664   3.453  62.955  1.00  0.00    -0.089 A  
HETATM   34  C   UNL     1     -10.205   6.087  69.340  1.00  0.00    -0.269 A  
HETATM   35  C   UNL     1      -9.103   5.749  68.546  1.00  0.00    -0.116 A  
HETATM   36  C   UNL     1      -8.768   4.323  64.039  1.00  0.00    -0.127 A  
ENDBRANCH  22  23
ENDBRANCH  20  22
ENDBRANCH  16  20
ENDBRANCH  13  15
ENDBRANCH  11  13
BRANCH  12  37
HETATM   37  C   UNL     1      -8.863  14.173  68.813  1.00  0.00    -0.061 A  
HETATM   38  O   UNL     1      -7.024  11.125  70.935  1.00  0.00     0.528 OA 
HETATM   39  C   UNL     1      -8.232  13.097  69.467  1.00  0.00     1.219 A  
HETATM   40  O   UNL     1      -5.224  12.335  71.265  1.00  0.00    -0.201 OA 
HETATM   41  C   UNL     1      -6.883  15.527  69.210  1.00  0.00    -0.160 A  
HETATM   42  C   UNL     1      -6.962  13.262  70.034  1.00  0.00     0.586 A  
HETATM   43  N   UNL     1      -6.359  12.160  70.796  1.00  0.00     0.546 N  
HETATM   44  C   UNL     1      -6.282  14.476  69.904  1.00  0.00    -0.150 A  
HETATM   45  C   UNL     1      -8.165  15.379  68.673  1.00  0.00    -0.158 A  
ENDBRANCH  12  37
ENDBRANCH   3   5
ENDBRANCH   2   3
TORSDOF 8
ENDMDL
MODEL      286
REMARK 921   NORMALIZED FREE ENERGY PREDICTED BY IDOCK:    7.79 KCAL/MOL
REMARK 922        TOTAL FREE ENERGY PREDICTED BY IDOCK:    9.53 KCAL/MOL
REMARK 923 INTER-LIGAND FREE ENERGY PREDICTED BY IDOCK:    5.35 KCAL/MOL
REMARK 924 INTRA-LIGAND FREE ENERGY PREDICTED BY IDOCK:    4.17 KCAL/MOL
REMARK 927      BINDING AFFINITY PREDICTED BY RF-SCORE:    0.00 PKD
ROOT
HETATM    1  C   UNL     1      -8.424   9.447  71.254  1.00  0.00     0.257 C  
HETATM    2  O   UNL     1      -7.526   9.136  70.183  1.00  0.00    -0.061 OA 
ENDROOT
BRANCH   2   3
HETATM    3  C   UNL     1      -7.699   9.926  69.089  1.00  0.00    -0.098 C  
HETATM    4  O   UNL     1      -8.102   9.523  68.009  1.00  0.00    -0.101 OA 
BRANCH   3   5
HETATM    5  C   UNL     1      -7.336  11.337  69.393  1.00  0.00    -0.027 C  
HETATM    6  C   UNL     1      -6.210  11.637  70.086  1.00  0.00    -0.121 C  
HETATM    7  N   UNL     1      -5.869  12.962  70.293  1.00  0.00    -0.159 NA 
HETATM    8  C   UNL     1      -5.230  10.673  70.714  1.00  0.00    -0.087 C  
HETATM    9  C   UNL     1      -6.675  14.045  70.016  1.00  0.00     0.045 C  
HETATM   10  C   UNL     1      -6.125  15.385  70.456  1.00  0.00     0.016 C  
HETATM   11  C   UNL     1      -7.859  13.856  69.384  1.00  0.00     0.371 C  
HETATM   12  C   UNL     1      -8.280  12.458  68.906  1.00  0.00     0.215 C  
BRANCH  11  13
HETATM   13  C   UNL     1      -8.760  15.028  69.231  1.00  0.00    -0.161 C  
HETATM   14  O   UNL     1      -8.723  15.987  69.987  1.00  0.00     0.320 OA 
BRANCH  13  15
HETATM   15  O   UNL     1      -9.534  14.936  68.125  1.00  0.00    -0.194 OA 
HETATM   16  C   UNL     1     -10.526  15.730  66.007  1.00  0.00    -0.338 C  
HETATM   17  C   UNL     1      -8.054  16.010  66.515  1.00  0.00    -0.304 C  
HETATM   18  C   UNL     1      -9.464  16.003  67.129  1.00  0.00    -0.216 C  
HETATM   19  C   UNL     1      -9.825  17.391  67.708  1.00  0.00    -0.283 C  
BRANCH  16  20
HETATM   20  N   UNL     1     -10.418  14.491  65.195  1.00  0.00    -0.391 NA 
HETATM   21  C   UNL     1     -10.537  14.795  63.766  1.00  0.00     2.359 C  
BRANCH  20  22
HETATM   22  C   UNL     1      -9.099  13.851  65.389  1.00  0.00     1.045 C  
BRANCH  22  23
HETATM   23  C   UNL     1      -8.862  12.546  64.626  1.00  0.00     1.573 C  
HETATM   24  C   UNL     1      -9.808  11.358  64.939  1.00  0.00    -0.301 C  
HETATM   25  C   UNL     1      -9.176  10.101  64.318  1.00  0.00    -0.312 A  
HETATM   26  C   UNL     1     -11.261  11.663  64.563  1.00  0.00    -0.335 A  
HETATM   27  C   UNL     1      -8.848   9.003  65.127  1.00  0.00    -0.224 A  
HETATM   28  C   UNL     1     -11.806  11.421  63.293  1.00  0.00     0.124 A  
HETATM   29  C   UNL     1      -8.072   7.954  64.622  1.00  0.00    -0.125 A  
HETATM   30  C   UNL     1     -13.101  11.835  62.969  1.00  0.00     0.436 A  
HETATM   31  C   UNL     1     -13.882  12.497  63.907  1.00  0.00     2.188 A  
HETATM   32  C   UNL     1      -7.629   7.978  63.300  1.00  0.00    -0.130 A  
HETATM   33  C   UNL     1      -7.984   9.034  62.472  1.00  0.00    -0.134 A  
HETATM   34  C   UNL     1     -13.377  12.730  65.181  1.00  0.00     0.907 A  
HETATM   35  C   UNL     1     -12.083  12.308  65.506  1.00  0.00    -0.326 A  
HETATM   36  C   UNL     1      -8.750  10.084  62.976  1.00  0.00    -0.216 A  
ENDBRANCH  22  23
ENDBRANCH  20  22
ENDBRANCH  16  20
ENDBRANCH  13  15
ENDBRANCH  11  13
BRANCH  12  37
HETATM   37  C   UNL     1      -9.739  12.170  69.272  1.00  0.00     0.588 A  
HETATM   38  O   UNL     1     -11.912  14.813  71.611  1.00  0.00    -0.338 OA 
HETATM   39  C   UNL     1     -10.480  13.117  70.006  1.00  0.00     1.431 A  
HETATM   40  O   UNL     1     -13.662  13.491  71.616  1.00  0.00    -0.318 OA 
HETATM   41  C   UNL     1     -11.666  10.688  69.309  1.00  0.00    -0.336 A  
HETATM   42  C   UNL     1     -11.781  12.819  70.431  1.00  0.00    -0.012 A  
HETATM   43  N   UNL     1     -12.504  13.779  71.276  1.00  0.00    -0.357 N  
HETATM   44  C   UNL     1     -12.379  11.606  70.081  1.00  0.00    -0.297 A  
HETATM   45  C   UNL     1     -10.354  10.965  68.911  1.00  0.00    -0.222 A  
ENDBRANCH  12  37
ENDBRANCH   3   5
ENDBRANCH   2   3
TORSDOF 8
ENDMDL
MODEL      287
REMARK 921   NORMALIZED FREE ENERGY PREDICTED BY IDOCK:    8.20 KCAL/MOL
REMARK 922        TOTAL FREE ENERGY PREDICTED BY IDOCK:   10.12 KCAL/MOL
REMARK 923 INTER-LIGAND FREE ENERGY PREDICTED BY IDOCK:    6.83 KCAL/MOL
REMARK 924 INTRA-LIGAND FREE ENERGY PREDICTED BY IDOCK:    3.29 KCAL/MOL
REMARK 927      BINDING AFFINITY PREDICTED BY RF-SCORE:    0.00 PKD
ROOT
HETATM    1  C   UNL     1     -12.153   6.591  66.927  1.00  0.00     3.139 C  
HETATM    2  O   UNL     1     -11.442   7.795  67.232  1.00  0.00     0.567 OA 
ENDROOT
BRANCH   2   3
HETATM    3  C   UNL     1     -10.163   7.576  67.641  1.00  0.00    -0.213 C  
HETATM    4  O   UNL     1      -9.742   6.497  68.028  1.00  0.00    -0.119 OA 
BRANCH   3   5
HETATM    5  C   UNL     1      -9.357   8.823  67.548  1.00  0.00    -0.161 C  
HETATM    6  C   UNL     1      -9.225   9.488  66.373  1.00  0.00    -0.166 C  
HETATM    7  N   UNL     1      -8.523  10.679  66.337  1.00  0.00    -0.146 NA 
HETATM    8  C   UNL     1      -9.754   9.077  65.019  1.00  0.00     0.394 C  
HETATM    9  C   UNL     1      -7.762  11.187  67.369  1.00  0.00    -0.120 C  
HETATM   10  C   UNL     1      -6.984  12.442  67.036  1.00  0.00    -0.006 C  
HETATM   11  C   UNL     1      -7.764  10.565  68.573  1.00  0.00    -0.104 C  
HETATM   12  C   UNL     1      -8.660   9.343  68.825  1.00  0.00    -0.127 C  
BRANCH  11  13
HETATM   13  C   UNL     1      -6.824  11.061  69.612  1.00  0.00    -0.129 C  
HETATM   14  O   UNL     1      -5.764  10.506  69.858  1.00  0.00    -0.043 OA 
BRANCH  13  15
HETATM   15  O   UNL     1      -7.242  12.225  70.163  1.00  0.00     0.659 OA 
HETATM   16  C   UNL     1      -6.955  14.461  71.171  1.00  0.00     1.256 C  
HETATM   17  C   UNL     1      -5.676  13.755  69.095  1.00  0.00    -0.083 C  
HETATM   18  C   UNL     1      -6.254  13.267  70.433  1.00  0.00     0.018 C  
HETATM   19  C   UNL     1      -5.130  12.798  71.387  1.00  0.00    -0.162 C  
BRANCH  16  20
HETATM   20  N   UNL     1      -8.051  15.193  70.484  1.00  0.00     0.940 NA 
HETATM   21  C   UNL     1      -7.517  16.041  69.414  1.00  0.00    -0.201 C  
BRANCH  20  22
HETATM   22  C   UNL     1      -8.995  14.247  69.851  1.00  0.00     1.166 C  
BRANCH  22  23
HETATM   23  C   UNL     1      -9.374  14.540  68.398  1.00  0.00    -0.208 C  
HETATM   24  C   UNL     1     -10.626  15.421  68.154  1.00  0.00    -0.263 C  
HETATM   25  C   UNL     1     -10.985  15.294  66.664  1.00  0.00    -0.297 A  
HETATM   26  C   UNL     1     -10.451  16.838  68.708  1.00  0.00    -0.338 A  
HETATM   27  C   UNL     1     -12.245  14.812  66.280  1.00  0.00    -0.034 A  
HETATM   28  C   UNL     1      -9.888  17.897  67.979  1.00  0.00    -0.320 A  
HETATM   29  C   UNL     1     -12.503  14.478  64.946  1.00  0.00    -0.321 A  
HETATM   30  C   UNL     1      -9.637  19.135  68.576  1.00  0.00    -0.454 A  
HETATM   31  C   UNL     1      -9.947  19.346  69.914  1.00  0.00     0.352 A  
HETATM   32  C   UNL     1     -11.514  14.636  63.976  1.00  0.00     0.132 A  
HETATM   33  C   UNL     1     -10.276  15.157  64.330  1.00  0.00     0.881 A  
HETATM   34  C   UNL     1     -10.528  18.322  70.654  1.00  0.00     2.098 A  
HETATM   35  C   UNL     1     -10.784  17.085  70.053  1.00  0.00     0.188 A  
HETATM   36  C   UNL     1     -10.015  15.482  65.660  1.00  0.00    -0.394 A  
ENDBRANCH  22  23
ENDBRANCH  20  22
ENDBRANCH  16  20
ENDBRANCH  13  15
ENDBRANCH  11  13
BRANCH  12  37
HETATM   37  C   UNL     1      -7.884   8.232  69.539  1.00  0.00    -0.103 A  
HETATM   38  O   UNL     1      -6.421   4.969  67.445  1.00  0.00    -0.042 OA 
HETATM   39  C   UNL     1      -7.333   7.170  68.796  1.00  0.00    -0.096 A  
HETATM   40  O   UNL     1      -5.661   4.036  69.278  1.00  0.00    -0.015 OA 
HETATM   41  C   UNL     1      -7.074   7.181  71.576  1.00  0.00    -0.069 A  
HETATM   42  C   UNL     1      -6.710   6.100  69.450  1.00  0.00    -0.060 A  
HETATM   43  N   UNL     1      -6.226   4.955  68.668  1.00  0.00    -0.030 N  
HETATM   44  C   UNL     1      -6.575   6.104  70.841  1.00  0.00    -0.053 A  
HETATM   45  C   UNL     1      -7.728   8.235  70.931  1.00  0.00    -0.082 A  
ENDBRANCH  12  37
ENDBRANCH   3   5
ENDBRANCH   2   3
TORSDOF 8
ENDMDL
MODEL      288
REMARK 921   NORMALIZED FREE ENERGY PREDICTED BY IDOCK:    8.24 KCAL/MOL
REMARK 922        TOTAL FREE ENERGY PREDICTED BY IDOCK:   10.19 KCAL/MOL
REMARK 923 INTER-LIGAND FREE ENERGY PREDICTED BY IDOCK:   -0.23 KCAL/MOL
REMARK 924 INTRA-LIGAND FREE ENERGY PREDICTED BY IDOCK:   10.42 KCAL/MOL
REMARK 927      BINDING AFFINITY PREDICTED BY RF-SCORE:    0.00 PKD
ROOT
HETATM    1  C   UNL     1      -8.467   7.961  71.488  1.00  0.00    -0.114 C  
HETATM    2  O   UNL     1      -9.273   6.791  71.662  1.00  0.00    -0.145 OA 
ENDROOT
BRANCH   2   3
HETATM    3  C   UNL     1      -8.838   5.726  70.937  1.00  0.00    -0.141 C  
HETATM    4  O   UNL     1      -8.151   4.822  71.388  1.00  0.00    -0.097 OA 
BRANCH   3   5
HETATM    5  C   UNL     1      -9.315   5.813  69.530  1.00  0.00    -0.157 C  
HETATM    6  C   UNL     1      -9.831   4.731  68.896  1.00  0.00    -0.160 C  
HETATM    7  N   UNL     1     -10.326   4.864  67.611  1.00  0.00    -0.077 NA 
HETATM    8  C   UNL     1      -9.932   3.318  69.421  1.00  0.00     0.453 C  
HETATM    9  C   UNL     1     -10.179   5.978  66.812  1.00  0.00    -0.214 C  
HETATM   10  C   UNL     1     -10.695   5.827  65.398  1.00  0.00     1.383 C  
HETATM   11  C   UNL     1      -9.613   7.099  67.322  1.00  0.00    -0.179 C  
HETATM   12  C   UNL     1      -9.200   7.169  68.799  1.00  0.00    -0.136 C  
BRANCH  11  13
HETATM   13  C   UNL     1      -9.344   8.226  66.390  1.00  0.00    -0.213 C  
HETATM   14  O   UNL     1      -8.492   8.167  65.517  1.00  0.00    -0.148 OA 
BRANCH  13  15
HETATM   15  O   UNL     1     -10.206   9.254  66.572  1.00  0.00    -0.269 OA 
HETATM   16  C   UNL     1     -11.145  11.215  67.744  1.00  0.00    -0.285 C  
HETATM   17  C   UNL     1      -8.646  10.940  67.385  1.00  0.00    -0.127 C  
HETATM   18  C   UNL     1      -9.959  10.190  67.667  1.00  0.00    -0.181 C  
HETATM   19  C   UNL     1      -9.920   9.501  69.051  1.00  0.00    -0.185 C  
BRANCH  16  20
HETATM   20  N   UNL     1     -11.411  12.102  66.582  1.00  0.00    -0.331 NA 
HETATM   21  C   UNL     1     -11.350  11.347  65.327  1.00  0.00     0.002 C  
BRANCH  20  22
HETATM   22  C   UNL     1     -12.768  12.683  66.668  1.00  0.00     1.258 C  
BRANCH  22  23
HETATM   23  C   UNL     1     -13.132  13.359  67.991  1.00  0.00     2.864 C  
HETATM   24  C   UNL     1     -11.989  13.570  69.018  1.00  0.00    -0.376 C  
HETATM   25  C   UNL     1     -12.648  13.944  70.356  1.00  0.00    -0.350 A  
HETATM   26  C   UNL     1     -10.905  14.514  68.489  1.00  0.00    -0.256 A  
HETATM   27  C   UNL     1     -12.433  13.153  71.494  1.00  0.00    -0.199 A  
HETATM   28  C   UNL     1     -10.944  15.908  68.640  1.00  0.00    -0.320 A  
HETATM   29  C   UNL     1     -13.197  13.346  72.650  1.00  0.00    -0.436 A  
HETATM   30  C   UNL     1      -9.993  16.730  68.029  1.00  0.00    -0.272 A  
HETATM   31  C   UNL     1      -8.979  16.177  67.256  1.00  0.00    -0.210 A  
HETATM   32  C   UNL     1     -14.173  14.341  72.692  1.00  0.00    -0.134 A  
HETATM   33  C   UNL     1     -14.366  15.165  71.591  1.00  0.00    -0.685 A  
HETATM   34  C   UNL     1      -8.903  14.797  67.108  1.00  0.00    -0.234 A  
HETATM   35  C   UNL     1      -9.852  13.976  67.727  1.00  0.00    -0.232 A  
HETATM   36  C   UNL     1     -13.612  14.968  70.436  1.00  0.00     0.177 A  
ENDBRANCH  22  23
ENDBRANCH  20  22
ENDBRANCH  16  20
ENDBRANCH  13  15
ENDBRANCH  11  13
BRANCH  12  37
HETATM   37  C   UNL     1      -7.802   7.778  68.950  1.00  0.00    -0.122 A  
HETATM   38  O   UNL     1      -7.296  11.597  70.478  1.00  0.00     1.060 OA 
HETATM   39  C   UNL     1      -7.649   9.048  69.540  1.00  0.00    -0.077 A  
HETATM   40  O   UNL     1      -5.125  11.515  70.172  1.00  0.00    -0.066 OA 
HETATM   41  C   UNL     1      -5.402   7.701  68.577  1.00  0.00    -0.026 A  
HETATM   42  C   UNL     1      -6.388   9.654  69.591  1.00  0.00    -0.045 A  
HETATM   43  N   UNL     1      -6.261  11.018  70.122  1.00  0.00    -0.136 N  
HETATM   44  C   UNL     1      -5.260   8.982  69.114  1.00  0.00    -0.036 A  
HETATM   45  C   UNL     1      -6.663   7.105  68.491  1.00  0.00    -0.060 A  
ENDBRANCH  12  37
ENDBRANCH   3   5
ENDBRANCH   2   3
TORSDOF 8
ENDMDL
MODEL      289
REMARK 921   NORMALIZED FREE ENERGY PREDICTED BY IDOCK:    8.46 KCAL/MOL
REMARK 922        TOTAL FREE ENERGY PREDICTED BY IDOCK:   10.50 KCAL/MOL
REMARK 923 INTER-LIGAND FREE ENERGY PREDICTED BY IDOCK:   -2.96 KCAL/MOL
REMARK 924 INTRA-LIGAND FREE ENERGY PREDICTED BY IDOCK:   13.47 KCAL/MOL
REMARK 927      BINDING AFFINITY PREDICTED BY RF-SCORE:    0.00 PKD
ROOT
HETATM    1  C   UNL     1      -7.812   9.314  62.606  1.00  0.00    -0.122 C  
HETATM    2  O   UNL     1      -6.644  10.118  62.803  1.00  0.00    -0.121 OA 
ENDROOT
BRANCH   2   3
HETATM    3  C   UNL     1      -6.276  10.220  64.109  1.00  0.00    -0.107 C  
HETATM    4  O   UNL     1      -5.529  11.081  64.546  1.00  0.00    -0.117 OA 
BRANCH   3   5
HETATM    5  C   UNL     1      -6.908   9.145  64.922  1.00  0.00    -0.081 C  
HETATM    6  C   UNL     1      -7.701   8.206  64.348  1.00  0.00    -0.126 C  
HETATM    7  N   UNL     1      -8.219   7.184  65.123  1.00  0.00    -0.132 NA 
HETATM    8  C   UNL     1      -8.137   8.127  62.904  1.00  0.00    -0.143 C  
HETATM    9  C   UNL     1      -8.159   7.118  66.499  1.00  0.00    -0.114 C  
HETATM   10  C   UNL     1      -8.916   5.965  67.121  1.00  0.00    -0.113 C  
HETATM   11  C   UNL     1      -7.448   8.046  67.185  1.00  0.00    -0.092 C  
HETATM   12  C   UNL     1      -6.647   9.127  66.444  1.00  0.00    -0.067 C  
BRANCH  11  13
HETATM   13  C   UNL     1      -7.526   8.023  68.669  1.00  0.00    -0.098 C  
HETATM   14  O   UNL     1      -6.533   7.961  69.378  1.00  0.00    -0.034 OA 
BRANCH  13  15
HETATM   15  O   UNL     1      -8.795   8.170  69.115  1.00  0.00    -0.142 OA 
HETATM   16  C   UNL     1     -10.555   8.450  70.825  1.00  0.00    -0.207 C  
HETATM   17  C   UNL     1      -8.408   9.805  70.879  1.00  0.00     0.421 C  
HETATM   18  C   UNL     1      -9.013   8.434  70.535  1.00  0.00    -0.150 C  
HETATM   19  C   UNL     1      -8.435   7.327  71.448  1.00  0.00    -0.114 C  
BRANCH  16  20
HETATM   20  N   UNL     1     -11.407   9.464  70.150  1.00  0.00    -0.222 NA 
HETATM   21  C   UNL     1     -11.883   8.964  68.857  1.00  0.00     1.601 C  
BRANCH  20  22
HETATM   22  C   UNL     1     -12.605   9.764  70.963  1.00  0.00    -0.314 C  
BRANCH  22  23
HETATM   23  C   UNL     1     -12.968  11.243  71.112  1.00  0.00    -0.369 C  
HETATM   24  C   UNL     1     -11.955  12.281  70.562  1.00  0.00    -0.296 C  
HETATM   25  C   UNL     1     -12.370  13.654  71.116  1.00  0.00    -0.403 A  
HETATM   26  C   UNL     1     -11.780  12.168  69.045  1.00  0.00    -0.377 A  
HETATM   27  C   UNL     1     -11.476  14.398  71.900  1.00  0.00     0.552 A  
HETATM   28  C   UNL     1     -12.581  12.847  68.114  1.00  0.00     0.880 A  
HETATM   29  C   UNL     1     -11.912  15.532  72.594  1.00  0.00    -0.562 A  
HETATM   30  C   UNL     1     -12.458  12.610  66.743  1.00  0.00     0.491 A  
HETATM   31  C   UNL     1     -11.529  11.692  66.269  1.00  0.00    -0.217 A  
HETATM   32  C   UNL     1     -13.239  15.948  72.502  1.00  0.00    -0.521 A  
HETATM   33  C   UNL     1     -14.127  15.251  71.693  1.00  0.00    -0.640 A  
HETATM   34  C   UNL     1     -10.706  11.022  67.166  1.00  0.00    -0.313 A  
HETATM   35  C   UNL     1     -10.826  11.266  68.539  1.00  0.00    -0.245 A  
HETATM   36  C   UNL     1     -13.697  14.116  71.008  1.00  0.00    -0.101 A  
ENDBRANCH  22  23
ENDBRANCH  20  22
ENDBRANCH  16  20
ENDBRANCH  13  15
ENDBRANCH  11  13
BRANCH  12  37
HETATM   37  C   UNL     1      -6.872  10.505  67.074  1.00  0.00    -0.087 A  
HETATM   38  O   UNL     1      -5.760  11.263  70.994  1.00  0.00    -0.316 OA 
HETATM   39  C   UNL     1      -6.419  10.762  68.383  1.00  0.00    -0.054 A  
HETATM   40  O   UNL     1      -6.568  13.301  70.910  1.00  0.00     0.329 OA 
HETATM   41  C   UNL     1      -7.800  12.750  66.993  1.00  0.00    -0.022 A  
HETATM   42  C   UNL     1      -6.709  11.984  69.003  1.00  0.00    -0.100 A  
HETATM   43  N   UNL     1      -6.314  12.199  70.402  1.00  0.00     0.092 N  
HETATM   44  C   UNL     1      -7.396  12.983  68.309  1.00  0.00    -0.116 A  
HETATM   45  C   UNL     1      -7.544  11.520  66.382  1.00  0.00     0.027 A  
ENDBRANCH  12  37
ENDBRANCH   3   5
ENDBRANCH   2   3
TORSDOF 8
ENDMDL
MODEL      290
REMARK 921   NORMALIZED FREE ENERGY PREDICTED BY IDOCK:    9.68 KCAL/MOL
REMARK 922        TOTAL FREE ENERGY PREDICTED BY IDOCK:   12.29 KCAL/MOL
REMARK 923 INTER-LIGAND FREE ENERGY PREDICTED BY IDOCK:    0.42 KCAL/MOL
REMARK 924 INTRA-LIGAND FREE ENERGY PREDICTED BY IDOCK:   11.87 KCAL/MOL
REMARK 927      BINDING AFFINITY PREDICTED BY RF-SCORE:    0.00 PKD
ROOT
HETATM    1  C   UNL     1      -6.416   8.374  71.423  1.00  0.00    -0.051 C  
HETATM    2  O   UNL     1      -7.014   9.670  71.530  1.00  0.00    -0.316 OA 
ENDROOT
BRANCH   2   3
HETATM    3  C   UNL     1      -6.106  10.682  71.544  1.00  0.00     0.614 C  
HETATM    4  O   UNL     1      -5.252  10.827  72.406  1.00  0.00    -0.317 OA 
BRANCH   3   5
HETATM    5  C   UNL     1      -6.294  11.579  70.371  1.00  0.00     0.087 C  
HETATM    6  C   UNL     1      -6.316  12.927  70.515  1.00  0.00     0.351 C  
HETATM    7  N   UNL     1      -6.427  13.731  69.395  1.00  0.00    -0.110 NA 
HETATM    8  C   UNL     1      -6.251  13.717  71.802  1.00  0.00     0.885 C  
HETATM    9  C   UNL     1      -6.709  13.288  68.120  1.00  0.00    -0.114 C  
HETATM   10  C   UNL     1      -6.908  14.379  67.091  1.00  0.00     0.390 C  
HETATM   11  C   UNL     1      -6.778  11.958  67.873  1.00  0.00    -0.079 C  
HETATM   12  C   UNL     1      -6.474  10.936  68.978  1.00  0.00    -0.057 C  
BRANCH  11  13
HETATM   13  C   UNL     1      -7.222  11.525  66.522  1.00  0.00    -0.009 C  
HETATM   14  O   UNL     1      -6.451  11.073  65.690  1.00  0.00    -0.036 OA 
BRANCH  13  15
HETATM   15  O   UNL     1      -8.566  11.608  66.377  1.00  0.00    -0.185 OA 
HETATM   16  C   UNL     1     -10.820  10.765  65.823  1.00  0.00    -0.006 C  
HETATM   17  C   UNL     1      -9.193   9.414  67.229  1.00  0.00    -0.151 C  
HETATM   18  C   UNL     1      -9.312  10.395  66.051  1.00  0.00    -0.178 C  
HETATM   19  C   UNL     1      -8.845   9.738  64.731  1.00  0.00    -0.239 C  
BRANCH  16  20
HETATM   20  N   UNL     1     -11.596  11.359  66.942  1.00  0.00    -0.483 NA 
HETATM   21  C   UNL     1     -10.804  11.370  68.175  1.00  0.00    -0.213 C  
BRANCH  20  22
HETATM   22  C   UNL     1     -11.950  12.764  66.646  1.00  0.00    -0.341 C  
BRANCH  22  23
HETATM   23  C   UNL     1     -12.084  13.696  67.851  1.00  0.00    -0.318 C  
HETATM   24  C   UNL     1     -10.855  14.569  68.215  1.00  0.00    -0.247 C  
HETATM   25  C   UNL     1     -11.110  15.147  69.617  1.00  0.00    -0.283 A  
HETATM   26  C   UNL     1     -10.507  15.565  67.105  1.00  0.00    -0.286 A  
HETATM   27  C   UNL     1     -10.215  14.880  70.664  1.00  0.00     0.500 A  
HETATM   28  C   UNL     1     -11.061  16.850  67.008  1.00  0.00     0.195 A  
HETATM   29  C   UNL     1     -10.548  15.204  71.984  1.00  0.00     1.062 A  
HETATM   30  C   UNL     1     -10.803  17.670  65.907  1.00  0.00     0.027 A  
HETATM   31  C   UNL     1      -9.982  17.226  64.877  1.00  0.00     1.776 A  
HETATM   32  C   UNL     1     -11.768  15.813  72.274  1.00  0.00    -0.580 A  
HETATM   33  C   UNL     1     -12.645  16.128  71.244  1.00  0.00     0.024 A  
HETATM   34  C   UNL     1      -9.400  15.966  64.957  1.00  0.00     1.227 A  
HETATM   35  C   UNL     1      -9.654  15.150  66.065  1.00  0.00    -0.365 A  
HETATM   36  C   UNL     1     -12.319  15.798  69.930  1.00  0.00    -0.204 A  
ENDBRANCH  22  23
ENDBRANCH  20  22
ENDBRANCH  16  20
ENDBRANCH  13  15
ENDBRANCH  11  13
BRANCH  12  37
HETATM   37  C   UNL     1      -7.524   9.821  68.999  1.00  0.00    -0.080 A  
HETATM   38  O   UNL     1     -11.075  10.280  71.087  1.00  0.00    -0.223 OA 
HETATM   39  C   UNL     1      -8.754  10.028  69.653  1.00  0.00    -0.210 A  
HETATM   40  O   UNL     1     -11.719   8.243  70.591  1.00  0.00    -0.254 OA 
HETATM   41  C   UNL     1      -8.221   7.551  68.481  1.00  0.00    -0.125 A  
HETATM   42  C   UNL     1      -9.678   8.981  69.765  1.00  0.00    -0.175 A  
HETATM   43  N   UNL     1     -10.914   9.185  70.533  1.00  0.00    -0.245 N  
HETATM   44  C   UNL     1      -9.417   7.742  69.176  1.00  0.00    -0.151 A  
HETATM   45  C   UNL     1      -7.280   8.581  68.397  1.00  0.00    -0.085 A  
ENDBRANCH  12  37
ENDBRANCH   3   5
ENDBRANCH   2   3
TORSDOF 8
ENDMDL
MODEL      291
REMARK 921   NORMALIZED FREE ENERGY PREDICTED BY IDOCK:    9.73 KCAL/MOL
REMARK 922        TOTAL FREE ENERGY PREDICTED BY IDOCK:   12.37 KCAL/MOL
REMARK 923 INTER-LIGAND FREE ENERGY PREDICTED BY IDOCK:    8.60 KCAL/MOL
REMARK 924 INTRA-LIGAND FREE ENERGY PREDICTED BY IDOCK:    3.77 KCAL/MOL
REMARK 927      BINDING AFFINITY PREDICTED BY RF-SCORE:    0.00 PKD
ROOT
HETATM    1  C   UNL     1      -6.027   9.991  71.419  1.00  0.00     0.088 C  
HETATM    2  O   UNL     1      -6.759   8.899  70.852  1.00  0.00    -0.053 OA 
ENDROOT
BRANCH   2   3
HETATM    3  C   UNL     1      -8.066   8.875  71.228  1.00  0.00    -0.139 C  
HETATM    4  O   UNL     1      -8.457   9.090  72.365  1.00  0.00    -0.344 OA 
BRANCH   3   5
HETATM    5  C   UNL     1      -8.944   8.558  70.070  1.00  0.00    -0.142 C  
HETATM    6  C   UNL     1      -8.929   7.330  69.494  1.00  0.00    -0.144 C  
HETATM    7  N   UNL     1      -9.806   7.049  68.462  1.00  0.00    -0.144 NA 
HETATM    8  C   UNL     1      -8.026   6.166  69.831  1.00  0.00    -0.114 C  
HETATM    9  C   UNL     1     -10.595   7.974  67.812  1.00  0.00    -0.170 C  
HETATM   10  C   UNL     1     -11.370   7.439  66.628  1.00  0.00     1.316 C  
HETATM   11  C   UNL     1     -10.637   9.252  68.261  1.00  0.00    -0.237 C  
HETATM   12  C   UNL     1      -9.872   9.667  69.527  1.00  0.00    -0.219 C  
BRANCH  11  13
HETATM   13  C   UNL     1     -11.386  10.248  67.450  1.00  0.00     0.126 C  
HETATM   14  O   UNL     1     -11.971  11.196  67.951  1.00  0.00    -0.624 OA 
BRANCH  13  15
HETATM   15  O   UNL     1     -11.258  10.024  66.121  1.00  0.00     0.425 OA 
HETATM   16  C   UNL     1     -11.615  10.488  63.723  1.00  0.00     2.651 C  
HETATM   17  C   UNL     1     -10.968  12.318  65.358  1.00  0.00    -0.341 C  
HETATM   18  C   UNL     1     -11.777  11.022  65.189  1.00  0.00     0.889 C  
HETATM   19  C   UNL     1     -13.291  11.283  65.368  1.00  0.00     6.462 C  
BRANCH  16  20
HETATM   20  N   UNL     1     -10.253  10.202  63.202  1.00  0.00     0.481 NA 
HETATM   21  C   UNL     1      -9.735  11.348  62.448  1.00  0.00     0.306 C  
BRANCH  20  22
HETATM   22  C   UNL     1      -9.309   9.957  64.313  1.00  0.00    -0.253 C  
BRANCH  22  23
HETATM   23  C   UNL     1      -9.075   8.492  64.691  1.00  0.00     0.351 C  
HETATM   24  C   UNL     1      -7.619   7.964  64.617  1.00  0.00    -0.109 C  
HETATM   25  C   UNL     1      -7.690   6.431  64.710  1.00  0.00    -0.105 A  
HETATM   26  C   UNL     1      -6.695   8.678  65.607  1.00  0.00    -0.064 A  
HETATM   27  C   UNL     1      -7.174   5.637  63.675  1.00  0.00    -0.054 A  
HETATM   28  C   UNL     1      -6.501   8.262  66.933  1.00  0.00    -0.057 A  
HETATM   29  C   UNL     1      -7.432   4.262  63.637  1.00  0.00    -0.055 A  
HETATM   30  C   UNL     1      -5.745   9.022  67.829  1.00  0.00    -0.039 A  
HETATM   31  C   UNL     1      -5.163  10.216  67.420  1.00  0.00    -0.041 A  
HETATM   32  C   UNL     1      -8.192   3.659  64.639  1.00  0.00    -0.090 A  
HETATM   33  C   UNL     1      -8.670   4.422  65.696  1.00  0.00    -0.121 A  
HETATM   34  C   UNL     1      -5.319  10.642  66.106  1.00  0.00    -0.091 A  
HETATM   35  C   UNL     1      -6.070   9.875  65.209  1.00  0.00    -0.091 A  
HETATM   36  C   UNL     1      -8.422   5.793  65.731  1.00  0.00    -0.143 A  
ENDBRANCH  22  23
ENDBRANCH  20  22
ENDBRANCH  16  20
ENDBRANCH  13  15
ENDBRANCH  11  13
BRANCH  12  37
HETATM   37  C   UNL     1      -9.117  10.981  69.307  1.00  0.00     0.074 A  
HETATM   38  O   UNL     1     -11.027  14.295  67.710  1.00  0.00    -0.256 OA 
HETATM   39  C   UNL     1      -9.804  12.115  68.832  1.00  0.00     0.068 A  
HETATM   40  O   UNL     1      -9.171  15.463  67.717  1.00  0.00    -0.182 OA 
HETATM   41  C   UNL     1      -7.053  12.264  69.280  1.00  0.00     0.061 A  
HETATM   42  C   UNL     1      -9.103  13.290  68.533  1.00  0.00    -0.064 A  
HETATM   43  N   UNL     1      -9.820  14.432  67.948  1.00  0.00    -0.220 N  
HETATM   44  C   UNL     1      -7.727  13.370  68.759  1.00  0.00    -0.037 A  
HETATM   45  C   UNL     1      -7.741  11.077  69.547  1.00  0.00     0.039 A  
ENDBRANCH  12  37
ENDBRANCH   3   5
ENDBRANCH   2   3
TORSDOF 8
ENDMDL
MODEL      292
REMARK 921   NORMALIZED FREE ENERGY PREDICTED BY IDOCK:   10.27 KCAL/MOL
REMARK 922        TOTAL FREE ENERGY PREDICTED BY IDOCK:   13.16 KCAL/MOL
REMARK 923 INTER-LIGAND FREE ENERGY PREDICTED BY IDOCK:   10.54 KCAL/MOL
REMARK 924 INTRA-LIGAND FREE ENERGY PREDICTED BY IDOCK:    2.62 KCAL/MOL
REMARK 927      BINDING AFFINITY PREDICTED BY RF-SCORE:    0.00 PKD
ROOT
HETATM    1  C   UNL     1      -9.404  14.988  72.478  1.00  0.00     6.689 C  
HETATM    2  O   UNL     1      -9.111  15.455  71.157  1.00  0.00     1.897 OA 
ENDROOT
BRANCH   2   3
HETATM    3  C   UNL     1     -10.218  15.609  70.383  1.00  0.00     0.012 C  
HETATM    4  O   UNL     1     -10.537  16.657  69.842  1.00  0.00    -0.275 OA 
BRANCH   3   5
HETATM    5  C   UNL     1     -10.978  14.334  70.287  1.00  0.00     0.154 C  
HETATM    6  C   UNL     1     -11.841  13.956  71.263  1.00  0.00     0.136 C  
HETATM    7  N   UNL     1     -12.580  12.797  71.110  1.00  0.00    -0.340 NA 
HETATM    8  C   UNL     1     -12.110  14.655  72.575  1.00  0.00    -0.239 C  
HETATM    9  C   UNL     1     -12.393  11.857  70.118  1.00  0.00    -0.171 C  
HETATM   10  C   UNL     1     -13.242  10.612  70.245  1.00  0.00     0.125 C  
HETATM   11  C   UNL     1     -11.504  12.099  69.124  1.00  0.00    -0.352 C  
HETATM   12  C   UNL     1     -10.755  13.438  69.048  1.00  0.00    -0.160 C  
BRANCH  11  13
HETATM   13  C   UNL     1     -11.229  11.005  68.157  1.00  0.00    -0.302 C  
HETATM   14  O   UNL     1     -11.506  11.091  66.971  1.00  0.00    -0.415 OA 
BRANCH  13  15
HETATM   15  O   UNL     1     -10.567   9.973  68.731  1.00  0.00    -0.200 OA 
HETATM   16  C   UNL     1      -9.539   7.728  68.802  1.00  0.00    -0.154 C  
HETATM   17  C   UNL     1      -9.160   9.313  66.855  1.00  0.00    -0.158 C  
HETATM   18  C   UNL     1     -10.185   8.835  67.897  1.00  0.00    -0.219 C  
HETATM   19  C   UNL     1     -11.395   8.155  67.216  1.00  0.00     1.095 C  
BRANCH  16  20
HETATM   20  N   UNL     1      -8.295   8.042  69.552  1.00  0.00    -0.125 NA 
HETATM   21  C   UNL     1      -8.170   7.181  70.732  1.00  0.00    -0.120 C  
BRANCH  20  22
HETATM   22  C   UNL     1      -7.102   7.796  68.713  1.00  0.00    -0.076 C  
BRANCH  22  23
HETATM   23  C   UNL     1      -7.324   6.957  67.452  1.00  0.00    -0.092 C  
HETATM   24  C   UNL     1      -6.227   5.924  67.085  1.00  0.00    -0.034 C  
HETATM   25  C   UNL     1      -6.505   5.464  65.644  1.00  0.00    -0.040 A  
HETATM   26  C   UNL     1      -6.085   4.831  68.148  1.00  0.00    -0.031 A  
HETATM   27  C   UNL     1      -5.534   5.641  64.647  1.00  0.00    -0.013 A  
HETATM   28  C   UNL     1      -6.833   3.644  68.152  1.00  0.00    -0.047 A  
HETATM   29  C   UNL     1      -5.854   5.439  63.300  1.00  0.00    -0.014 A  
HETATM   30  C   UNL     1      -6.752   2.740  69.215  1.00  0.00    -0.033 A  
HETATM   31  C   UNL     1      -5.920   2.999  70.296  1.00  0.00    -0.019 A  
HETATM   32  C   UNL     1      -7.138   5.041  62.932  1.00  0.00    -0.042 A  
HETATM   33  C   UNL     1      -8.098   4.815  63.909  1.00  0.00    -0.108 A  
HETATM   34  C   UNL     1      -5.149   4.157  70.309  1.00  0.00     0.000 A  
HETATM   35  C   UNL     1      -5.226   5.057  69.240  1.00  0.00     0.000 A  
HETATM   36  C   UNL     1      -7.785   5.024  65.251  1.00  0.00    -0.087 A  
ENDBRANCH  22  23
ENDBRANCH  20  22
ENDBRANCH  16  20
ENDBRANCH  13  15
ENDBRANCH  11  13
BRANCH  12  37
HETATM   37  C   UNL     1      -9.266  13.219  68.768  1.00  0.00     0.127 A  
HETATM   38  O   UNL     1      -7.964  11.928  65.050  1.00  0.00     1.278 OA 
HETATM   39  C   UNL     1      -8.840  12.852  67.476  1.00  0.00    -0.192 A  
HETATM   40  O   UNL     1      -5.879  11.842  65.725  1.00  0.00     0.164 OA 
HETATM   41  C   UNL     1      -6.960  13.088  69.525  1.00  0.00     0.184 A  
HETATM   42  C   UNL     1      -7.494  12.551  67.236  1.00  0.00    -0.125 A  
HETATM   43  N   UNL     1      -7.083  12.077  65.907  1.00  0.00     1.120 N  
HETATM   44  C   UNL     1      -6.549  12.673  68.258  1.00  0.00    -0.079 A  
HETATM   45  C   UNL     1      -8.308  13.354  69.780  1.00  0.00     1.816 A  
ENDBRANCH  12  37
ENDBRANCH   3   5
ENDBRANCH   2   3
TORSDOF 8
ENDMDL
MODEL      293
REMARK 921   NORMALIZED FREE ENERGY PREDICTED BY IDOCK:   10.70 KCAL/MOL
REMARK 922        TOTAL FREE ENERGY PREDICTED BY IDOCK:   13.79 KCAL/MOL
REMARK 923 INTER-LIGAND FREE ENERGY PREDICTED BY IDOCK:    2.00 KCAL/MOL
REMARK 924 INTRA-LIGAND FREE ENERGY PREDICTED BY IDOCK:   11.80 KCAL/MOL
REMARK 927      BINDING AFFINITY PREDICTED BY RF-SCORE:    0.00 PKD
ROOT
HETATM    1  C   UNL     1      -9.570  13.398  64.183  1.00  0.00     1.360 C  
HETATM    2  O   UNL     1     -10.060  12.371  65.053  1.00  0.00    -0.277 OA 
ENDROOT
BRANCH   2   3
HETATM    3  C   UNL     1     -11.263  12.671  65.613  1.00  0.00    -0.309 C  
HETATM    4  O   UNL     1     -12.163  13.257  65.033  1.00  0.00    -0.384 OA 
BRANCH   3   5
HETATM    5  C   UNL     1     -11.328  12.185  67.018  1.00  0.00    -0.398 C  
HETATM    6  C   UNL     1     -12.114  12.799  67.937  1.00  0.00    -0.132 C  
HETATM    7  N   UNL     1     -12.201  12.281  69.217  1.00  0.00    -0.136 NA 
HETATM    8  C   UNL     1     -12.942  14.049  67.752  1.00  0.00     1.890 C  
HETATM    9  C   UNL     1     -11.404  11.278  69.726  1.00  0.00    -0.271 C  
HETATM   10  C   UNL     1     -11.607  10.980  71.196  1.00  0.00     0.292 C  
HETATM   11  C   UNL     1     -10.529  10.638  68.913  1.00  0.00    -0.232 C  
HETATM   12  C   UNL     1     -10.466  10.965  67.414  1.00  0.00    -0.263 C  
BRANCH  11  13
HETATM   13  C   UNL     1      -9.592   9.664  69.531  1.00  0.00    -0.198 C  
HETATM   14  O   UNL     1      -8.766   9.989  70.370  1.00  0.00    -0.048 OA 
BRANCH  13  15
HETATM   15  O   UNL     1      -9.832   8.396  69.123  1.00  0.00    -0.175 OA 
HETATM   16  C   UNL     1     -11.010   6.629  67.862  1.00  0.00    -0.257 C  
HETATM   17  C   UNL     1     -10.332   8.822  66.777  1.00  0.00    -0.328 C  
HETATM   18  C   UNL     1     -10.830   8.173  68.079  1.00  0.00     0.058 C  
HETATM   19  C   UNL     1     -12.232   8.700  68.463  1.00  0.00     3.834 C  
BRANCH  16  20
HETATM   20  N   UNL     1      -9.848   5.821  67.409  1.00  0.00    -0.129 NA 
HETATM   21  C   UNL     1      -8.607   6.311  68.016  1.00  0.00    -0.116 C  
BRANCH  20  22
HETATM   22  C   UNL     1     -10.000   4.409  67.821  1.00  0.00    -0.037 C  
BRANCH  22  23
HETATM   23  C   UNL     1      -9.033   3.912  68.898  1.00  0.00    -0.174 C  
HETATM   24  C   UNL     1      -8.746   4.862  70.089  1.00  0.00    -0.118 C  
HETATM   25  C   UNL     1      -7.526   4.297  70.834  1.00  0.00    -0.051 A  
HETATM   26  C   UNL     1     -10.002   5.138  70.921  1.00  0.00    -0.280 A  
HETATM   27  C   UNL     1      -6.367   5.074  70.983  1.00  0.00    -0.023 A  
HETATM   28  C   UNL     1     -10.415   4.339  71.998  1.00  0.00    -0.096 A  
HETATM   29  C   UNL     1      -5.181   4.500  71.452  1.00  0.00    -0.004 A  
HETATM   30  C   UNL     1     -11.635   4.565  72.642  1.00  0.00     0.191 A  
HETATM   31  C   UNL     1     -12.468   5.596  72.227  1.00  0.00     0.398 A  
HETATM   32  C   UNL     1      -5.138   3.150  71.796  1.00  0.00     0.000 A  
HETATM   33  C   UNL     1      -6.288   2.377  71.700  1.00  0.00    -0.015 A  
HETATM   34  C   UNL     1     -12.073   6.418  71.178  1.00  0.00    -0.211 A  
HETATM   35  C   UNL     1     -10.848   6.195  70.539  1.00  0.00    -0.364 A  
HETATM   36  C   UNL     1      -7.469   2.944  71.224  1.00  0.00    -0.036 A  
ENDBRANCH  22  23
ENDBRANCH  20  22
ENDBRANCH  16  20
ENDBRANCH  13  15
ENDBRANCH  11  13
BRANCH  12  37
HETATM   37  C   UNL     1      -9.016  11.119  66.946  1.00  0.00    -0.164 A  
HETATM   38  O   UNL     1      -7.410   8.564  64.106  1.00  0.00    -0.095 OA 
HETATM   39  C   UNL     1      -8.514  10.287  65.926  1.00  0.00    -0.154 A  
HETATM   40  O   UNL     1      -5.438   9.514  64.254  1.00  0.00    -0.059 OA 
HETATM   41  C   UNL     1      -6.822  12.148  67.137  1.00  0.00    -0.119 A  
HETATM   42  C   UNL     1      -7.163  10.352  65.563  1.00  0.00    -0.138 A  
HETATM   43  N   UNL     1      -6.634   9.411  64.567  1.00  0.00    -0.085 N  
HETATM   44  C   UNL     1      -6.314  11.285  66.164  1.00  0.00     0.009 A  
HETATM   45  C   UNL     1      -8.161  12.062  67.529  1.00  0.00    -0.159 A  
ENDBRANCH  12  37
ENDBRANCH   3   5
ENDBRANCH   2   3
TORSDOF 8
ENDMDL
MODEL      294
REMARK 921   NORMALIZED FREE ENERGY PREDICTED BY IDOCK:   11.64 KCAL/MOL
REMARK 922        TOTAL FREE ENERGY PREDICTED BY IDOCK:   15.17 KCAL/MOL
REMARK 923 INTER-LIGAND FREE ENERGY PREDICTED BY IDOCK:    1.16 KCAL/MOL
REMARK 924 INTRA-LIGAND FREE ENERGY PREDICTED BY IDOCK:   14.02 KCAL/MOL
REMARK 927      BINDING AFFINITY PREDICTED BY RF-SCORE:    0.00 PKD
ROOT
HETATM    1  C   UNL     1     -12.093   6.426  67.400  1.00  0.00     3.132 C  
HETATM    2  O   UNL     1     -11.663   5.527  66.373  1.00  0.00     0.870 OA 
ENDROOT
BRANCH   2   3
HETATM    3  C   UNL     1     -10.357   5.689  66.028  1.00  0.00     0.063 C  
HETATM    4  O   UNL     1      -9.955   5.756  64.877  1.00  0.00     0.858 OA 
BRANCH   3   5
HETATM    5  C   UNL     1      -9.498   5.776  67.240  1.00  0.00    -0.116 C  
HETATM    6  C   UNL     1      -9.378   4.727  68.091  1.00  0.00    -0.134 C  
HETATM    7  N   UNL     1      -8.519   4.819  69.172  1.00  0.00    -0.080 NA 
HETATM    8  C   UNL     1     -10.105   3.404  68.031  1.00  0.00     0.696 C  
HETATM    9  C   UNL     1      -7.886   5.971  69.591  1.00  0.00    -0.102 C  
HETATM   10  C   UNL     1      -7.102   5.840  70.878  1.00  0.00    -0.071 C  
HETATM   11  C   UNL     1      -7.992   7.101  68.851  1.00  0.00    -0.120 C  
HETATM   12  C   UNL     1      -8.747   7.098  67.514  1.00  0.00    -0.121 C  
BRANCH  11  13
HETATM   13  C   UNL     1      -7.416   8.352  69.409  1.00  0.00    -0.089 C  
HETATM   14  O   UNL     1      -7.435   8.609  70.604  1.00  0.00    -0.059 OA 
BRANCH  13  15
HETATM   15  O   UNL     1      -6.802   9.098  68.461  1.00  0.00    -0.062 OA 
HETATM   16  C   UNL     1      -5.674   9.496  66.301  1.00  0.00    -0.053 C  
HETATM   17  C   UNL     1      -7.784   8.094  66.470  1.00  0.00    -0.093 C  
HETATM   18  C   UNL     1      -6.474   8.473  67.181  1.00  0.00    -0.058 C  
HETATM   19  C   UNL     1      -5.547   7.245  67.331  1.00  0.00    -0.029 C  
BRANCH  16  20
HETATM   20  N   UNL     1      -6.321  10.774  65.906  1.00  0.00    -0.127 NA 
HETATM   21  C   UNL     1      -7.696  10.542  65.455  1.00  0.00    -0.106 C  
BRANCH  20  22
HETATM   22  C   UNL     1      -6.398  11.699  67.058  1.00  0.00    -0.149 C  
BRANCH  22  23
HETATM   23  C   UNL     1      -7.510  12.749  67.009  1.00  0.00     0.061 C  
HETATM   24  C   UNL     1      -8.208  13.106  68.347  1.00  0.00    -0.130 C  
HETATM   25  C   UNL     1      -9.475  13.904  67.996  1.00  0.00    -0.208 A  
HETATM   26  C   UNL     1      -7.242  13.742  69.350  1.00  0.00     0.113 A  
HETATM   27  C   UNL     1     -10.736  13.437  68.394  1.00  0.00    -0.271 A  
HETATM   28  C   UNL     1      -6.984  15.119  69.420  1.00  0.00    -0.178 A  
HETATM   29  C   UNL     1     -11.903  14.024  67.892  1.00  0.00    -0.411 A  
HETATM   30  C   UNL     1      -6.000  15.631  70.270  1.00  0.00    -0.102 A  
HETATM   31  C   UNL     1      -5.253  14.778  71.073  1.00  0.00    -0.135 A  
HETATM   32  C   UNL     1     -11.827  15.094  67.002  1.00  0.00    -0.026 A  
HETATM   33  C   UNL     1     -10.587  15.600  66.634  1.00  0.00    -0.307 A  
HETATM   34  C   UNL     1      -5.503  13.411  71.042  1.00  0.00    -0.198 A  
HETATM   35  C   UNL     1      -6.494  12.901  70.195  1.00  0.00     0.170 A  
HETATM   36  C   UNL     1      -9.424  15.011  67.125  1.00  0.00    -0.223 A  
ENDBRANCH  22  23
ENDBRANCH  20  22
ENDBRANCH  16  20
ENDBRANCH  13  15
ENDBRANCH  11  13
BRANCH  12  37
HETATM   37  C   UNL     1      -9.676   8.310  67.405  1.00  0.00    -0.225 A  
HETATM   38  O   UNL     1     -10.311  10.187  63.764  1.00  0.00     0.196 OA 
HETATM   39  C   UNL     1      -9.935   8.886  66.145  1.00  0.00    -0.290 A  
HETATM   40  O   UNL     1     -11.584  11.716  64.687  1.00  0.00    -0.239 OA 
HETATM   41  C   UNL     1     -11.057  10.026  68.433  1.00  0.00    -0.236 A  
HETATM   42  C   UNL     1     -10.701  10.054  66.048  1.00  0.00     0.148 A  
HETATM   43  N   UNL     1     -10.881  10.696  64.738  1.00  0.00    -0.004 N  
HETATM   44  C   UNL     1     -11.268  10.625  67.190  1.00  0.00    -0.177 A  
HETATM   45  C   UNL     1     -10.263   8.881  68.541  1.00  0.00    -0.223 A  
ENDBRANCH  12  37
ENDBRANCH   3   5
ENDBRANCH   2   3
TORSDOF 8
ENDMDL
MODEL      295
REMARK 921   NORMALIZED FREE ENERGY PREDICTED BY IDOCK:   12.02 KCAL/MOL
REMARK 922        TOTAL FREE ENERGY PREDICTED BY IDOCK:   15.73 KCAL/MOL
REMARK 923 INTER-LIGAND FREE ENERGY PREDICTED BY IDOCK:    5.03 KCAL/MOL
REMARK 924 INTRA-LIGAND FREE ENERGY PREDICTED BY IDOCK:   10.70 KCAL/MOL
REMARK 927      BINDING AFFINITY PREDICTED BY RF-SCORE:    0.00 PKD
ROOT
HETATM    1  C   UNL     1     -12.276  13.165  69.997  1.00  0.00    -0.253 C  
HETATM    2  O   UNL     1     -10.968  12.610  70.168  1.00  0.00     0.446 OA 
ENDROOT
BRANCH   2   3
HETATM    3  C   UNL     1     -10.977  11.264  70.367  1.00  0.00     0.561 C  
HETATM    4  O   UNL     1     -11.856  10.665  70.966  1.00  0.00    -0.336 OA 
BRANCH   3   5
HETATM    5  C   UNL     1      -9.776  10.631  69.757  1.00  0.00     0.104 C  
HETATM    6  C   UNL     1      -9.152   9.588  70.358  1.00  0.00    -0.246 C  
HETATM    7  N   UNL     1      -8.079   8.981  69.730  1.00  0.00    -0.102 NA 
HETATM    8  C   UNL     1      -9.472   8.973  71.700  1.00  0.00    -0.293 C  
HETATM    9  C   UNL     1      -7.441   9.457  68.604  1.00  0.00    -0.079 C  
HETATM   10  C   UNL     1      -6.209   8.682  68.188  1.00  0.00    -0.051 C  
HETATM   11  C   UNL     1      -7.940  10.538  67.958  1.00  0.00    -0.106 C  
HETATM   12  C   UNL     1      -9.247  11.197  68.421  1.00  0.00    -0.175 C  
BRANCH  11  13
HETATM   13  C   UNL     1      -7.145  11.103  66.836  1.00  0.00    -0.131 C  
HETATM   14  O   UNL     1      -6.347  12.015  66.989  1.00  0.00    -0.153 OA 
BRANCH  13  15
HETATM   15  O   UNL     1      -7.348  10.430  65.678  1.00  0.00    -0.143 OA 
HETATM   16  C   UNL     1      -6.751   9.600  63.430  1.00  0.00    -0.109 C  
HETATM   17  C   UNL     1      -5.126   9.480  65.377  1.00  0.00    -0.039 C  
HETATM   18  C   UNL     1      -6.242  10.316  64.730  1.00  0.00    -0.124 C  
HETATM   19  C   UNL     1      -5.709  11.690  64.261  1.00  0.00     2.625 C  
BRANCH  16  20
HETATM   20  N   UNL     1      -7.270   8.211  63.525  1.00  0.00    -0.089 NA 
HETATM   21  C   UNL     1      -6.270   7.323  64.125  1.00  0.00    -0.044 C  
BRANCH  20  22
HETATM   22  C   UNL     1      -8.468   8.158  64.392  1.00  0.00     0.036 C  
BRANCH  22  23
HETATM   23  C   UNL     1      -9.132   9.499  64.710  1.00  0.00    -0.271 C  
HETATM   24  C   UNL     1     -10.649   9.481  65.032  1.00  0.00     1.766 C  
HETATM   25  C   UNL     1     -11.139  10.938  64.984  1.00  0.00     0.090 A  
HETATM   26  C   UNL     1     -10.959   8.686  66.304  1.00  0.00     1.414 A  
HETATM   27  C   UNL     1     -12.155  11.311  64.092  1.00  0.00     0.492 A  
HETATM   28  C   UNL     1     -10.959   9.242  67.592  1.00  0.00    -0.071 A  
HETATM   29  C   UNL     1     -12.450  12.662  63.876  1.00  0.00    -0.498 A  
HETATM   30  C   UNL     1     -11.125   8.444  68.726  1.00  0.00     0.282 A  
HETATM   31  C   UNL     1     -11.299   7.071  68.601  1.00  0.00     0.110 A  
HETATM   32  C   UNL     1     -11.749  13.655  64.558  1.00  0.00    -0.429 A  
HETATM   33  C   UNL     1     -10.772  13.302  65.480  1.00  0.00    -0.299 A  
HETATM   34  C   UNL     1     -11.326   6.495  67.336  1.00  0.00    -0.116 A  
HETATM   35  C   UNL     1     -11.167   7.297  66.200  1.00  0.00     2.449 A  
HETATM   36  C   UNL     1     -10.470  11.957  65.690  1.00  0.00    -0.302 A  
ENDBRANCH  22  23
ENDBRANCH  20  22
ENDBRANCH  16  20
ENDBRANCH  13  15
ENDBRANCH  11  13
BRANCH  12  37
HETATM   37  C   UNL     1      -9.108  12.721  68.466  1.00  0.00    -0.049 A  
HETATM   38  O   UNL     1      -5.897  14.511  70.381  1.00  0.00    -0.131 OA 
HETATM   39  C   UNL     1      -7.971  13.306  69.058  1.00  0.00     0.258 A  
HETATM   40  O   UNL     1      -6.680  16.520  69.982  1.00  0.00    -0.028 OA 
HETATM   41  C   UNL     1      -9.994  14.948  68.056  1.00  0.00    -0.220 A  
HETATM   42  C   UNL     1      -7.882  14.697  69.194  1.00  0.00    -0.107 A  
HETATM   43  N   UNL     1      -6.735  15.284  69.900  1.00  0.00    -0.171 N  
HETATM   44  C   UNL     1      -8.891  15.522  68.691  1.00  0.00    -0.193 A  
HETATM   45  C   UNL     1     -10.104  13.558  67.949  1.00  0.00    -0.248 A  
ENDBRANCH  12  37
ENDBRANCH   3   5
ENDBRANCH   2   3
TORSDOF 8
ENDMDL
MODEL      296
REMARK 921   NORMALIZED FREE ENERGY PREDICTED BY IDOCK:   12.37 KCAL/MOL
REMARK 922        TOTAL FREE ENERGY PREDICTED BY IDOCK:   16.25 KCAL/MOL
REMARK 923 INTER-LIGAND FREE ENERGY PREDICTED BY IDOCK:   -0.39 KCAL/MOL
REMARK 924 INTRA-LIGAND FREE ENERGY PREDICTED BY IDOCK:   16.64 KCAL/MOL
REMARK 927      BINDING AFFINITY PREDICTED BY RF-SCORE:    0.00 PKD
ROOT
HETATM    1  C   UNL     1     -10.593   8.984  64.141  1.00  0.00     5.742 C  
HETATM    2  O   UNL     1      -9.506   9.842  63.777  1.00  0.00    -0.223 OA 
ENDROOT
BRANCH   2   3
HETATM    3  C   UNL     1      -9.807  11.164  63.880  1.00  0.00    -0.308 C  
HETATM    4  O   UNL     1     -10.311  11.825  62.985  1.00  0.00    -0.342 OA 
BRANCH   3   5
HETATM    5  C   UNL     1      -9.443  11.687  65.225  1.00  0.00    -0.170 C  
HETATM    6  C   UNL     1      -9.705  12.971  65.572  1.00  0.00    -0.052 C  
HETATM    7  N   UNL     1      -9.412  13.406  66.853  1.00  0.00    -0.246 NA 
HETATM    8  C   UNL     1     -10.290  14.060  64.703  1.00  0.00    -0.337 C  
HETATM    9  C   UNL     1      -8.690  12.696  67.789  1.00  0.00    -0.179 C  
HETATM   10  C   UNL     1      -8.392  13.444  69.071  1.00  0.00     0.347 C  
HETATM   11  C   UNL     1      -8.314  11.422  67.522  1.00  0.00    -0.137 C  
HETATM   12  C   UNL     1      -8.745  10.733  66.219  1.00  0.00    -0.175 C  
BRANCH  11  13
HETATM   13  C   UNL     1      -7.418  10.744  68.495  1.00  0.00    -0.100 C  
HETATM   14  O   UNL     1      -6.225  10.586  68.289  1.00  0.00    -0.053 OA 
BRANCH  13  15
HETATM   15  O   UNL     1      -8.062  10.423  69.642  1.00  0.00    -0.161 OA 
HETATM   16  C   UNL     1      -9.523   9.053  71.087  1.00  0.00    -0.278 C  
HETATM   17  C   UNL     1      -7.737   8.009  69.616  1.00  0.00    -0.102 C  
HETATM   18  C   UNL     1      -8.768   9.145  69.715  1.00  0.00    -0.151 C  
HETATM   19  C   UNL     1      -9.862   9.000  68.632  1.00  0.00    -0.177 C  
BRANCH  16  20
HETATM   20  N   UNL     1      -8.739   9.089  72.348  1.00  0.00    -0.250 NA 
HETATM   21  C   UNL     1      -9.403   8.307  73.395  1.00  0.00    -0.116 C  
BRANCH  20  22
HETATM   22  C   UNL     1      -7.400   8.491  72.150  1.00  0.00    -0.071 C  
BRANCH  22  23
HETATM   23  C   UNL     1      -7.360   6.973  71.957  1.00  0.00    -0.082 C  
HETATM   24  C   UNL     1      -8.444   6.136  72.686  1.00  0.00    -0.121 C  
HETATM   25  C   UNL     1      -8.001   4.665  72.615  1.00  0.00    -0.092 A  
HETATM   26  C   UNL     1      -9.855   6.462  72.189  1.00  0.00    -0.170 A  
HETATM   27  C   UNL     1      -7.795   3.933  73.793  1.00  0.00    -0.080 A  
HETATM   28  C   UNL     1     -10.466   5.822  71.101  1.00  0.00    -0.301 A  
HETATM   29  C   UNL     1      -7.179   2.677  73.751  1.00  0.00    -0.040 A  
HETATM   30  C   UNL     1     -11.706   6.246  70.613  1.00  0.00    -0.285 A  
HETATM   31  C   UNL     1     -12.364   7.317  71.204  1.00  0.00    -0.381 A  
HETATM   32  C   UNL     1      -6.778   2.128  72.533  1.00  0.00    -0.018 A  
HETATM   33  C   UNL     1      -7.018   2.819  71.353  1.00  0.00    -0.032 A  
HETATM   34  C   UNL     1     -11.793   7.955  72.299  1.00  0.00    -0.404 A  
HETATM   35  C   UNL     1     -10.556   7.525  72.790  1.00  0.00    -0.365 A  
HETATM   36  C   UNL     1      -7.623   4.074  71.393  1.00  0.00    -0.063 A  
ENDBRANCH  22  23
ENDBRANCH  20  22
ENDBRANCH  16  20
ENDBRANCH  13  15
ENDBRANCH  11  13
BRANCH  12  37
HETATM   37  C   UNL     1      -7.567  10.000  65.570  1.00  0.00    -0.136 A  
HETATM   38  O   UNL     1      -6.988   5.941  66.173  1.00  0.00    -0.060 OA 
HETATM   39  C   UNL     1      -7.432   8.607  65.729  1.00  0.00    -0.085 A  
HETATM   40  O   UNL     1      -5.134   5.952  65.001  1.00  0.00    -0.012 OA 
HETATM   41  C   UNL     1      -5.493  10.020  64.302  1.00  0.00    -0.101 A  
HETATM   42  C   UNL     1      -6.305   7.945  65.224  1.00  0.00    -0.041 A  
HETATM   43  N   UNL     1      -6.133   6.509  65.482  1.00  0.00    -0.033 N  
HETATM   44  C   UNL     1      -5.335   8.648  64.506  1.00  0.00    -0.043 A  
HETATM   45  C   UNL     1      -6.598  10.692  64.834  1.00  0.00     0.095 A  
ENDBRANCH  12  37
ENDBRANCH   3   5
ENDBRANCH   2   3
TORSDOF 8
ENDMDL
MODEL      297
REMARK 921   NORMALIZED FREE ENERGY PREDICTED BY IDOCK:   12.38 KCAL/MOL
REMARK 922        TOTAL FREE ENERGY PREDICTED BY IDOCK:   16.25 KCAL/MOL
REMARK 923 INTER-LIGAND FREE ENERGY PREDICTED BY IDOCK:   14.44 KCAL/MOL
REMARK 924 INTRA-LIGAND FREE ENERGY PREDICTED BY IDOCK:    1.81 KCAL/MOL
REMARK 927      BINDING AFFINITY PREDICTED BY RF-SCORE:    0.00 PKD
ROOT
HETATM    1  C   UNL     1      -9.240  11.763  70.085  1.00  0.00     3.283 C  
HETATM    2  O   UNL     1      -8.023  11.120  69.692  1.00  0.00     0.109 OA 
ENDROOT
BRANCH   2   3
HETATM    3  C   UNL     1      -8.183   9.801  69.399  1.00  0.00    -0.135 C  
HETATM    4  O   UNL     1      -8.537   8.957  70.206  1.00  0.00    -0.138 OA 
BRANCH   3   5
HETATM    5  C   UNL     1      -7.872   9.536  67.968  1.00  0.00    -0.087 C  
HETATM    6  C   UNL     1      -6.592   9.517  67.520  1.00  0.00    -0.063 C  
HETATM    7  N   UNL     1      -6.335   9.202  66.198  1.00  0.00    -0.064 NA 
HETATM    8  C   UNL     1      -5.338   9.826  68.304  1.00  0.00    -0.039 C  
HETATM    9  C   UNL     1      -7.288   9.078  65.209  1.00  0.00    -0.092 C  
HETATM   10  C   UNL     1      -6.742   8.858  63.815  1.00  0.00    -0.088 C  
HETATM   11  C   UNL     1      -8.602   9.149  65.531  1.00  0.00    -0.192 C  
HETATM   12  C   UNL     1      -9.046   9.291  66.995  1.00  0.00    -0.153 C  
BRANCH  11  13
HETATM   13  C   UNL     1      -9.590   9.153  64.421  1.00  0.00     0.706 C  
HETATM   14  O   UNL     1      -9.772  10.128  63.708  1.00  0.00    -0.291 OA 
BRANCH  13  15
HETATM   15  O   UNL     1     -10.172   7.942  64.251  1.00  0.00     4.750 OA 
HETATM   16  C   UNL     1     -10.281   5.589  63.510  1.00  0.00     2.485 C  
HETATM   17  C   UNL     1      -8.262   6.512  64.741  1.00  0.00    -0.073 C  
HETATM   18  C   UNL     1      -9.365   6.845  63.723  1.00  0.00     2.434 C  
HETATM   19  C   UNL     1      -8.763   7.155  62.332  1.00  0.00     0.301 C  
BRANCH  16  20
HETATM   20  N   UNL     1     -10.964   4.984  64.683  1.00  0.00     0.837 NA 
HETATM   21  C   UNL     1     -12.258   4.416  64.295  1.00  0.00     3.556 C  
BRANCH  20  22
HETATM   22  C   UNL     1     -10.159   3.877  65.243  1.00  0.00    -0.118 C  
BRANCH  22  23
HETATM   23  C   UNL     1      -9.539   4.121  66.620  1.00  0.00    -0.225 C  
HETATM   24  C   UNL     1      -8.227   3.364  66.953  1.00  0.00    -0.092 C  
HETATM   25  C   UNL     1      -7.994   3.507  68.466  1.00  0.00    -0.069 A  
HETATM   26  C   UNL     1      -7.075   3.774  66.031  1.00  0.00    -0.063 A  
HETATM   27  C   UNL     1      -7.907   2.366  69.278  1.00  0.00    -0.049 A  
HETATM   28  C   UNL     1      -6.212   4.849  66.291  1.00  0.00    -0.035 A  
HETATM   29  C   UNL     1      -7.924   2.482  70.672  1.00  0.00    -0.050 A  
HETATM   30  C   UNL     1      -5.258   5.256  65.355  1.00  0.00    -0.012 A  
HETATM   31  C   UNL     1      -5.142   4.596  64.138  1.00  0.00    -0.009 A  
HETATM   32  C   UNL     1      -8.010   3.736  71.274  1.00  0.00    -0.064 A  
HETATM   33  C   UNL     1      -8.049   4.879  70.486  1.00  0.00    -0.084 A  
HETATM   34  C   UNL     1      -5.968   3.512  63.862  1.00  0.00    -0.014 A  
HETATM   35  C   UNL     1      -6.918   3.102  64.804  1.00  0.00    -0.053 A  
HETATM   36  C   UNL     1      -8.041   4.765  69.097  1.00  0.00    -0.074 A  
ENDBRANCH  22  23
ENDBRANCH  20  22
ENDBRANCH  16  20
ENDBRANCH  13  15
ENDBRANCH  11  13
BRANCH  12  37
HETATM   37  C   UNL     1     -10.134  10.360  67.137  1.00  0.00    -0.254 A  
HETATM   38  O   UNL     1      -9.770  14.032  65.250  1.00  0.00    -0.196 OA 
HETATM   39  C   UNL     1     -10.024  11.572  66.428  1.00  0.00    -0.241 A  
HETATM   40  O   UNL     1     -11.638  14.761  66.140  1.00  0.00    -0.355 OA 
HETATM   41  C   UNL     1     -12.184  11.181  68.152  1.00  0.00     0.323 A  
HETATM   42  C   UNL     1     -10.960  12.594  66.630  1.00  0.00    -0.258 A  
HETATM   43  N   UNL     1     -10.778  13.887  65.955  1.00  0.00    -0.284 N  
HETATM   44  C   UNL     1     -12.044  12.401  67.489  1.00  0.00    -0.078 A  
HETATM   45  C   UNL     1     -11.234  10.170  67.982  1.00  0.00    -0.247 A  
ENDBRANCH  12  37
ENDBRANCH   3   5
ENDBRANCH   2   3
TORSDOF 8
ENDMDL
MODEL      298
REMARK 921   NORMALIZED FREE ENERGY PREDICTED BY IDOCK:   12.81 KCAL/MOL
REMARK 922        TOTAL FREE ENERGY PREDICTED BY IDOCK:   16.88 KCAL/MOL
REMARK 923 INTER-LIGAND FREE ENERGY PREDICTED BY IDOCK:   13.05 KCAL/MOL
REMARK 924 INTRA-LIGAND FREE ENERGY PREDICTED BY IDOCK:    3.83 KCAL/MOL
REMARK 927      BINDING AFFINITY PREDICTED BY RF-SCORE:    0.00 PKD
ROOT
HETATM    1  C   UNL     1     -10.935  13.363  71.688  1.00  0.00     4.531 C  
HETATM    2  O   UNL     1     -12.012  14.278  71.458  1.00  0.00    -0.314 OA 
ENDROOT
BRANCH   2   3
HETATM    3  C   UNL     1     -13.199  13.660  71.215  1.00  0.00    -0.235 C  
HETATM    4  O   UNL     1     -14.263  13.998  71.712  1.00  0.00    -0.416 OA 
BRANCH   3   5
HETATM    5  C   UNL     1     -13.022  12.527  70.267  1.00  0.00     0.474 C  
HETATM    6  C   UNL     1     -13.384  11.265  70.607  1.00  0.00     0.553 C  
HETATM    7  N   UNL     1     -13.265  10.247  69.677  1.00  0.00     0.444 NA 
HETATM    8  C   UNL     1     -13.911  10.785  71.939  1.00  0.00     0.198 C  
HETATM    9  C   UNL     1     -12.627  10.350  68.459  1.00  0.00     2.157 C  
HETATM   10  C   UNL     1     -12.519   9.058  67.680  1.00  0.00     7.726 C  
HETATM   11  C   UNL     1     -12.163  11.554  68.045  1.00  0.00     0.286 C  
HETATM   12  C   UNL     1     -12.403  12.819  68.882  1.00  0.00     0.180 C  
BRANCH  11  13
HETATM   13  C   UNL     1     -11.359  11.595  66.796  1.00  0.00    -0.286 C  
HETATM   14  O   UNL     1     -11.756  12.139  65.777  1.00  0.00    -0.385 OA 
BRANCH  13  15
HETATM   15  O   UNL     1     -10.130  11.051  66.963  1.00  0.00    -0.186 OA 
HETATM   16  C   UNL     1      -7.778  10.595  66.365  1.00  0.00    -0.141 C  
HETATM   17  C   UNL     1      -8.762  12.931  66.237  1.00  0.00     0.256 C  
HETATM   18  C   UNL     1      -9.063  11.436  66.043  1.00  0.00    -0.208 C  
HETATM   19  C   UNL     1      -9.399  11.123  64.566  1.00  0.00    -0.191 C  
BRANCH  16  20
HETATM   20  N   UNL     1      -7.145  10.724  67.703  1.00  0.00    -0.089 NA 
HETATM   21  C   UNL     1      -8.152  10.630  68.765  1.00  0.00    -0.139 C  
BRANCH  20  22
HETATM   22  C   UNL     1      -6.177   9.630  67.932  1.00  0.00    -0.052 C  
BRANCH  22  23
HETATM   23  C   UNL     1      -6.599   8.241  67.448  1.00  0.00    -0.058 C  
HETATM   24  C   UNL     1      -6.306   7.042  68.387  1.00  0.00    -0.035 C  
HETATM   25  C   UNL     1      -6.506   5.761  67.560  1.00  0.00    -0.047 A  
HETATM   26  C   UNL     1      -7.073   7.143  69.708  1.00  0.00    -0.073 A  
HETATM   27  C   UNL     1      -5.450   4.853  67.399  1.00  0.00    -0.013 A  
HETATM   28  C   UNL     1      -8.369   6.638  69.899  1.00  0.00    -0.132 A  
HETATM   29  C   UNL     1      -5.544   3.809  66.472  1.00  0.00    -0.018 A  
HETATM   30  C   UNL     1      -9.069   6.869  71.086  1.00  0.00    -0.150 A  
HETATM   31  C   UNL     1      -8.491   7.607  72.111  1.00  0.00    -0.141 A  
HETATM   32  C   UNL     1      -6.699   3.647  65.708  1.00  0.00    -0.045 A  
HETATM   33  C   UNL     1      -7.773   4.509  65.888  1.00  0.00    -0.094 A  
HETATM   34  C   UNL     1      -7.200   8.100  71.959  1.00  0.00    -0.099 A  
HETATM   35  C   UNL     1      -6.497   7.861  70.773  1.00  0.00    -0.037 A  
HETATM   36  C   UNL     1      -7.678   5.554  66.805  1.00  0.00    -0.100 A  
ENDBRANCH  22  23
ENDBRANCH  20  22
ENDBRANCH  16  20
ENDBRANCH  13  15
ENDBRANCH  11  13
BRANCH  12  37
HETATM   37  C   UNL     1     -11.124  13.653  68.997  1.00  0.00    -0.295 A  
HETATM   38  O   UNL     1     -11.025  17.593  67.715  1.00  0.00    -0.309 OA 
HETATM   39  C   UNL     1     -11.134  15.011  68.624  1.00  0.00    -0.272 A  
HETATM   40  O   UNL     1      -8.890  17.773  68.187  1.00  0.00    -0.253 OA 
HETATM   41  C   UNL     1      -8.750  13.842  69.486  1.00  0.00     1.013 A  
HETATM   42  C   UNL     1      -9.946  15.753  68.630  1.00  0.00    -0.208 A  
HETATM   43  N   UNL     1      -9.956  17.140  68.146  1.00  0.00    -0.282 N  
HETATM   44  C   UNL     1      -8.752  15.173  69.065  1.00  0.00    -0.215 A  
HETATM   45  C   UNL     1      -9.925  13.086  69.448  1.00  0.00     0.755 A  
ENDBRANCH  12  37
ENDBRANCH   3   5
ENDBRANCH   2   3
TORSDOF 8
ENDMDL
MODEL      299
REMARK 921   NORMALIZED FREE ENERGY PREDICTED BY IDOCK:   13.39 KCAL/MOL
REMARK 922        TOTAL FREE ENERGY PREDICTED BY IDOCK:   17.74 KCAL/MOL
REMARK 923 INTER-LIGAND FREE ENERGY PREDICTED BY IDOCK:    3.11 KCAL/MOL
REMARK 924 INTRA-LIGAND FREE ENERGY PREDICTED BY IDOCK:   14.63 KCAL/MOL
REMARK 927      BINDING AFFINITY PREDICTED BY RF-SCORE:    0.00 PKD
ROOT
HETATM    1  C   UNL     1      -5.392   8.183  73.137  1.00  0.00    -0.046 C  
HETATM    2  O   UNL     1      -6.140   8.721  72.041  1.00  0.00    -0.066 OA 
ENDROOT
BRANCH   2   3
HETATM    3  C   UNL     1      -5.941  10.054  71.858  1.00  0.00     0.361 C  
HETATM    4  O   UNL     1      -5.219  10.743  72.562  1.00  0.00    -0.315 OA 
BRANCH   3   5
HETATM    5  C   UNL     1      -6.717  10.549  70.688  1.00  0.00     0.145 C  
HETATM    6  C   UNL     1      -6.505  11.788  70.180  1.00  0.00     0.065 C  
HETATM    7  N   UNL     1      -7.198  12.191  69.052  1.00  0.00    -0.078 NA 
HETATM    8  C   UNL     1      -5.579  12.856  70.713  1.00  0.00    -0.177 C  
HETATM    9  C   UNL     1      -8.250  11.509  68.477  1.00  0.00    -0.148 C  
HETATM   10  C   UNL     1      -8.926  12.224  67.327  1.00  0.00    -0.187 C  
HETATM   11  C   UNL     1      -8.595  10.287  68.949  1.00  0.00    -0.150 C  
HETATM   12  C   UNL     1      -7.783   9.619  70.068  1.00  0.00    -0.162 C  
BRANCH  11  13
HETATM   13  C   UNL     1      -9.820   9.651  68.397  1.00  0.00    -0.153 C  
HETATM   14  O   UNL     1      -9.877   8.461  68.126  1.00  0.00    -0.158 OA 
BRANCH  13  15
HETATM   15  O   UNL     1     -10.857  10.518  68.329  1.00  0.00    -0.211 OA 
HETATM   16  C   UNL     1     -12.367  12.282  69.169  1.00  0.00     0.162 C  
HETATM   17  C   UNL     1      -9.848  12.435  69.442  1.00  0.00     0.836 C  
HETATM   18  C   UNL     1     -11.047  11.472  69.419  1.00  0.00    -0.226 C  
HETATM   19  C   UNL     1     -11.238  10.787  70.792  1.00  0.00     0.077 C  
BRANCH  16  20
HETATM   20  N   UNL     1     -12.481  13.123  67.949  1.00  0.00     0.144 NA 
HETATM   21  C   UNL     1     -11.257  13.902  67.740  1.00  0.00    -0.293 C  
BRANCH  20  22
HETATM   22  C   UNL     1     -12.663  12.279  66.748  1.00  0.00     1.995 C  
BRANCH  22  23
HETATM   23  C   UNL     1     -11.387  11.868  66.010  1.00  0.00    -0.375 C  
HETATM   24  C   UNL     1     -11.208  12.384  64.559  1.00  0.00    -0.371 C  
HETATM   25  C   UNL     1     -10.053  11.584  63.934  1.00  0.00    -0.388 A  
HETATM   26  C   UNL     1     -11.109  13.910  64.497  1.00  0.00    -0.374 A  
HETATM   27  C   UNL     1     -10.268  10.820  62.777  1.00  0.00     0.079 A  
HETATM   28  C   UNL     1      -9.905  14.620  64.618  1.00  0.00     0.574 A  
HETATM   29  C   UNL     1      -9.298   9.915  62.332  1.00  0.00    -0.270 A  
HETATM   30  C   UNL     1      -9.889  16.016  64.680  1.00  0.00     1.537 A  
HETATM   31  C   UNL     1     -11.075  16.736  64.619  1.00  0.00     0.066 A  
HETATM   32  C   UNL     1      -8.095   9.774  63.024  1.00  0.00    -0.146 A  
HETATM   33  C   UNL     1      -7.847  10.556  64.144  1.00  0.00     0.028 A  
HETATM   34  C   UNL     1     -12.282  16.060  64.476  1.00  0.00     0.391 A  
HETATM   35  C   UNL     1     -12.295  14.663  64.406  1.00  0.00    -0.420 A  
HETATM   36  C   UNL     1      -8.815  11.451  64.594  1.00  0.00     0.251 A  
ENDBRANCH  22  23
ENDBRANCH  20  22
ENDBRANCH  16  20
ENDBRANCH  13  15
ENDBRANCH  11  13
BRANCH  12  37
HETATM   37  C   UNL     1      -8.707   9.024  71.136  1.00  0.00    -0.266 A  
HETATM   38  O   UNL     1     -11.882   6.577  70.083  1.00  0.00    -0.416 OA 
HETATM   39  C   UNL     1      -9.734   8.136  70.761  1.00  0.00    -0.189 A  
HETATM   40  O   UNL     1     -12.540   6.405  72.169  1.00  0.00    -0.268 OA 
HETATM   41  C   UNL     1      -9.458   8.863  73.442  1.00  0.00     1.331 A  
HETATM   42  C   UNL     1     -10.645   7.667  71.716  1.00  0.00    -0.214 A  
HETATM   43  N   UNL     1     -11.767   6.819  71.292  1.00  0.00    -0.318 N  
HETATM   44  C   UNL     1     -10.507   8.025  73.059  1.00  0.00    -0.341 A  
HETATM   45  C   UNL     1      -8.567   9.362  72.487  1.00  0.00     1.799 A  
ENDBRANCH  12  37
ENDBRANCH   3   5
ENDBRANCH   2   3
TORSDOF 8
ENDMDL
MODEL      300
REMARK 921   NORMALIZED FREE ENERGY PREDICTED BY IDOCK:   13.70 KCAL/MOL
REMARK 922        TOTAL FREE ENERGY PREDICTED BY IDOCK:   18.19 KCAL/MOL
REMARK 923 INTER-LIGAND FREE ENERGY PREDICTED BY IDOCK:   10.30 KCAL/MOL
REMARK 924 INTRA-LIGAND FREE ENERGY PREDICTED BY IDOCK:    7.89 KCAL/MOL
REMARK 927      BINDING AFFINITY PREDICTED BY RF-SCORE:    0.00 PKD
ROOT
HETATM    1  C   UNL     1     -12.164   6.604  66.928  1.00  0.00     4.117 C  
HETATM    2  O   UNL     1     -11.489   7.830  67.231  1.00  0.00     0.567 OA 
ENDROOT
BRANCH   2   3
HETATM    3  C   UNL     1     -10.193   7.651  67.603  1.00  0.00    -0.214 C  
HETATM    4  O   UNL     1      -9.721   6.581  67.955  1.00  0.00    -0.119 OA 
BRANCH   3   5
HETATM    5  C   UNL     1      -9.438   8.931  67.520  1.00  0.00    -0.172 C  
HETATM    6  C   UNL     1      -9.370   9.631  66.360  1.00  0.00    -0.174 C  
HETATM    7  N   UNL     1      -8.715  10.849  66.335  1.00  0.00    -0.164 NA 
HETATM    8  C   UNL     1      -9.926   9.235  65.012  1.00  0.00     0.489 C  
HETATM    9  C   UNL     1      -7.941  11.359  67.356  1.00  0.00    -0.139 C  
HETATM   10  C   UNL     1      -7.222  12.650  67.034  1.00  0.00     0.064 C  
HETATM   11  C   UNL     1      -7.881  10.705  68.542  1.00  0.00    -0.115 C  
HETATM   12  C   UNL     1      -8.720   9.443  68.788  1.00  0.00    -0.131 C  
BRANCH  11  13
HETATM   13  C   UNL     1      -6.927  11.210  69.564  1.00  0.00    -0.111 C  
HETATM   14  O   UNL     1      -5.843  10.684  69.768  1.00  0.00    -0.044 OA 
BRANCH  13  15
HETATM   15  O   UNL     1      -7.365  12.348  70.152  1.00  0.00     0.904 OA 
HETATM   16  C   UNL     1      -7.164  14.663  70.988  1.00  0.00     1.400 C  
HETATM   17  C   UNL     1      -6.284  13.983  68.706  1.00  0.00    -0.087 C  
HETATM   18  C   UNL     1      -6.488  13.517  70.157  1.00  0.00     0.072 C  
HETATM   19  C   UNL     1      -5.132  13.249  70.852  1.00  0.00    -0.131 C  
BRANCH  16  20
HETATM   20  N   UNL     1      -8.469  15.211  70.537  1.00  0.00     1.053 NA 
HETATM   21  C   UNL     1      -8.552  16.648  70.813  1.00  0.00     4.446 C  
BRANCH  20  22
HETATM   22  C   UNL     1      -8.630  15.045  69.076  1.00  0.00    -0.205 C  
BRANCH  22  23
HETATM   23  C   UNL     1      -9.053  16.292  68.296  1.00  0.00    -0.197 C  
HETATM   24  C   UNL     1      -8.578  16.404  66.825  1.00  0.00    -0.270 C  
HETATM   25  C   UNL     1      -8.835  17.853  66.376  1.00  0.00    -0.251 A  
HETATM   26  C   UNL     1      -9.155  15.292  65.945  1.00  0.00    -0.138 A  
HETATM   27  C   UNL     1      -7.771  18.654  65.934  1.00  0.00    -0.143 A  
HETATM   28  C   UNL     1     -10.387  15.384  65.279  1.00  0.00    -0.420 A  
HETATM   29  C   UNL     1      -7.948  20.028  65.742  1.00  0.00    -0.176 A  
HETATM   30  C   UNL     1     -10.923  14.292  64.592  1.00  0.00    -0.379 A  
HETATM   31  C   UNL     1     -10.240  13.083  64.552  1.00  0.00    -0.331 A  
HETATM   32  C   UNL     1      -9.191  20.618  65.971  1.00  0.00     0.214 A  
HETATM   33  C   UNL     1     -10.266  19.832  66.364  1.00  0.00    -0.614 A  
HETATM   34  C   UNL     1      -9.007  12.969  65.183  1.00  0.00     1.311 A  
HETATM   35  C   UNL     1      -8.468  14.066  65.864  1.00  0.00     1.489 A  
HETATM   36  C   UNL     1     -10.090  18.464  66.564  1.00  0.00    -0.406 A  
ENDBRANCH  22  23
ENDBRANCH  20  22
ENDBRANCH  16  20
ENDBRANCH  13  15
ENDBRANCH  11  13
BRANCH  12  37
HETATM   37  C   UNL     1      -7.881   8.345  69.447  1.00  0.00    -0.103 A  
HETATM   38  O   UNL     1      -8.463   7.312  73.419  1.00  0.00    -0.123 OA 
HETATM   39  C   UNL     1      -8.146   7.960  70.776  1.00  0.00    -0.101 A  
HETATM   40  O   UNL     1      -6.815   5.866  73.364  1.00  0.00    -0.077 OA 
HETATM   41  C   UNL     1      -6.031   6.769  69.398  1.00  0.00    -0.022 A  
HETATM   42  C   UNL     1      -7.320   7.029  71.419  1.00  0.00    -0.080 A  
HETATM   43  N   UNL     1      -7.553   6.710  72.834  1.00  0.00    -0.095 N  
HETATM   44  C   UNL     1      -6.263   6.428  70.731  1.00  0.00    -0.039 A  
HETATM   45  C   UNL     1      -6.830   7.724  68.762  1.00  0.00    -0.059 A  
ENDBRANCH  12  37
ENDBRANCH   3   5
ENDBRANCH   2   3
TORSDOF 8
ENDMDL
MODEL      301
REMARK 921   NORMALIZED FREE ENERGY PREDICTED BY IDOCK:   15.76 KCAL/MOL
REMARK 922        TOTAL FREE ENERGY PREDICTED BY IDOCK:   21.22 KCAL/MOL
REMARK 923 INTER-LIGAND FREE ENERGY PREDICTED BY IDOCK:   10.87 KCAL/MOL
REMARK 924 INTRA-LIGAND FREE ENERGY PREDICTED BY IDOCK:   10.35 KCAL/MOL
REMARK 927      BINDING AFFINITY PREDICTED BY RF-SCORE:    0.00 PKD
ROOT
HETATM    1  C   UNL     1      -5.493   9.606  70.722  1.00  0.00    -0.053 C  
HETATM    2  O   UNL     1      -5.982   8.386  70.156  1.00  0.00    -0.028 OA 
ENDROOT
BRANCH   2   3
HETATM    3  C   UNL     1      -7.260   8.098  70.520  1.00  0.00    -0.048 C  
HETATM    4  O   UNL     1      -7.640   8.011  71.678  1.00  0.00    -0.071 OA 
BRANCH   3   5
HETATM    5  C   UNL     1      -8.122   7.908  69.322  1.00  0.00    -0.126 C  
HETATM    6  C   UNL     1      -7.919   6.875  68.469  1.00  0.00    -0.120 C  
HETATM    7  N   UNL     1      -8.780   6.691  67.401  1.00  0.00    -0.118 NA 
HETATM    8  C   UNL     1      -6.811   5.848  68.512  1.00  0.00    -0.070 C  
HETATM    9  C   UNL     1      -9.749   7.584  66.997  1.00  0.00    -0.198 C  
HETATM   10  C   UNL     1     -10.473   7.212  65.721  1.00  0.00     1.827 C  
HETATM   11  C   UNL     1      -9.993   8.691  67.739  1.00  0.00    -0.240 C  
HETATM   12  C   UNL     1      -9.255   8.926  69.065  1.00  0.00    -0.140 C  
BRANCH  11  13
HETATM   13  C   UNL     1     -10.943   9.696  67.195  1.00  0.00     0.004 C  
HETATM   14  O   UNL     1     -11.751  10.284  67.897  1.00  0.00    -0.281 OA 
BRANCH  13  15
HETATM   15  O   UNL     1     -10.735   9.933  65.879  1.00  0.00     0.017 OA 
HETATM   16  C   UNL     1     -11.174  10.995  63.693  1.00  0.00     0.280 C  
HETATM   17  C   UNL     1     -11.111  12.340  65.845  1.00  0.00    -0.360 C  
HETATM   18  C   UNL     1     -11.506  10.989  65.226  1.00  0.00     0.456 C  
HETATM   19  C   UNL     1     -13.033  10.761  65.315  1.00  0.00     6.966 C  
BRANCH  16  20
HETATM   20  N   UNL     1      -9.780  11.264  63.255  1.00  0.00    -0.346 NA 
HETATM   21  C   UNL     1      -9.613  12.674  62.890  1.00  0.00     2.333 C  
BRANCH  20  22
HETATM   22  C   UNL     1      -8.825  10.988  64.350  1.00  0.00     0.015 C  
BRANCH  22  23
HETATM   23  C   UNL     1      -8.230   9.578  64.389  1.00  0.00    -0.148 C  
HETATM   24  C   UNL     1      -6.684   9.460  64.390  1.00  0.00    -0.090 C  
HETATM   25  C   UNL     1      -6.343   7.990  64.097  1.00  0.00    -0.062 A  
HETATM   26  C   UNL     1      -6.059  10.082  65.642  1.00  0.00    -0.086 A  
HETATM   27  C   UNL     1      -5.562   7.655  62.982  1.00  0.00    -0.050 A  
HETATM   28  C   UNL     1      -5.851   9.383  66.840  1.00  0.00    -0.055 A  
HETATM   29  C   UNL     1      -5.435   6.322  62.576  1.00  0.00    -0.022 A  
HETATM   30  C   UNL     1      -5.393  10.033  67.989  1.00  0.00    -0.038 A  
HETATM   31  C   UNL     1      -5.129  11.396  67.967  1.00  0.00    -0.043 A  
HETATM   32  C   UNL     1      -6.071   5.305  63.287  1.00  0.00    -0.021 A  
HETATM   33  C   UNL     1      -6.809   5.613  64.422  1.00  0.00    -0.050 A  
HETATM   34  C   UNL     1      -5.303  12.111  66.787  1.00  0.00     0.093 A  
HETATM   35  C   UNL     1      -5.755  11.456  65.636  1.00  0.00     0.424 A  
HETATM   36  C   UNL     1      -6.944   6.942  64.822  1.00  0.00    -0.051 A  
ENDBRANCH  22  23
ENDBRANCH  20  22
ENDBRANCH  16  20
ENDBRANCH  13  15
ENDBRANCH  11  13
BRANCH  12  37
HETATM   37  C   UNL     1      -8.754  10.370  69.165  1.00  0.00    -0.173 A  
HETATM   38  O   UNL     1      -5.434  11.318  71.459  1.00  0.00    -0.343 OA 
HETATM   39  C   UNL     1      -7.581  10.658  69.891  1.00  0.00     0.029 A  
HETATM   40  O   UNL     1      -5.654  13.458  71.031  1.00  0.00    -0.184 OA 
HETATM   41  C   UNL     1      -9.018  12.745  68.721  1.00  0.00     0.169 A  
HETATM   42  C   UNL     1      -7.171  11.984  70.072  1.00  0.00     1.029 A  
HETATM   43  N   UNL     1      -6.000  12.273  70.911  1.00  0.00     0.094 N  
HETATM   44  C   UNL     1      -7.885  13.031  69.485  1.00  0.00     0.934 A  
HETATM   45  C   UNL     1      -9.452  11.425  68.567  1.00  0.00    -0.183 A  
ENDBRANCH  12  37
ENDBRANCH   3   5
ENDBRANCH   2   3
TORSDOF 8
ENDMDL
MODEL      302
REMARK 921   NORMALIZED FREE ENERGY PREDICTED BY IDOCK:   16.55 KCAL/MOL
REMARK 922        TOTAL FREE ENERGY PREDICTED BY IDOCK:   22.38 KCAL/MOL
REMARK 923 INTER-LIGAND FREE ENERGY PREDICTED BY IDOCK:    5.04 KCAL/MOL
REMARK 924 INTRA-LIGAND FREE ENERGY PREDICTED BY IDOCK:   17.34 KCAL/MOL
REMARK 927      BINDING AFFINITY PREDICTED BY RF-SCORE:    0.00 PKD
ROOT
HETATM    1  C   UNL     1      -9.661  13.478  70.851  1.00  0.00     6.228 C  
HETATM    2  O   UNL     1     -10.530  13.376  69.718  1.00  0.00     0.433 OA 
ENDROOT
BRANCH   2   3
HETATM    3  C   UNL     1      -9.914  12.876  68.613  1.00  0.00    -0.092 C  
HETATM    4  O   UNL     1     -10.284  13.086  67.468  1.00  0.00    -0.218 OA 
BRANCH   3   5
HETATM    5  C   UNL     1      -8.736  12.050  68.991  1.00  0.00     0.345 C  
HETATM    6  C   UNL     1      -7.647  12.608  69.576  1.00  0.00     0.729 C  
HETATM    7  N   UNL     1      -6.597  11.800  69.974  1.00  0.00    -0.046 NA 
HETATM    8  C   UNL     1      -7.399  14.072  69.853  1.00  0.00     0.423 C  
HETATM    9  C   UNL     1      -6.457  10.464  69.664  1.00  0.00    -0.076 C  
HETATM   10  C   UNL     1      -5.154   9.835  70.106  1.00  0.00    -0.032 C  
HETATM   11  C   UNL     1      -7.458   9.817  69.019  1.00  0.00    -0.080 C  
HETATM   12  C   UNL     1      -8.776  10.535  68.692  1.00  0.00    -0.143 C  
BRANCH  11  13
HETATM   13  C   UNL     1      -7.210   8.419  68.579  1.00  0.00    -0.081 C  
HETATM   14  O   UNL     1      -7.414   8.045  67.434  1.00  0.00    -0.090 OA 
BRANCH  13  15
HETATM   15  O   UNL     1      -6.659   7.667  69.559  1.00  0.00    -0.035 OA 
HETATM   16  C   UNL     1      -6.198   7.012  71.895  1.00  0.00    -0.038 C  
HETATM   17  C   UNL     1      -8.541   7.585  71.104  1.00  0.00    -0.121 C  
HETATM   18  C   UNL     1      -7.049   7.923  70.944  1.00  0.00    -0.049 C  
HETATM   19  C   UNL     1      -6.756   9.374  71.393  1.00  0.00     0.041 C  
BRANCH  16  20
HETATM   20  N   UNL     1      -6.307   5.535  71.773  1.00  0.00    -0.041 NA 
HETATM   21  C   UNL     1      -5.160   4.875  72.403  1.00  0.00    -0.004 C  
BRANCH  20  22
HETATM   22  C   UNL     1      -7.520   5.041  72.462  1.00  0.00    -0.094 C  
BRANCH  22  23
HETATM   23  C   UNL     1      -8.734   5.972  72.444  1.00  0.00    -0.126 C  
HETATM   24  C   UNL     1     -10.002   5.471  71.706  1.00  0.00    -0.228 C  
HETATM   25  C   UNL     1     -10.936   6.681  71.540  1.00  0.00    -0.287 A  
HETATM   26  C   UNL     1     -10.595   4.221  72.362  1.00  0.00    -0.145 A  
HETATM   27  C   UNL     1     -11.338   7.093  70.260  1.00  0.00    -0.305 A  
HETATM   28  C   UNL     1     -11.534   4.257  73.403  1.00  0.00    -0.267 A  
HETATM   29  C   UNL     1     -11.994   8.315  70.079  1.00  0.00     0.571 A  
HETATM   30  C   UNL     1     -11.947   3.088  74.049  1.00  0.00     0.851 A  
HETATM   31  C   UNL     1     -11.432   1.856  73.666  1.00  0.00    -0.317 A  
HETATM   32  C   UNL     1     -12.274   9.133  71.173  1.00  0.00    -0.350 A  
HETATM   33  C   UNL     1     -11.926   8.720  72.452  1.00  0.00    -0.369 A  
HETATM   34  C   UNL     1     -10.517   1.787  72.622  1.00  0.00    -0.231 A  
HETATM   35  C   UNL     1     -10.111   2.958  71.972  1.00  0.00    -0.184 A  
HETATM   36  C   UNL     1     -11.264   7.507  72.633  1.00  0.00    -0.399 A  
ENDBRANCH  22  23
ENDBRANCH  20  22
ENDBRANCH  16  20
ENDBRANCH  13  15
ENDBRANCH  11  13
BRANCH  12  37
HETATM   37  C   UNL     1      -9.213  10.253  67.252  1.00  0.00    -0.157 A  
HETATM   38  O   UNL     1      -6.476  10.335  64.140  1.00  0.00    -0.132 OA 
HETATM   39  C   UNL     1      -8.253  10.213  66.221  1.00  0.00    -0.127 A  
HETATM   40  O   UNL     1      -8.040   9.949  62.652  1.00  0.00    -0.120 OA 
HETATM   41  C   UNL     1     -10.951   9.861  65.598  1.00  0.00     0.985 A  
HETATM   42  C   UNL     1      -8.654  10.056  64.889  1.00  0.00    -0.173 A  
HETATM   43  N   UNL     1      -7.650  10.114  63.818  1.00  0.00    -0.147 N  
HETATM   44  C   UNL     1     -10.003   9.876  64.573  1.00  0.00    -0.001 A  
HETATM   45  C   UNL     1     -10.560  10.053  66.926  1.00  0.00    -0.261 A  
ENDBRANCH  12  37
ENDBRANCH   3   5
ENDBRANCH   2   3
TORSDOF 8
ENDMDL
MODEL      303
REMARK 921   NORMALIZED FREE ENERGY PREDICTED BY IDOCK:   17.68 KCAL/MOL
REMARK 922        TOTAL FREE ENERGY PREDICTED BY IDOCK:   24.04 KCAL/MOL
REMARK 923 INTER-LIGAND FREE ENERGY PREDICTED BY IDOCK:    4.99 KCAL/MOL
REMARK 924 INTRA-LIGAND FREE ENERGY PREDICTED BY IDOCK:   19.06 KCAL/MOL
REMARK 927      BINDING AFFINITY PREDICTED BY RF-SCORE:    0.00 PKD
ROOT
HETATM    1  C   UNL     1      -7.494   6.649  68.844  1.00  0.00    -0.096 C  
HETATM    2  O   UNL     1      -7.367   8.006  68.403  1.00  0.00    -0.093 OA 
ENDROOT
BRANCH   2   3
HETATM    3  C   UNL     1      -7.610   8.915  69.386  1.00  0.00    -0.081 C  
HETATM    4  O   UNL     1      -8.242   8.674  70.402  1.00  0.00    -0.103 OA 
BRANCH   3   5
HETATM    5  C   UNL     1      -7.000  10.230  69.052  1.00  0.00    -0.064 C  
HETATM    6  C   UNL     1      -6.024  10.768  69.826  1.00  0.00    -0.071 C  
HETATM    7  N   UNL     1      -5.434  11.961  69.450  1.00  0.00    -0.061 NA 
HETATM    8  C   UNL     1      -5.474  10.223  71.123  1.00  0.00    -0.080 C  
HETATM    9  C   UNL     1      -5.873  12.781  68.432  1.00  0.00    -0.061 C  
HETATM   10  C   UNL     1      -5.135  14.096  68.304  1.00  0.00    -0.111 C  
HETATM   11  C   UNL     1      -6.890  12.375  67.634  1.00  0.00    -0.132 C  
HETATM   12  C   UNL     1      -7.512  10.980  67.802  1.00  0.00    -0.094 C  
BRANCH  11  13
HETATM   13  C   UNL     1      -7.425  13.345  66.644  1.00  0.00     1.091 C  
HETATM   14  O   UNL     1      -7.794  13.009  65.529  1.00  0.00     2.714 OA 
BRANCH  13  15
HETATM   15  O   UNL     1      -7.534  14.592  67.160  1.00  0.00    -0.153 OA 
HETATM   16  C   UNL     1      -8.658  16.744  67.608  1.00  0.00    -0.206 C  
HETATM   17  C   UNL     1      -9.863  14.525  67.870  1.00  0.00    -0.222 C  
HETATM   18  C   UNL     1      -8.814  15.288  67.045  1.00  0.00    -0.237 C  
HETATM   19  C   UNL     1      -9.276  15.461  65.580  1.00  0.00     0.135 C  
BRANCH  16  20
HETATM   20  N   UNL     1      -8.288  16.933  69.035  1.00  0.00    -0.199 NA 
HETATM   21  C   UNL     1      -9.077  18.011  69.638  1.00  0.00     0.892 C  
BRANCH  20  22
HETATM   22  C   UNL     1      -8.567  15.708  69.815  1.00  0.00     0.052 C  
BRANCH  22  23
HETATM   23  C   UNL     1     -10.026  15.477  70.212  1.00  0.00     0.044 C  
HETATM   24  C   UNL     1     -10.827  16.706  70.716  1.00  0.00     0.347 C  
HETATM   25  C   UNL     1     -12.120  16.171  71.354  1.00  0.00    -0.384 A  
HETATM   26  C   UNL     1     -10.978  17.780  69.636  1.00  0.00     1.136 A  
HETATM   27  C   UNL     1     -12.409  16.445  72.699  1.00  0.00    -0.395 A  
HETATM   28  C   UNL     1     -12.028  17.808  68.705  1.00  0.00     3.051 A  
HETATM   29  C   UNL     1     -13.456  15.783  73.352  1.00  0.00    -0.491 A  
HETATM   30  C   UNL     1     -12.048  18.738  67.662  1.00  0.00     3.060 A  
HETATM   31  C   UNL     1     -11.022  19.664  67.527  1.00  0.00    -0.346 A  
HETATM   32  C   UNL     1     -14.237  14.853  72.667  1.00  0.00    -0.215 A  
HETATM   33  C   UNL     1     -13.995  14.605  71.322  1.00  0.00    -0.400 A  
HETATM   34  C   UNL     1      -9.980  19.675  68.448  1.00  0.00    -0.543 A  
HETATM   35  C   UNL     1      -9.966  18.747  69.496  1.00  0.00     0.160 A  
HETATM   36  C   UNL     1     -12.948  15.257  70.673  1.00  0.00    -0.442 A  
ENDBRANCH  22  23
ENDBRANCH  20  22
ENDBRANCH  16  20
ENDBRANCH  13  15
ENDBRANCH  11  13
BRANCH  12  37
HETATM   37  C   UNL     1      -9.041  11.054  67.772  1.00  0.00    -0.147 A  
HETATM   38  O   UNL     1     -11.029  12.771  64.566  1.00  0.00    -0.306 OA 
HETATM   39  C   UNL     1      -9.697  11.575  66.639  1.00  0.00    -0.221 A  
HETATM   40  O   UNL     1     -12.981  12.481  65.522  1.00  0.00    -0.336 OA 
HETATM   41  C   UNL     1     -11.202  10.766  68.847  1.00  0.00    -0.328 A  
HETATM   42  C   UNL     1     -11.088  11.739  66.643  1.00  0.00    -0.310 A  
HETATM   43  N   UNL     1     -11.746  12.372  65.492  1.00  0.00    -0.394 N  
HETATM   44  C   UNL     1     -11.845  11.331  67.745  1.00  0.00    -0.164 A  
HETATM   45  C   UNL     1      -9.811  10.633  68.863  1.00  0.00    -0.210 A  
ENDBRANCH  12  37
ENDBRANCH   3   5
ENDBRANCH   2   3
TORSDOF 8
ENDMDL
MODEL      304
REMARK 921   NORMALIZED FREE ENERGY PREDICTED BY IDOCK:   18.11 KCAL/MOL
REMARK 922        TOTAL FREE ENERGY PREDICTED BY IDOCK:   24.66 KCAL/MOL
REMARK 923 INTER-LIGAND FREE ENERGY PREDICTED BY IDOCK:    8.87 KCAL/MOL
REMARK 924 INTRA-LIGAND FREE ENERGY PREDICTED BY IDOCK:   15.79 KCAL/MOL
REMARK 927      BINDING AFFINITY PREDICTED BY RF-SCORE:    0.00 PKD
ROOT
HETATM    1  C   UNL     1      -9.560   4.124  67.974  1.00  0.00    -0.142 C  
HETATM    2  O   UNL     1      -8.680   4.451  66.893  1.00  0.00    -0.110 OA 
ENDROOT
BRANCH   2   3
HETATM    3  C   UNL     1      -7.595   5.172  67.282  1.00  0.00    -0.091 C  
HETATM    4  O   UNL     1      -6.686   5.501  66.536  1.00  0.00    -0.054 OA 
BRANCH   3   5
HETATM    5  C   UNL     1      -7.671   5.502  68.731  1.00  0.00    -0.091 C  
HETATM    6  C   UNL     1      -7.544   4.540  69.678  1.00  0.00    -0.054 C  
HETATM    7  N   UNL     1      -7.554   4.892  71.016  1.00  0.00    -0.075 NA 
HETATM    8  C   UNL     1      -7.402   3.051  69.464  1.00  0.00    -0.044 C  
HETATM    9  C   UNL     1      -7.872   6.140  71.509  1.00  0.00    -0.102 C  
HETATM   10  C   UNL     1      -7.939   6.236  73.018  1.00  0.00    -0.107 C  
HETATM   11  C   UNL     1      -8.087   7.165  70.650  1.00  0.00    -0.113 C  
HETATM   12  C   UNL     1      -7.909   6.974  69.137  1.00  0.00    -0.114 C  
BRANCH  11  13
HETATM   13  C   UNL     1      -8.566   8.454  71.215  1.00  0.00    -0.161 C  
HETATM   14  O   UNL     1      -9.423   8.513  72.082  1.00  0.00    -0.257 OA 
BRANCH  13  15
HETATM   15  O   UNL     1      -7.879   9.512  70.723  1.00  0.00    -0.242 OA 
HETATM   16  C   UNL     1      -5.993  10.632  69.588  1.00  0.00    -0.054 C  
HETATM   17  C   UNL     1      -7.055   8.524  68.655  1.00  0.00    -0.072 C  
HETATM   18  C   UNL     1      -6.667   9.261  69.946  1.00  0.00    -0.050 C  
HETATM   19  C   UNL     1      -5.598   8.472  70.738  1.00  0.00    -0.028 C  
BRANCH  16  20
HETATM   20  N   UNL     1      -6.741  11.610  68.757  1.00  0.00    -0.071 NA 
HETATM   21  C   UNL     1      -6.686  11.236  67.340  1.00  0.00    -0.085 C  
BRANCH  20  22
HETATM   22  C   UNL     1      -8.169  11.639  69.139  1.00  0.00     0.228 C  
BRANCH  22  23
HETATM   23  C   UNL     1      -8.704  12.976  69.655  1.00  0.00     1.927 C  
HETATM   24  C   UNL     1     -10.017  13.507  69.023  1.00  0.00     0.122 C  
HETATM   25  C   UNL     1     -10.162  14.977  69.450  1.00  0.00    -0.229 A  
HETATM   26  C   UNL     1     -11.206  12.583  69.301  1.00  0.00    -0.256 A  
HETATM   27  C   UNL     1     -10.236  15.989  68.481  1.00  0.00    -0.236 A  
HETATM   28  C   UNL     1     -12.022  12.681  70.438  1.00  0.00    -0.331 A  
HETATM   29  C   UNL     1     -10.139  17.335  68.850  1.00  0.00    -0.331 A  
HETATM   30  C   UNL     1     -13.015  11.734  70.702  1.00  0.00     0.042 A  
HETATM   31  C   UNL     1     -13.217  10.668  69.836  1.00  0.00     0.517 A  
HETATM   32  C   UNL     1      -9.984  17.690  70.189  1.00  0.00     1.224 A  
HETATM   33  C   UNL     1      -9.956  16.703  71.166  1.00  0.00     3.124 A  
HETATM   34  C   UNL     1     -12.439  10.557  68.689  1.00  0.00     1.117 A  
HETATM   35  C   UNL     1     -11.451  11.511  68.422  1.00  0.00    -0.364 A  
HETATM   36  C   UNL     1     -10.044  15.361  70.800  1.00  0.00     0.522 A  
ENDBRANCH  22  23
ENDBRANCH  20  22
ENDBRANCH  16  20
ENDBRANCH  13  15
ENDBRANCH  11  13
BRANCH  12  37
HETATM   37  C   UNL     1      -9.078   7.593  68.364  1.00  0.00    -0.130 A  
HETATM   38  O   UNL     1      -8.661   8.691  64.389  1.00  0.00    -0.144 OA 
HETATM   39  C   UNL     1      -8.936   7.890  66.994  1.00  0.00    -0.145 A  
HETATM   40  O   UNL     1     -10.700   9.496  64.318  1.00  0.00     2.448 OA 
HETATM   41  C   UNL     1     -11.325   8.518  68.295  1.00  0.00     0.798 A  
HETATM   42  C   UNL     1      -9.963   8.547  66.305  1.00  0.00    -0.181 A  
HETATM   43  N   UNL     1      -9.761   8.936  64.902  1.00  0.00     0.526 N  
HETATM   44  C   UNL     1     -11.161   8.859  66.951  1.00  0.00     0.972 A  
HETATM   45  C   UNL     1     -10.290   7.894  68.997  1.00  0.00    -0.223 A  
ENDBRANCH  12  37
ENDBRANCH   3   5
ENDBRANCH   2   3
TORSDOF 8
ENDMDL
MODEL      305
REMARK 921   NORMALIZED FREE ENERGY PREDICTED BY IDOCK:   18.42 KCAL/MOL
REMARK 922        TOTAL FREE ENERGY PREDICTED BY IDOCK:   25.12 KCAL/MOL
REMARK 923 INTER-LIGAND FREE ENERGY PREDICTED BY IDOCK:    0.22 KCAL/MOL
REMARK 924 INTRA-LIGAND FREE ENERGY PREDICTED BY IDOCK:   24.90 KCAL/MOL
REMARK 927      BINDING AFFINITY PREDICTED BY RF-SCORE:    0.00 PKD
ROOT
HETATM    1  C   UNL     1      -6.450  10.515  67.690  1.00  0.00    -0.057 C  
HETATM    2  O   UNL     1      -5.902  10.918  68.950  1.00  0.00    -0.041 OA 
ENDROOT
BRANCH   2   3
HETATM    3  C   UNL     1      -6.263  12.178  69.314  1.00  0.00    -0.097 C  
HETATM    4  O   UNL     1      -5.487  13.017  69.745  1.00  0.00    -0.082 OA 
BRANCH   3   5
HETATM    5  C   UNL     1      -7.722  12.390  69.112  1.00  0.00     0.286 C  
HETATM    6  C   UNL     1      -8.296  13.595  69.352  1.00  0.00     0.774 C  
HETATM    7  N   UNL     1      -9.643  13.774  69.092  1.00  0.00     0.199 NA 
HETATM    8  C   UNL     1      -7.636  14.833  69.913  1.00  0.00     0.113 C  
HETATM    9  C   UNL     1     -10.533  12.771  68.773  1.00  0.00    -0.156 C  
HETATM   10  C   UNL     1     -11.979  13.206  68.664  1.00  0.00    -0.319 C  
HETATM   11  C   UNL     1     -10.080  11.509  68.576  1.00  0.00    -0.211 C  
HETATM   12  C   UNL     1      -8.577  11.197  68.629  1.00  0.00    -0.151 C  
BRANCH  11  13
HETATM   13  C   UNL     1     -11.086  10.434  68.375  1.00  0.00    -0.268 C  
HETATM   14  O   UNL     1     -12.274  10.667  68.213  1.00  0.00    -0.345 OA 
BRANCH  13  15
HETATM   15  O   UNL     1     -10.514   9.208  68.304  1.00  0.00    -0.211 OA 
HETATM   16  C   UNL     1      -9.431   7.300  67.172  1.00  0.00    -0.145 C  
HETATM   17  C   UNL     1      -8.723   9.697  66.728  1.00  0.00    -0.144 C  
HETATM   18  C   UNL     1      -9.921   8.784  67.038  1.00  0.00    -0.240 C  
HETATM   19  C   UNL     1     -10.934   8.779  65.870  1.00  0.00     2.448 C  
BRANCH  16  20
HETATM   20  N   UNL     1      -8.383   6.971  68.174  1.00  0.00    -0.122 NA 
HETATM   21  C   UNL     1      -8.960   6.243  69.308  1.00  0.00    -0.125 C  
BRANCH  20  22
HETATM   22  C   UNL     1      -7.350   6.093  67.581  1.00  0.00    -0.080 C  
BRANCH  22  23
HETATM   23  C   UNL     1      -7.839   5.077  66.547  1.00  0.00    -0.100 C  
HETATM   24  C   UNL     1      -8.797   5.592  65.442  1.00  0.00    -0.112 C  
HETATM   25  C   UNL     1      -9.396   4.356  64.752  1.00  0.00    -0.160 A  
HETATM   26  C   UNL     1      -8.130   6.636  64.542  1.00  0.00    -0.073 A  
HETATM   27  C   UNL     1     -10.785   4.161  64.736  1.00  0.00    -0.151 A  
HETATM   28  C   UNL     1      -7.395   6.317  63.390  1.00  0.00    -0.064 A  
HETATM   29  C   UNL     1     -11.328   2.940  64.317  1.00  0.00     1.297 A  
HETATM   30  C   UNL     1      -6.704   7.300  62.676  1.00  0.00    -0.057 A  
HETATM   31  C   UNL     1      -6.733   8.624  63.095  1.00  0.00    -0.090 A  
HETATM   32  C   UNL     1     -10.493   1.907  63.892  1.00  0.00     0.040 A  
HETATM   33  C   UNL     1      -9.118   2.100  63.856  1.00  0.00    -0.101 A  
HETATM   34  C   UNL     1      -7.472   8.973  64.220  1.00  0.00    -0.106 A  
HETATM   35  C   UNL     1      -8.170   7.988  64.929  1.00  0.00    -0.137 A  
HETATM   36  C   UNL     1      -8.576   3.311  64.281  1.00  0.00    -0.093 A  
ENDBRANCH  22  23
ENDBRANCH  20  22
ENDBRANCH  16  20
ENDBRANCH  13  15
ENDBRANCH  11  13
BRANCH  12  37
HETATM   37  C   UNL     1      -8.308   9.935  69.456  1.00  0.00    -0.174 A  
HETATM   38  O   UNL     1     -10.604   9.042  72.789  1.00  0.00     0.302 OA 
HETATM   39  C   UNL     1      -9.147   9.613  70.541  1.00  0.00    -0.198 A  
HETATM   40  O   UNL     1      -9.400   7.264  73.237  1.00  0.00    -0.151 OA 
HETATM   41  C   UNL     1      -6.951   7.986  69.974  1.00  0.00    -0.048 A  
HETATM   42  C   UNL     1      -8.850   8.519  71.362  1.00  0.00    -0.198 A  
HETATM   43  N   UNL     1      -9.680   8.254  72.545  1.00  0.00    -0.282 N  
HETATM   44  C   UNL     1      -7.754   7.700  71.079  1.00  0.00    -0.088 A  
HETATM   45  C   UNL     1      -7.223   9.098  69.171  1.00  0.00    -0.067 A  
ENDBRANCH  12  37
ENDBRANCH   3   5
ENDBRANCH   2   3
TORSDOF 8
ENDMDL
MODEL      306
REMARK 921   NORMALIZED FREE ENERGY PREDICTED BY IDOCK:   18.70 KCAL/MOL
REMARK 922        TOTAL FREE ENERGY PREDICTED BY IDOCK:   25.54 KCAL/MOL
REMARK 923 INTER-LIGAND FREE ENERGY PREDICTED BY IDOCK:   17.35 KCAL/MOL
REMARK 924 INTRA-LIGAND FREE ENERGY PREDICTED BY IDOCK:    8.19 KCAL/MOL
REMARK 927      BINDING AFFINITY PREDICTED BY RF-SCORE:    0.00 PKD
ROOT
HETATM    1  C   UNL     1      -9.236  14.937  72.786  1.00  0.00     7.745 C  
HETATM    2  O   UNL     1      -9.057  15.239  71.398  1.00  0.00     2.394 OA 
ENDROOT
BRANCH   2   3
HETATM    3  C   UNL     1     -10.230  15.368  70.721  1.00  0.00     0.397 C  
HETATM    4  O   UNL     1     -10.495  16.302  69.979  1.00  0.00    -0.255 OA 
BRANCH   3   5
HETATM    5  C   UNL     1     -11.134  14.221  71.006  1.00  0.00     0.646 C  
HETATM    6  C   UNL     1     -11.786  14.120  72.191  1.00  0.00     0.806 C  
HETATM    7  N   UNL     1     -12.669  13.075  72.396  1.00  0.00     0.002 NA 
HETATM    8  C   UNL     1     -11.661  15.028  73.391  1.00  0.00    -0.229 C  
HETATM    9  C   UNL     1     -12.826  11.988  71.563  1.00  0.00    -0.297 C  
HETATM   10  C   UNL     1     -13.762  10.915  72.076  1.00  0.00     0.021 C  
HETATM   11  C   UNL     1     -12.169  11.951  70.378  1.00  0.00    -0.399 C  
HETATM   12  C   UNL     1     -11.309  13.137  69.919  1.00  0.00    -0.055 C  
BRANCH  11  13
HETATM   13  C   UNL     1     -12.254  10.702  69.577  1.00  0.00    -0.159 C  
HETATM   14  O   UNL     1     -13.129  10.513  68.745  1.00  0.00     1.275 OA 
BRANCH  13  15
HETATM   15  O   UNL     1     -11.212   9.871  69.816  1.00  0.00    -0.245 OA 
HETATM   16  C   UNL     1      -9.931   7.769  69.631  1.00  0.00    -0.190 C  
HETATM   17  C   UNL     1     -10.980   8.879  67.604  1.00  0.00     0.042 C  
HETATM   18  C   UNL     1     -11.155   8.596  69.105  1.00  0.00     0.183 C  
HETATM   19  C   UNL     1     -12.394   7.707  69.363  1.00  0.00     2.037 C  
BRANCH  16  20
HETATM   20  N   UNL     1      -8.560   8.319  69.467  1.00  0.00    -0.132 NA 
HETATM   21  C   UNL     1      -7.619   7.647  70.367  1.00  0.00    -0.088 C  
BRANCH  20  22
HETATM   22  C   UNL     1      -8.070   8.097  68.089  1.00  0.00    -0.128 C  
BRANCH  22  23
HETATM   23  C   UNL     1      -8.893   7.141  67.224  1.00  0.00    -0.120 C  
HETATM   24  C   UNL     1      -8.114   6.181  66.287  1.00  0.00    -0.113 C  
HETATM   25  C   UNL     1      -9.135   5.580  65.306  1.00  0.00    -0.021 A  
HETATM   26  C   UNL     1      -7.238   5.198  67.068  1.00  0.00    -0.081 A  
HETATM   27  C   UNL     1      -8.975   5.759  63.924  1.00  0.00     0.499 A  
HETATM   28  C   UNL     1      -7.688   3.954  67.536  1.00  0.00    -0.075 A  
HETATM   29  C   UNL     1     -10.004   5.419  63.039  1.00  0.00     1.412 A  
HETATM   30  C   UNL     1      -6.885   3.151  68.350  1.00  0.00    -0.048 A  
HETATM   31  C   UNL     1      -5.612   3.572  68.714  1.00  0.00    -0.021 A  
HETATM   32  C   UNL     1     -11.197   4.880  63.520  1.00  0.00     1.881 A  
HETATM   33  C   UNL     1     -11.354   4.652  64.881  1.00  0.00     0.532 A  
HETATM   34  C   UNL     1      -5.131   4.789  68.247  1.00  0.00     0.000 A  
HETATM   35  C   UNL     1      -5.934   5.588  67.425  1.00  0.00    -0.022 A  
HETATM   36  C   UNL     1     -10.333   4.999  65.764  1.00  0.00    -0.158 A  
ENDBRANCH  22  23
ENDBRANCH  20  22
ENDBRANCH  16  20
ENDBRANCH  13  15
ENDBRANCH  11  13
BRANCH  12  37
HETATM   37  C   UNL     1      -9.960  12.658  69.374  1.00  0.00     0.789 A  
HETATM   38  O   UNL     1      -7.392  15.277  67.443  1.00  0.00    -0.183 OA 
HETATM   39  C   UNL     1      -9.072  13.581  68.787  1.00  0.00     0.090 A  
HETATM   40  O   UNL     1      -5.957  13.674  67.013  1.00  0.00    -0.091 OA 
HETATM   41  C   UNL     1      -8.388  10.876  68.865  1.00  0.00    -0.139 A  
HETATM   42  C   UNL     1      -7.882  13.137  68.197  1.00  0.00    -0.145 A  
HETATM   43  N   UNL     1      -7.013  14.099  67.505  1.00  0.00    -0.184 N  
HETATM   44  C   UNL     1      -7.534  11.785  68.237  1.00  0.00    -0.103 A  
HETATM   45  C   UNL     1      -9.593  11.308  69.425  1.00  0.00     0.282 A  
ENDBRANCH  12  37
ENDBRANCH   3   5
ENDBRANCH   2   3
TORSDOF 8
ENDMDL
MODEL      307
REMARK 921   NORMALIZED FREE ENERGY PREDICTED BY IDOCK:   19.88 KCAL/MOL
REMARK 922        TOTAL FREE ENERGY PREDICTED BY IDOCK:   27.26 KCAL/MOL
REMARK 923 INTER-LIGAND FREE ENERGY PREDICTED BY IDOCK:   15.48 KCAL/MOL
REMARK 924 INTRA-LIGAND FREE ENERGY PREDICTED BY IDOCK:   11.78 KCAL/MOL
REMARK 927      BINDING AFFINITY PREDICTED BY RF-SCORE:    0.00 PKD
ROOT
HETATM    1  C   UNL     1      -6.658  18.058  64.270  1.00  0.00     3.196 C  
HETATM    2  O   UNL     1      -7.325  17.090  65.088  1.00  0.00     1.217 OA 
ENDROOT
BRANCH   2   3
HETATM    3  C   UNL     1      -6.980  17.167  66.401  1.00  0.00    -0.261 C  
HETATM    4  O   UNL     1      -5.833  17.281  66.804  1.00  0.00    -0.158 OA 
BRANCH   3   5
HETATM    5  C   UNL     1      -8.186  17.096  67.270  1.00  0.00    -0.206 C  
HETATM    6  C   UNL     1      -8.190  17.644  68.511  1.00  0.00    -0.292 C  
HETATM    7  N   UNL     1      -9.349  17.617  69.266  1.00  0.00     0.054 NA 
HETATM    8  C   UNL     1      -7.035  18.301  69.231  1.00  0.00    -0.174 C  
HETATM    9  C   UNL     1     -10.488  16.907  68.952  1.00  0.00    -0.346 C  
HETATM   10  C   UNL     1     -11.573  16.935  70.006  1.00  0.00     0.883 C  
HETATM   11  C   UNL     1     -10.570  16.262  67.763  1.00  0.00    -0.314 C  
HETATM   12  C   UNL     1      -9.439  16.371  66.730  1.00  0.00    -0.265 C  
BRANCH  11  13
HETATM   13  C   UNL     1     -11.753  15.395  67.524  1.00  0.00    -0.066 C  
HETATM   14  O   UNL     1     -12.678  15.730  66.800  1.00  0.00     1.831 OA 
BRANCH  13  15
HETATM   15  O   UNL     1     -11.627  14.186  68.120  1.00  0.00    -0.293 OA 
HETATM   16  C   UNL     1     -11.840  11.731  68.282  1.00  0.00    -0.271 C  
HETATM   17  C   UNL     1     -10.948  12.862  66.191  1.00  0.00    -0.304 C  
HETATM   18  C   UNL     1     -11.952  12.987  67.349  1.00  0.00    -0.316 C  
HETATM   19  C   UNL     1     -13.407  12.984  66.827  1.00  0.00     3.860 C  
BRANCH  16  20
HETATM   20  N   UNL     1     -10.529  11.401  68.899  1.00  0.00    -0.204 NA 
HETATM   21  C   UNL     1      -9.572  10.960  67.880  1.00  0.00    -0.166 C  
BRANCH  20  22
HETATM   22  C   UNL     1      -9.943  12.593  69.551  1.00  0.00     1.098 C  
BRANCH  22  23
HETATM   23  C   UNL     1     -10.756  13.207  70.692  1.00  0.00     2.692 C  
HETATM   24  C   UNL     1     -12.270  12.874  70.745  1.00  0.00    -0.348 C  
HETATM   25  C   UNL     1     -12.912  13.848  71.747  1.00  0.00    -0.442 A  
HETATM   26  C   UNL     1     -12.525  11.381  70.967  1.00  0.00    -0.486 A  
HETATM   27  C   UNL     1     -13.940  14.709  71.334  1.00  0.00    -0.470 A  
HETATM   28  C   UNL     1     -12.618  10.785  72.234  1.00  0.00     0.368 A  
HETATM   29  C   UNL     1     -14.373  15.749  72.165  1.00  0.00    -0.353 A  
HETATM   30  C   UNL     1     -12.726   9.399  72.377  1.00  0.00    -0.350 A  
HETATM   31  C   UNL     1     -12.748   8.577  71.257  1.00  0.00    -0.221 A  
HETATM   32  C   UNL     1     -13.800  15.932  73.423  1.00  0.00    -0.076 A  
HETATM   33  C   UNL     1     -12.814  15.059  73.866  1.00  0.00    -0.375 A  
HETATM   34  C   UNL     1     -12.681   9.141  69.989  1.00  0.00     1.162 A  
HETATM   35  C   UNL     1     -12.580  10.529  69.847  1.00  0.00    -0.124 A  
HETATM   36  C   UNL     1     -12.375  14.029  73.037  1.00  0.00     0.153 A  
ENDBRANCH  22  23
ENDBRANCH  20  22
ENDBRANCH  16  20
ENDBRANCH  13  15
ENDBRANCH  11  13
BRANCH  12  37
HETATM   37  C   UNL     1      -9.092  14.998  66.148  1.00  0.00    -0.237 A  
HETATM   38  O   UNL     1      -6.372  12.507  68.039  1.00  0.00    -0.068 OA 
HETATM   39  C   UNL     1      -8.221  14.138  66.846  1.00  0.00     0.007 A  
HETATM   40  O   UNL     1      -6.522  11.006  66.447  1.00  0.00    -0.119 OA 
HETATM   41  C   UNL     1      -9.230  13.351  64.365  1.00  0.00     2.064 A  
HETATM   42  C   UNL     1      -7.820  12.924  66.274  1.00  0.00     1.235 A  
HETATM   43  N   UNL     1      -6.837  12.084  66.973  1.00  0.00    -0.130 N  
HETATM   44  C   UNL     1      -8.326  12.525  65.035  1.00  0.00     2.531 A  
HETATM   45  C   UNL     1      -9.607  14.580  64.914  1.00  0.00     0.563 A  
ENDBRANCH  12  37
ENDBRANCH   3   5
ENDBRANCH   2   3
TORSDOF 8
ENDMDL
MODEL      308
REMARK 921   NORMALIZED FREE ENERGY PREDICTED BY IDOCK:   21.14 KCAL/MOL
REMARK 922        TOTAL FREE ENERGY PREDICTED BY IDOCK:   29.12 KCAL/MOL
REMARK 923 INTER-LIGAND FREE ENERGY PREDICTED BY IDOCK:   24.25 KCAL/MOL
REMARK 924 INTRA-LIGAND FREE ENERGY PREDICTED BY IDOCK:    4.87 KCAL/MOL
REMARK 927      BINDING AFFINITY PREDICTED BY RF-SCORE:    0.00 PKD
ROOT
HETATM    1  C   UNL     1      -8.751  11.009  73.187  1.00  0.00    17.029 C  
HETATM    2  O   UNL     1      -8.426  10.310  71.980  1.00  0.00     3.411 OA 
ENDROOT
BRANCH   2   3
HETATM    3  C   UNL     1      -9.463  10.240  71.103  1.00  0.00     2.232 C  
HETATM    4  O   UNL     1     -10.608  10.572  71.367  1.00  0.00     1.063 OA 
BRANCH   3   5
HETATM    5  C   UNL     1      -9.010   9.709  69.789  1.00  0.00    -0.226 C  
HETATM    6  C   UNL     1      -8.767   8.387  69.613  1.00  0.00    -0.133 C  
HETATM    7  N   UNL     1      -8.410   7.919  68.360  1.00  0.00    -0.124 NA 
HETATM    8  C   UNL     1      -8.817   7.294  70.655  1.00  0.00    -0.148 C  
HETATM    9  C   UNL     1      -8.088   8.709  67.277  1.00  0.00    -0.101 C  
HETATM   10  C   UNL     1      -7.603   7.957  66.056  1.00  0.00    -0.086 C  
HETATM   11  C   UNL     1      -8.228  10.054  67.362  1.00  0.00    -0.118 C  
HETATM   12  C   UNL     1      -8.811  10.705  68.625  1.00  0.00    -0.151 C  
BRANCH  11  13
HETATM   13  C   UNL     1      -7.737  10.876  66.225  1.00  0.00    -0.147 C  
HETATM   14  O   UNL     1      -6.616  10.747  65.757  1.00  0.00    -0.120 OA 
BRANCH  13  15
HETATM   15  O   UNL     1      -8.699  11.692  65.733  1.00  0.00    -0.090 OA 
HETATM   16  C   UNL     1     -10.985  12.285  65.010  1.00  0.00    -0.302 C  
HETATM   17  C   UNL     1     -10.548  11.043  67.181  1.00  0.00    -0.294 C  
HETATM   18  C   UNL     1     -10.082  11.220  65.727  1.00  0.00    -0.247 C  
HETATM   19  C   UNL     1     -10.268   9.914  64.920  1.00  0.00     0.133 C  
BRANCH  16  20
HETATM   20  N   UNL     1     -11.088  13.651  65.586  1.00  0.00    -0.293 NA 
HETATM   21  C   UNL     1     -10.552  14.648  64.654  1.00  0.00    -0.240 C  
BRANCH  20  22
HETATM   22  C   UNL     1     -12.501  14.010  65.832  1.00  0.00    -0.481 C  
BRANCH  22  23
HETATM   23  C   UNL     1     -12.885  14.284  67.288  1.00  0.00     1.056 C  
HETATM   24  C   UNL     1     -11.756  14.747  68.245  1.00  0.00    -0.340 C  
HETATM   25  C   UNL     1     -12.302  14.632  69.677  1.00  0.00    -0.270 A  
HETATM   26  C   UNL     1     -11.167  16.099  67.832  1.00  0.00    -0.245 A  
HETATM   27  C   UNL     1     -11.657  13.812  70.615  1.00  0.00    -0.013 A  
HETATM   28  C   UNL     1     -11.676  17.334  68.259  1.00  0.00     1.034 A  
HETATM   29  C   UNL     1     -12.264  13.521  71.842  1.00  0.00     0.265 A  
HETATM   30  C   UNL     1     -11.179  18.538  67.751  1.00  0.00     0.277 A  
HETATM   31  C   UNL     1     -10.159  18.534  66.808  1.00  0.00    -0.406 A  
HETATM   32  C   UNL     1     -13.512  14.057  72.156  1.00  0.00    -0.567 A  
HETATM   33  C   UNL     1     -14.144  14.908  71.258  1.00  0.00    -0.475 A  
HETATM   34  C   UNL     1      -9.620  17.326  66.383  1.00  0.00    -0.290 A  
HETATM   35  C   UNL     1     -10.114  16.122  66.898  1.00  0.00    -0.273 A  
HETATM   36  C   UNL     1     -13.545  15.192  70.033  1.00  0.00     0.780 A  
ENDBRANCH  22  23
ENDBRANCH  20  22
ENDBRANCH  16  20
ENDBRANCH  13  15
ENDBRANCH  11  13
BRANCH  12  37
HETATM   37  C   UNL     1      -7.977  11.917  69.052  1.00  0.00     0.135 A  
HETATM   38  O   UNL     1      -5.811  11.875  72.585  1.00  0.00     0.876 OA 
HETATM   39  C   UNL     1      -7.191  11.853  70.219  1.00  0.00     1.591 A  
HETATM   40  O   UNL     1      -5.156  13.949  72.298  1.00  0.00    -0.161 OA 
HETATM   41  C   UNL     1      -7.281  14.227  68.752  1.00  0.00    -0.129 A  
HETATM   42  C   UNL     1      -6.506  12.988  70.671  1.00  0.00     0.706 A  
HETATM   43  N   UNL     1      -5.769  12.932  71.940  1.00  0.00     0.367 N  
HETATM   44  C   UNL     1      -6.545  14.176  69.937  1.00  0.00    -0.082 A  
HETATM   45  C   UNL     1      -7.996  13.108  68.315  1.00  0.00    -0.148 A  
ENDBRANCH  12  37
ENDBRANCH   3   5
ENDBRANCH   2   3
TORSDOF 8
ENDMDL
MODEL      309
REMARK 921   NORMALIZED FREE ENERGY PREDICTED BY IDOCK:   21.86 KCAL/MOL
REMARK 922        TOTAL FREE ENERGY PREDICTED BY IDOCK:   30.17 KCAL/MOL
REMARK 923 INTER-LIGAND FREE ENERGY PREDICTED BY IDOCK:   11.40 KCAL/MOL
REMARK 924 INTRA-LIGAND FREE ENERGY PREDICTED BY IDOCK:   18.76 KCAL/MOL
REMARK 927      BINDING AFFINITY PREDICTED BY RF-SCORE:    0.00 PKD
ROOT
HETATM    1  C   UNL     1     -12.348  17.441  66.972  1.00  0.00     4.154 C  
HETATM    2  O   UNL     1     -12.099  16.440  65.979  1.00  0.00     1.529 OA 
ENDROOT
BRANCH   2   3
HETATM    3  C   UNL     1     -11.011  16.707  65.208  1.00  0.00    -0.120 C  
HETATM    4  O   UNL     1     -10.977  17.569  64.344  1.00  0.00    -0.538 OA 
BRANCH   3   5
HETATM    5  C   UNL     1      -9.877  15.811  65.565  1.00  0.00    -0.300 C  
HETATM    6  C   UNL     1      -9.886  14.499  65.225  1.00  0.00    -0.186 C  
HETATM    7  N   UNL     1      -8.786  13.711  65.515  1.00  0.00     1.122 NA 
HETATM    8  C   UNL     1     -10.998  13.730  64.550  1.00  0.00    -0.399 C  
HETATM    9  C   UNL     1      -7.720  14.089  66.303  1.00  0.00     2.111 C  
HETATM   10  C   UNL     1      -6.705  13.000  66.577  1.00  0.00     1.838 C  
HETATM   11  C   UNL     1      -7.641  15.363  66.757  1.00  0.00     0.022 C  
HETATM   12  C   UNL     1      -8.686  16.411  66.346  1.00  0.00    -0.355 C  
BRANCH  11  13
HETATM   13  C   UNL     1      -6.555  15.692  67.717  1.00  0.00    -0.161 C  
HETATM   14  O   UNL     1      -6.129  16.827  67.864  1.00  0.00    -0.122 OA 
BRANCH  13  15
HETATM   15  O   UNL     1      -6.179  14.617  68.448  1.00  0.00    -0.088 OA 
HETATM   16  C   UNL     1      -6.473  12.833  70.131  1.00  0.00     0.180 C  
HETATM   17  C   UNL     1      -8.268  13.365  68.416  1.00  0.00    -0.139 C  
HETATM   18  C   UNL     1      -7.170  13.971  69.306  1.00  0.00    -0.016 C  
HETATM   19  C   UNL     1      -7.773  14.931  70.358  1.00  0.00     0.777 C  
BRANCH  16  20
HETATM   20  N   UNL     1      -5.846  11.696  69.409  1.00  0.00    -0.064 NA 
HETATM   21  C   UNL     1      -5.411  10.659  70.351  1.00  0.00    -0.074 C  
BRANCH  20  22
HETATM   22  C   UNL     1      -6.815  11.062  68.489  1.00  0.00    -0.064 C  
BRANCH  22  23
HETATM   23  C   UNL     1      -7.693   9.960  69.087  1.00  0.00    -0.098 C  
HETATM   24  C   UNL     1      -8.706  10.377  70.185  1.00  0.00     0.441 C  
HETATM   25  C   UNL     1      -9.213   9.085  70.846  1.00  0.00    -0.320 A  
HETATM   26  C   UNL     1      -9.765  11.348  69.654  1.00  0.00     0.747 A  
HETATM   27  C   UNL     1      -9.037   8.880  72.223  1.00  0.00     0.019 A  
HETATM   28  C   UNL     1     -10.971  10.940  69.065  1.00  0.00    -0.285 A  
HETATM   29  C   UNL     1      -9.284   7.626  72.793  1.00  0.00    -0.226 A  
HETATM   30  C   UNL     1     -11.844  11.865  68.485  1.00  0.00    -0.357 A  
HETATM   31  C   UNL     1     -11.533  13.219  68.483  1.00  0.00    -0.347 A  
HETATM   32  C   UNL     1      -9.726   6.567  72.002  1.00  0.00    -0.156 A  
HETATM   33  C   UNL     1      -9.951   6.765  70.645  1.00  0.00    -0.201 A  
HETATM   34  C   UNL     1     -10.355  13.654  69.081  1.00  0.00     0.042 A  
HETATM   35  C   UNL     1      -9.487  12.727  69.667  1.00  0.00     1.859 A  
HETATM   36  C   UNL     1      -9.697   8.010  70.074  1.00  0.00    -0.173 A  
ENDBRANCH  22  23
ENDBRANCH  20  22
ENDBRANCH  16  20
ENDBRANCH  13  15
ENDBRANCH  11  13
BRANCH  12  37
HETATM   37  C   UNL     1      -9.154  17.224  67.557  1.00  0.00    -0.223 A  
HETATM   38  O   UNL     1      -6.715  20.112  69.255  1.00  0.00    -0.296 OA 
HETATM   39  C   UNL     1      -8.338  18.251  68.072  1.00  0.00    -0.272 A  
HETATM   40  O   UNL     1      -8.178  20.530  70.835  1.00  0.00     1.077 OA 
HETATM   41  C   UNL     1     -10.760  17.661  69.329  1.00  0.00     0.246 A  
HETATM   42  C   UNL     1      -8.712  18.931  69.237  1.00  0.00     0.120 A  
HETATM   43  N   UNL     1      -7.804  19.932  69.815  1.00  0.00     0.272 N  
HETATM   44  C   UNL     1      -9.925  18.641  69.867  1.00  0.00     0.764 A  
HETATM   45  C   UNL     1     -10.376  16.954  68.186  1.00  0.00    -0.336 A  
ENDBRANCH  12  37
ENDBRANCH   3   5
ENDBRANCH   2   3
TORSDOF 8
ENDMDL
MODEL      310
REMARK 921   NORMALIZED FREE ENERGY PREDICTED BY IDOCK:   23.80 KCAL/MOL
REMARK 922        TOTAL FREE ENERGY PREDICTED BY IDOCK:   33.01 KCAL/MOL
REMARK 923 INTER-LIGAND FREE ENERGY PREDICTED BY IDOCK:   16.65 KCAL/MOL
REMARK 924 INTRA-LIGAND FREE ENERGY PREDICTED BY IDOCK:   16.37 KCAL/MOL
REMARK 927      BINDING AFFINITY PREDICTED BY RF-SCORE:    0.00 PKD
ROOT
HETATM    1  C   UNL     1     -12.307   3.817  70.175  1.00  0.00    15.754 C  
HETATM    2  O   UNL     1     -11.503   4.775  70.872  1.00  0.00     1.239 OA 
ENDROOT
BRANCH   2   3
HETATM    3  C   UNL     1     -10.281   4.965  70.304  1.00  0.00    -0.229 C  
HETATM    4  O   UNL     1      -9.877   4.357  69.325  1.00  0.00    -0.194 OA 
BRANCH   3   5
HETATM    5  C   UNL     1      -9.514   6.010  71.036  1.00  0.00    -0.187 C  
HETATM    6  C   UNL     1     -10.008   6.583  72.161  1.00  0.00    -0.161 C  
HETATM    7  N   UNL     1      -9.240   7.503  72.852  1.00  0.00    -0.153 NA 
HETATM    8  C   UNL     1     -11.362   6.357  72.792  1.00  0.00    -0.226 C  
HETATM    9  C   UNL     1      -8.058   8.052  72.402  1.00  0.00    -0.131 C  
HETATM   10  C   UNL     1      -7.476   9.136  73.284  1.00  0.00     0.802 C  
HETATM   11  C   UNL     1      -7.505   7.602  71.250  1.00  0.00    -0.079 C  
HETATM   12  C   UNL     1      -8.139   6.437  70.476  1.00  0.00    -0.117 C  
BRANCH  11  13
HETATM   13  C   UNL     1      -6.311   8.317  70.728  1.00  0.00    -0.036 C  
HETATM   14  O   UNL     1      -5.170   7.960  70.980  1.00  0.00    -0.026 OA 
BRANCH  13  15
HETATM   15  O   UNL     1      -6.646   9.323  69.887  1.00  0.00    -0.044 OA 
HETATM   16  C   UNL     1      -7.436  11.588  69.300  1.00  0.00     0.035 C  
HETATM   17  C   UNL     1      -5.715  11.202  71.126  1.00  0.00     0.102 C  
HETATM   18  C   UNL     1      -6.973  10.630  70.453  1.00  0.00     0.181 C  
HETATM   19  C   UNL     1      -8.159  10.577  71.444  1.00  0.00     4.098 C  
BRANCH  16  20
HETATM   20  N   UNL     1      -6.487  11.913  68.204  1.00  0.00    -0.050 NA 
HETATM   21  C   UNL     1      -7.079  11.611  66.898  1.00  0.00    -0.124 C  
BRANCH  20  22
HETATM   22  C   UNL     1      -6.161  13.356  68.205  1.00  0.00    -0.112 C  
BRANCH  22  23
HETATM   23  C   UNL     1      -7.303  14.307  68.570  1.00  0.00    -0.117 C  
HETATM   24  C   UNL     1      -8.530  14.340  67.623  1.00  0.00    -0.185 C  
HETATM   25  C   UNL     1      -9.361  15.576  68.004  1.00  0.00    -0.193 A  
HETATM   26  C   UNL     1      -9.263  12.996  67.581  1.00  0.00    -0.200 A  
HETATM   27  C   UNL     1      -9.616  16.575  67.052  1.00  0.00    -0.249 A  
HETATM   28  C   UNL     1     -10.288  12.638  68.470  1.00  0.00    -0.232 A  
HETATM   29  C   UNL     1     -10.170  17.801  67.439  1.00  0.00    -0.353 A  
HETATM   30  C   UNL     1     -10.835  11.352  68.466  1.00  0.00    -0.251 A  
HETATM   31  C   UNL     1     -10.373  10.395  67.572  1.00  0.00    -0.268 A  
HETATM   32  C   UNL     1     -10.492  18.039  68.774  1.00  0.00    -0.182 A  
HETATM   33  C   UNL     1     -10.290  17.044  69.722  1.00  0.00     0.027 A  
HETATM   34  C   UNL     1      -9.374  10.727  66.665  1.00  0.00    -0.188 A  
HETATM   35  C   UNL     1      -8.832  12.018  66.665  1.00  0.00    -0.191 A  
HETATM   36  C   UNL     1      -9.731  15.826  69.340  1.00  0.00    -0.286 A  
ENDBRANCH  22  23
ENDBRANCH  20  22
ENDBRANCH  16  20
ENDBRANCH  13  15
ENDBRANCH  11  13
BRANCH  12  37
HETATM   37  C   UNL     1      -8.208   6.746  68.978  1.00  0.00    -0.117 A  
HETATM   38  O   UNL     1      -9.989   4.095  66.336  1.00  0.00    -0.218 OA 
HETATM   39  C   UNL     1      -8.883   5.866  68.109  1.00  0.00    -0.110 A  
HETATM   40  O   UNL     1      -9.475   5.349  64.611  1.00  0.00     0.228 OA 
HETATM   41  C   UNL     1      -7.607   8.117  67.063  1.00  0.00    -0.096 A  
HETATM   42  C   UNL     1      -8.865   6.087  66.726  1.00  0.00    -0.120 A  
HETATM   43  N   UNL     1      -9.491   5.108  65.827  1.00  0.00    -0.158 N  
HETATM   44  C   UNL     1      -8.231   7.215  66.199  1.00  0.00    -0.128 A  
HETATM   45  C   UNL     1      -7.591   7.882  68.440  1.00  0.00    -0.108 A  
ENDBRANCH  12  37
ENDBRANCH   3   5
ENDBRANCH   2   3
TORSDOF 8
ENDMDL
MODEL      311
REMARK 921   NORMALIZED FREE ENERGY PREDICTED BY IDOCK:   26.47 KCAL/MOL
REMARK 922        TOTAL FREE ENERGY PREDICTED BY IDOCK:   36.94 KCAL/MOL
REMARK 923 INTER-LIGAND FREE ENERGY PREDICTED BY IDOCK:   22.77 KCAL/MOL
REMARK 924 INTRA-LIGAND FREE ENERGY PREDICTED BY IDOCK:   14.17 KCAL/MOL
REMARK 927      BINDING AFFINITY PREDICTED BY RF-SCORE:    0.00 PKD
ROOT
HETATM    1  C   UNL     1      -8.398   6.626  72.782  1.00  0.00    -0.118 C  
HETATM    2  O   UNL     1      -9.679   7.262  72.732  1.00  0.00    -0.148 OA 
ENDROOT
BRANCH   2   3
HETATM    3  C   UNL     1      -9.993   7.744  71.499  1.00  0.00    -0.171 C  
HETATM    4  O   UNL     1     -10.824   7.242  70.758  1.00  0.00    -0.232 OA 
BRANCH   3   5
HETATM    5  C   UNL     1      -9.190   8.957  71.185  1.00  0.00    -0.324 C  
HETATM    6  C   UNL     1      -9.552  10.177  71.653  1.00  0.00     3.195 C  
HETATM    7  N   UNL     1      -8.747  11.273  71.396  1.00  0.00     7.739 NA 
HETATM    8  C   UNL     1     -10.789  10.531  72.444  1.00  0.00     5.454 C  
HETATM    9  C   UNL     1      -7.673  11.287  70.531  1.00  0.00     2.652 C  
HETATM   10  C   UNL     1      -7.035  12.643  70.323  1.00  0.00     1.225 C  
HETATM   11  C   UNL     1      -7.264  10.133  69.951  1.00  0.00    -0.155 C  
HETATM   12  C   UNL     1      -7.934   8.797  70.300  1.00  0.00    -0.106 C  
BRANCH  11  13
HETATM   13  C   UNL     1      -6.196  10.216  68.920  1.00  0.00    -0.043 C  
HETATM   14  O   UNL     1      -5.385   9.320  68.740  1.00  0.00    -0.037 OA 
BRANCH  13  15
HETATM   15  O   UNL     1      -6.300  11.337  68.168  1.00  0.00    -0.052 OA 
HETATM   16  C   UNL     1      -7.335  12.829  66.494  1.00  0.00     0.995 C  
HETATM   17  C   UNL     1      -8.709  11.676  68.291  1.00  0.00    -0.163 C  
HETATM   18  C   UNL     1      -7.499  11.527  67.354  1.00  0.00    -0.127 C  
HETATM   19  C   UNL     1      -7.722  10.385  66.335  1.00  0.00    -0.125 C  
BRANCH  16  20
HETATM   20  N   UNL     1      -7.172  14.135  67.182  1.00  0.00    -0.040 NA 
HETATM   21  C   UNL     1      -7.749  15.219  66.381  1.00  0.00     0.756 C  
BRANCH  20  22
HETATM   22  C   UNL     1      -7.883  14.135  68.480  1.00  0.00    -0.140 C  
BRANCH  22  23
HETATM   23  C   UNL     1      -9.188  13.340  68.535  1.00  0.00    -0.073 C  
HETATM   24  C   UNL     1     -10.507  14.121  68.298  1.00  0.00    -0.249 C  
HETATM   25  C   UNL     1     -11.661  13.201  68.727  1.00  0.00    -0.363 A  
HETATM   26  C   UNL     1     -10.580  14.716  66.889  1.00  0.00    -0.281 A  
HETATM   27  C   UNL     1     -12.549  13.606  69.736  1.00  0.00    -0.055 A  
HETATM   28  C   UNL     1     -11.094  14.029  65.778  1.00  0.00    -0.305 A  
HETATM   29  C   UNL     1     -13.456  12.697  70.292  1.00  0.00     1.671 A  
HETATM   30  C   UNL     1     -11.021  14.572  64.493  1.00  0.00    -0.264 A  
HETATM   31  C   UNL     1     -10.435  15.815  64.287  1.00  0.00     1.205 A  
HETATM   32  C   UNL     1     -13.501  11.379  69.838  1.00  0.00     1.810 A  
HETATM   33  C   UNL     1     -12.663  10.974  68.808  1.00  0.00     1.188 A  
HETATM   34  C   UNL     1      -9.937  16.528  65.372  1.00  0.00     0.001 A  
HETATM   35  C   UNL     1     -10.018  15.986  66.659  1.00  0.00    -0.277 A  
HETATM   36  C   UNL     1     -11.752  11.875  68.259  1.00  0.00    -0.385 A  
ENDBRANCH  22  23
ENDBRANCH  20  22
ENDBRANCH  16  20
ENDBRANCH  13  15
ENDBRANCH  11  13
BRANCH  12  37
HETATM   37  C   UNL     1      -8.230   7.984  69.037  1.00  0.00    -0.128 A  
HETATM   38  O   UNL     1      -5.500   5.221  67.591  1.00  0.00    -0.011 OA 
HETATM   39  C   UNL     1      -7.321   6.998  68.605  1.00  0.00    -0.097 A  
HETATM   40  O   UNL     1      -6.761   4.770  65.853  1.00  0.00    -0.050 OA 
HETATM   41  C   UNL     1      -9.610   7.511  67.092  1.00  0.00    -0.207 A  
HETATM   42  C   UNL     1      -7.534   6.322  67.398  1.00  0.00    -0.085 A  
HETATM   43  N   UNL     1      -6.528   5.366  66.915  1.00  0.00    -0.043 N  
HETATM   44  C   UNL     1      -8.680   6.572  66.640  1.00  0.00    -0.128 A  
HETATM   45  C   UNL     1      -9.384   8.215  68.278  1.00  0.00    -0.137 A  
ENDBRANCH  12  37
ENDBRANCH   3   5
ENDBRANCH   2   3
TORSDOF 8
ENDMDL
MODEL      312
REMARK 921   NORMALIZED FREE ENERGY PREDICTED BY IDOCK:   29.62 KCAL/MOL
REMARK 922        TOTAL FREE ENERGY PREDICTED BY IDOCK:   41.56 KCAL/MOL
REMARK 923 INTER-LIGAND FREE ENERGY PREDICTED BY IDOCK:   23.86 KCAL/MOL
REMARK 924 INTRA-LIGAND FREE ENERGY PREDICTED BY IDOCK:   17.70 KCAL/MOL
REMARK 927      BINDING AFFINITY PREDICTED BY RF-SCORE:    0.00 PKD
ROOT
HETATM    1  C   UNL     1     -12.524   3.778  66.512  1.00  0.00    14.290 C  
HETATM    2  O   UNL     1     -11.099   3.669  66.425  1.00  0.00     2.366 OA 
ENDROOT
BRANCH   2   3
HETATM    3  C   UNL     1     -10.600   4.087  65.230  1.00  0.00     0.007 C  
HETATM    4  O   UNL     1     -10.736   3.480  64.180  1.00  0.00    -0.240 OA 
BRANCH   3   5
HETATM    5  C   UNL     1      -9.875   5.378  65.383  1.00  0.00     0.233 C  
HETATM    6  C   UNL     1      -9.389   6.041  64.304  1.00  0.00     1.206 C  
HETATM    7  N   UNL     1      -8.778   7.270  64.476  1.00  0.00     0.342 NA 
HETATM    8  C   UNL     1      -9.408   5.591  62.862  1.00  0.00     0.616 C  
HETATM    9  C   UNL     1      -8.437   7.827  65.690  1.00  0.00    -0.141 C  
HETATM   10  C   UNL     1      -7.657   9.121  65.607  1.00  0.00    -0.094 C  
HETATM   11  C   UNL     1      -8.813   7.214  66.839  1.00  0.00    -0.132 C  
HETATM   12  C   UNL     1      -9.677   5.945  66.806  1.00  0.00    -0.177 C  
BRANCH  11  13
HETATM   13  C   UNL     1      -8.305   7.770  68.120  1.00  0.00    -0.124 C  
HETATM   14  O   UNL     1      -7.562   7.143  68.860  1.00  0.00    -0.096 OA 
BRANCH  13  15
HETATM   15  O   UNL     1      -8.687   9.056  68.305  1.00  0.00    -0.129 OA 
HETATM   16  C   UNL     1      -8.877  11.447  67.717  1.00  0.00    -0.143 C  
HETATM   17  C   UNL     1      -9.325   9.612  66.021  1.00  0.00    -0.263 C  
HETATM   18  C   UNL     1      -8.461  10.015  67.227  1.00  0.00    -0.122 C  
HETATM   19  C   UNL     1      -6.971  10.134  66.829  1.00  0.00    -0.091 C  
BRANCH  16  20
HETATM   20  N   UNL     1     -10.287  11.695  68.112  1.00  0.00    -0.187 NA 
HETATM   21  C   UNL     1     -10.379  12.009  69.541  1.00  0.00     0.524 C  
BRANCH  20  22
HETATM   22  C   UNL     1     -10.839  12.856  67.381  1.00  0.00    -0.251 C  
BRANCH  22  23
HETATM   23  C   UNL     1     -10.257  14.223  67.745  1.00  0.00    -0.235 C  
HETATM   24  C   UNL     1      -9.296  14.882  66.722  1.00  0.00    -0.270 C  
HETATM   25  C   UNL     1      -8.601  16.050  67.441  1.00  0.00    -0.194 A  
HETATM   26  C   UNL     1      -9.994  15.199  65.396  1.00  0.00    -0.365 A  
HETATM   27  C   UNL     1      -7.203  16.078  67.553  1.00  0.00    -0.196 A  
HETATM   28  C   UNL     1     -10.671  16.401  65.139  1.00  0.00    -0.309 A  
HETATM   29  C   UNL     1      -6.575  17.004  68.393  1.00  0.00    -0.157 A  
HETATM   30  C   UNL     1     -11.396  16.586  63.959  1.00  0.00     0.750 A  
HETATM   31  C   UNL     1     -11.460  15.576  63.007  1.00  0.00     4.016 A  
HETATM   32  C   UNL     1      -7.332  17.925  69.117  1.00  0.00    -0.117 A  
HETATM   33  C   UNL     1      -8.714  17.942  68.982  1.00  0.00    -0.007 A  
HETATM   34  C   UNL     1     -10.780  14.383  63.225  1.00  0.00     3.842 A  
HETATM   35  C   UNL     1     -10.048  14.202  64.404  1.00  0.00     0.482 A  
HETATM   36  C   UNL     1      -9.341  17.014  68.152  1.00  0.00    -0.254 A  
ENDBRANCH  22  23
ENDBRANCH  20  22
ENDBRANCH  16  20
ENDBRANCH  13  15
ENDBRANCH  11  13
BRANCH  12  37
HETATM   37  C   UNL     1      -9.132   4.885  67.768  1.00  0.00    -0.128 A  
HETATM   38  O   UNL     1      -5.134   3.795  67.695  1.00  0.00    -0.007 OA 
HETATM   39  C   UNL     1      -7.756   4.584  67.776  1.00  0.00    -0.081 A  
HETATM   40  O   UNL     1      -5.441   2.274  69.245  1.00  0.00    -0.012 OA 
HETATM   41  C   UNL     1      -9.479   3.174  69.459  1.00  0.00    -0.190 A  
HETATM   42  C   UNL     1      -7.265   3.547  68.579  1.00  0.00    -0.050 A  
HETATM   43  N   UNL     1      -5.844   3.182  68.503  1.00  0.00    -0.023 N  
HETATM   44  C   UNL     1      -8.124   2.842  69.426  1.00  0.00    -0.063 A  
HETATM   45  C   UNL     1      -9.981   4.184  68.633  1.00  0.00     0.033 A  
ENDBRANCH  12  37
ENDBRANCH   3   5
ENDBRANCH   2   3
TORSDOF 8
ENDMDL
MODEL      313
REMARK 921   NORMALIZED FREE ENERGY PREDICTED BY IDOCK:   30.57 KCAL/MOL
REMARK 922        TOTAL FREE ENERGY PREDICTED BY IDOCK:   42.96 KCAL/MOL
REMARK 923 INTER-LIGAND FREE ENERGY PREDICTED BY IDOCK:   28.78 KCAL/MOL
REMARK 924 INTRA-LIGAND FREE ENERGY PREDICTED BY IDOCK:   14.18 KCAL/MOL
REMARK 927      BINDING AFFINITY PREDICTED BY RF-SCORE:    0.00 PKD
ROOT
HETATM    1  C   UNL     1     -12.974  10.030  71.066  1.00  0.00    -0.360 C  
HETATM    2  O   UNL     1     -12.251  10.760  70.069  1.00  0.00    -0.312 OA 
ENDROOT
BRANCH   2   3
HETATM    3  C   UNL     1     -12.221  10.135  68.861  1.00  0.00     0.834 C  
HETATM    4  O   UNL     1     -12.785  10.548  67.860  1.00  0.00     2.116 OA 
BRANCH   3   5
HETATM    5  C   UNL     1     -11.409   8.889  68.931  1.00  0.00     0.463 C  
HETATM    6  C   UNL     1     -11.887   7.774  69.535  1.00  0.00     0.899 C  
HETATM    7  N   UNL     1     -11.132   6.614  69.524  1.00  0.00    -0.311 NA 
HETATM    8  C   UNL     1     -13.194   7.616  70.277  1.00  0.00     1.291 C  
HETATM    9  C   UNL     1      -9.822   6.520  69.105  1.00  0.00    -0.144 C  
HETATM   10  C   UNL     1      -9.176   5.168  69.315  1.00  0.00    -0.151 C  
HETATM   11  C   UNL     1      -9.218   7.596  68.545  1.00  0.00    -0.143 C  
HETATM   12  C   UNL     1      -9.997   8.897  68.303  1.00  0.00    -0.201 C  
BRANCH  11  13
HETATM   13  C   UNL     1      -7.768   7.497  68.239  1.00  0.00    -0.120 C  
HETATM   14  O   UNL     1      -6.931   7.247  69.093  1.00  0.00    -0.069 OA 
BRANCH  13  15
HETATM   15  O   UNL     1      -7.517   7.621  66.914  1.00  0.00    -0.090 OA 
HETATM   16  C   UNL     1      -7.959   8.388  64.609  1.00  0.00    -0.147 C  
HETATM   17  C   UNL     1      -8.177   9.945  66.602  1.00  0.00    -0.121 C  
HETATM   18  C   UNL     1      -8.372   8.499  66.118  1.00  0.00    -0.119 C  
HETATM   19  C   UNL     1      -9.863   8.092  66.167  1.00  0.00    -0.057 C  
BRANCH  16  20
HETATM   20  N   UNL     1      -6.585   8.783  64.204  1.00  0.00    -0.075 NA 
HETATM   21  C   UNL     1      -6.305   8.354  62.830  1.00  0.00    -0.087 C  
BRANCH  20  22
HETATM   22  C   UNL     1      -6.433  10.254  64.234  1.00  0.00    -0.083 C  
BRANCH  22  23
HETATM   23  C   UNL     1      -7.695  11.070  63.947  1.00  0.00     0.612 C  
HETATM   24  C   UNL     1      -8.357  11.799  65.145  1.00  0.00     0.926 C  
HETATM   25  C   UNL     1      -9.751  12.255  64.682  1.00  0.00    -0.022 A  
HETATM   26  C   UNL     1      -7.441  12.869  65.746  1.00  0.00     3.588 A  
HETATM   27  C   UNL     1     -10.898  11.813  65.358  1.00  0.00    -0.347 A  
HETATM   28  C   UNL     1      -7.396  14.198  65.300  1.00  0.00     9.910 A  
HETATM   29  C   UNL     1     -12.170  12.030  64.818  1.00  0.00    -0.236 A  
HETATM   30  C   UNL     1      -6.453  15.100  65.801  1.00  0.00     7.030 A  
HETATM   31  C   UNL     1      -5.535  14.694  66.761  1.00  0.00     2.087 A  
HETATM   32  C   UNL     1     -12.316  12.706  63.607  1.00  0.00    -0.584 A  
HETATM   33  C   UNL     1     -11.194  13.191  62.948  1.00  0.00     1.402 A  
HETATM   34  C   UNL     1      -5.571  13.389  67.239  1.00  0.00     0.317 A  
HETATM   35  C   UNL     1      -6.521  12.490  66.742  1.00  0.00     0.502 A  
HETATM   36  C   UNL     1      -9.926  12.968  63.480  1.00  0.00     1.049 A  
ENDBRANCH  22  23
ENDBRANCH  20  22
ENDBRANCH  16  20
ENDBRANCH  13  15
ENDBRANCH  11  13
BRANCH  12  37
HETATM   37  C   UNL     1      -9.185  10.115  68.752  1.00  0.00    -0.164 A  
HETATM   38  O   UNL     1     -10.435  13.962  67.847  1.00  0.00    -0.236 OA 
HETATM   39  C   UNL     1      -9.667  11.415  68.498  1.00  0.00    -0.199 A  
HETATM   40  O   UNL     1      -8.650  14.842  68.770  1.00  0.00    -0.163 OA 
HETATM   41  C   UNL     1      -7.189  11.089  69.742  1.00  0.00    -0.008 A  
HETATM   42  C   UNL     1      -8.884  12.532  68.814  1.00  0.00     0.168 A  
HETATM   43  N   UNL     1      -9.359  13.875  68.454  1.00  0.00    -0.208 N  
HETATM   44  C   UNL     1      -7.646  12.373  69.440  1.00  0.00     0.489 A  
HETATM   45  C   UNL     1      -7.950   9.968  69.396  1.00  0.00    -0.145 A  
ENDBRANCH  12  37
ENDBRANCH   3   5
ENDBRANCH   2   3
TORSDOF 8
ENDMDL
MODEL      314
REMARK 921   NORMALIZED FREE ENERGY PREDICTED BY IDOCK:   31.26 KCAL/MOL
REMARK 922        TOTAL FREE ENERGY PREDICTED BY IDOCK:   43.97 KCAL/MOL
REMARK 923 INTER-LIGAND FREE ENERGY PREDICTED BY IDOCK:   17.63 KCAL/MOL
REMARK 924 INTRA-LIGAND FREE ENERGY PREDICTED BY IDOCK:   26.35 KCAL/MOL
REMARK 927      BINDING AFFINITY PREDICTED BY RF-SCORE:    0.00 PKD
ROOT
HETATM    1  C   UNL     1      -6.696  17.991  64.160  1.00  0.00     4.221 C  
HETATM    2  O   UNL     1      -7.210  16.981  65.036  1.00  0.00     1.737 OA 
ENDROOT
BRANCH   2   3
HETATM    3  C   UNL     1      -6.769  17.106  66.317  1.00  0.00    -0.178 C  
HETATM    4  O   UNL     1      -5.614  17.360  66.623  1.00  0.00    -0.158 OA 
BRANCH   3   5
HETATM    5  C   UNL     1      -7.881  16.894  67.283  1.00  0.00    -0.204 C  
HETATM    6  C   UNL     1      -7.929  17.572  68.456  1.00  0.00    -0.271 C  
HETATM    7  N   UNL     1      -9.011  17.399  69.301  1.00  0.00     0.082 NA 
HETATM    8  C   UNL     1      -6.900  18.529  69.009  1.00  0.00    -0.292 C  
HETATM    9  C   UNL     1      -9.992  16.441  69.153  1.00  0.00    -0.273 C  
HETATM   10  C   UNL     1     -10.997  16.371  70.283  1.00  0.00    -0.262 C  
HETATM   11  C   UNL     1     -10.004  15.658  68.048  1.00  0.00    -0.222 C  
HETATM   12  C   UNL     1      -8.982  15.872  66.921  1.00  0.00    -0.257 C  
BRANCH  11  13
HETATM   13  C   UNL     1     -10.989  14.546  67.995  1.00  0.00    -0.260 C  
HETATM   14  O   UNL     1     -12.174  14.730  67.762  1.00  0.00    -0.219 OA 
BRANCH  13  15
HETATM   15  O   UNL     1     -10.401  13.336  68.140  1.00  0.00    -0.231 OA 
HETATM   16  C   UNL     1     -10.325  10.928  68.681  1.00  0.00    -0.191 C  
HETATM   17  C   UNL     1     -12.178  11.923  67.258  1.00  0.00     0.500 C  
HETATM   18  C   UNL     1     -11.241  12.181  68.449  1.00  0.00    -0.265 C  
HETATM   19  C   UNL     1     -12.042  12.353  69.761  1.00  0.00    -0.292 C  
BRANCH  16  20
HETATM   20  N   UNL     1      -9.466  10.444  67.569  1.00  0.00    -0.148 NA 
HETATM   21  C   UNL     1     -10.284   9.967  66.450  1.00  0.00    -0.221 C  
BRANCH  20  22
HETATM   22  C   UNL     1      -8.620  11.538  67.047  1.00  0.00    -0.161 C  
BRANCH  22  23
HETATM   23  C   UNL     1      -7.723  12.244  68.066  1.00  0.00    -0.132 C  
HETATM   24  C   UNL     1      -8.120  12.130  69.561  1.00  0.00     1.043 C  
HETATM   25  C   UNL     1      -7.288  13.170  70.330  1.00  0.00     2.196 A  
HETATM   26  C   UNL     1      -8.064  10.685  70.064  1.00  0.00     0.443 A  
HETATM   27  C   UNL     1      -7.926  14.176  71.072  1.00  0.00     3.755 A  
HETATM   28  C   UNL     1      -6.910  10.089  70.596  1.00  0.00    -0.056 A  
HETATM   29  C   UNL     1      -7.196  15.253  71.585  1.00  0.00     2.878 A  
HETATM   30  C   UNL     1      -6.882   8.731  70.924  1.00  0.00    -0.068 A  
HETATM   31  C   UNL     1      -8.005   7.937  70.730  1.00  0.00    -0.100 A  
HETATM   32  C   UNL     1      -5.819  15.333  71.380  1.00  0.00     0.361 A  
HETATM   33  C   UNL     1      -5.164  14.322  70.689  1.00  0.00    -0.116 A  
HETATM   34  C   UNL     1      -9.170   8.506  70.226  1.00  0.00    -0.164 A  
HETATM   35  C   UNL     1      -9.199   9.868  69.906  1.00  0.00    -0.245 A  
HETATM   36  C   UNL     1      -5.891  13.252  70.170  1.00  0.00    -0.147 A  
ENDBRANCH  22  23
ENDBRANCH  20  22
ENDBRANCH  16  20
ENDBRANCH  13  15
ENDBRANCH  11  13
BRANCH  12  37
HETATM   37  C   UNL     1      -8.388  14.539  66.458  1.00  0.00     0.253 A  
HETATM   38  O   UNL     1     -10.439  12.097  63.811  1.00  0.00    -0.361 OA 
HETATM   39  C   UNL     1      -9.068  13.760  65.502  1.00  0.00     0.797 A  
HETATM   40  O   UNL     1      -8.886  10.551  63.914  1.00  0.00    -0.181 OA 
HETATM   41  C   UNL     1      -6.685  12.810  66.600  1.00  0.00     1.059 A  
HETATM   42  C   UNL     1      -8.584  12.495  65.148  1.00  0.00     1.724 A  
HETATM   43  N   UNL     1      -9.357  11.656  64.221  1.00  0.00    -0.016 N  
HETATM   44  C   UNL     1      -7.389  12.018  65.692  1.00  0.00     1.800 A  
HETATM   45  C   UNL     1      -7.182  14.058  66.984  1.00  0.00     0.470 A  
ENDBRANCH  12  37
ENDBRANCH   3   5
ENDBRANCH   2   3
TORSDOF 8
ENDMDL
MODEL      315
REMARK 921   NORMALIZED FREE ENERGY PREDICTED BY IDOCK:   33.76 KCAL/MOL
REMARK 922        TOTAL FREE ENERGY PREDICTED BY IDOCK:   47.64 KCAL/MOL
REMARK 923 INTER-LIGAND FREE ENERGY PREDICTED BY IDOCK:    9.60 KCAL/MOL
REMARK 924 INTRA-LIGAND FREE ENERGY PREDICTED BY IDOCK:   38.04 KCAL/MOL
REMARK 927      BINDING AFFINITY PREDICTED BY RF-SCORE:    0.00 PKD
ROOT
HETATM    1  C   UNL     1     -10.821  16.909  66.684  1.00  0.00     0.023 C  
HETATM    2  O   UNL     1     -10.279  18.219  66.884  1.00  0.00    -0.338 OA 
ENDROOT
BRANCH   2   3
HETATM    3  C   UNL     1     -10.618  18.764  68.083  1.00  0.00    -0.233 C  
HETATM    4  O   UNL     1     -10.784  19.959  68.272  1.00  0.00    -0.284 OA 
BRANCH   3   5
HETATM    5  C   UNL     1     -10.761  17.708  69.122  1.00  0.00     0.149 C  
HETATM    6  C   UNL     1     -10.735  18.016  70.443  1.00  0.00     1.822 C  
HETATM    7  N   UNL     1     -10.936  17.019  71.381  1.00  0.00     0.853 NA 
HETATM    8  C   UNL     1     -10.486  19.369  71.068  1.00  0.00     2.377 C  
HETATM    9  C   UNL     1     -10.982  15.668  71.110  1.00  0.00    -0.190 C  
HETATM   10  C   UNL     1     -11.081  14.772  72.325  1.00  0.00     0.684 C  
HETATM   11  C   UNL     1     -10.946  15.240  69.824  1.00  0.00    -0.295 C  
HETATM   12  C   UNL     1     -10.930  16.243  68.662  1.00  0.00    -0.340 C  
BRANCH  11  13
HETATM   13  C   UNL     1     -10.854  13.776  69.583  1.00  0.00     0.127 C  
HETATM   14  O   UNL     1     -11.700  12.990  69.980  1.00  0.00    -0.289 OA 
BRANCH  13  15
HETATM   15  O   UNL     1      -9.791  13.454  68.808  1.00  0.00    -0.152 OA 
HETATM   16  C   UNL     1      -7.406  13.424  68.169  1.00  0.00    -0.117 C  
HETATM   17  C   UNL     1      -8.160  12.973  70.551  1.00  0.00     4.980 C  
HETATM   18  C   UNL     1      -8.451  13.790  69.281  1.00  0.00     0.549 C  
HETATM   19  C   UNL     1      -8.265  15.304  69.538  1.00  0.00    -0.188 C  
BRANCH  16  20
HETATM   20  N   UNL     1      -7.276  12.009  67.736  1.00  0.00    -0.099 NA 
HETATM   21  C   UNL     1      -8.361  11.645  66.819  1.00  0.00    -0.171 C  
BRANCH  20  22
HETATM   22  C   UNL     1      -6.007  11.800  67.004  1.00  0.00    -0.153 C  
BRANCH  22  23
HETATM   23  C   UNL     1      -6.074  10.877  65.786  1.00  0.00    -0.073 C  
HETATM   24  C   UNL     1      -7.145   9.756  65.802  1.00  0.00    -0.104 C  
HETATM   25  C   UNL     1      -6.799   8.784  64.662  1.00  0.00    -0.073 A  
HETATM   26  C   UNL     1      -8.569  10.319  65.827  1.00  0.00    -0.163 A  
HETATM   27  C   UNL     1      -6.545   7.432  64.939  1.00  0.00    -0.043 A  
HETATM   28  C   UNL     1      -9.301  10.641  64.675  1.00  0.00    -0.280 A  
HETATM   29  C   UNL     1      -6.011   6.593  63.956  1.00  0.00    -0.034 A  
HETATM   30  C   UNL     1     -10.547  11.268  64.759  1.00  0.00    -0.376 A  
HETATM   31  C   UNL     1     -11.091  11.585  65.997  1.00  0.00    -0.289 A  
HETATM   32  C   UNL     1      -5.741   7.085  62.679  1.00  0.00    -0.040 A  
HETATM   33  C   UNL     1      -6.031   8.408  62.374  1.00  0.00    -0.084 A  
HETATM   34  C   UNL     1     -10.399  11.258  67.157  1.00  0.00    -0.244 A  
HETATM   35  C   UNL     1      -9.155  10.623  67.070  1.00  0.00    -0.155 A  
HETATM   36  C   UNL     1      -6.554   9.248  63.355  1.00  0.00    -0.091 A  
ENDBRANCH  22  23
ENDBRANCH  20  22
ENDBRANCH  16  20
ENDBRANCH  13  15
ENDBRANCH  11  13
BRANCH  12  37
HETATM   37  C   UNL     1      -9.882  15.854  67.615  1.00  0.00    -0.233 A  
HETATM   38  O   UNL     1      -6.232  17.807  67.424  1.00  0.00    -0.143 OA 
HETATM   39  C   UNL     1      -8.621  16.481  67.616  1.00  0.00    -0.189 A  
HETATM   40  O   UNL     1      -5.617  16.650  65.665  1.00  0.00     0.825 OA 
HETATM   41  C   UNL     1      -9.216  14.598  65.643  1.00  0.00     0.252 A  
HETATM   42  C   UNL     1      -7.695  16.204  66.603  1.00  0.00    -0.230 A  
HETATM   43  N   UNL     1      -6.422  16.937  66.564  1.00  0.00    -0.208 N  
HETATM   44  C   UNL     1      -7.987  15.259  65.616  1.00  0.00     3.125 A  
HETATM   45  C   UNL     1     -10.158  14.896  66.632  1.00  0.00    -0.264 A  
ENDBRANCH  12  37
ENDBRANCH   3   5
ENDBRANCH   2   3
TORSDOF 8
ENDMDL
MODEL      316
REMARK 921   NORMALIZED FREE ENERGY PREDICTED BY IDOCK:   36.07 KCAL/MOL
REMARK 922        TOTAL FREE ENERGY PREDICTED BY IDOCK:   51.02 KCAL/MOL
REMARK 923 INTER-LIGAND FREE ENERGY PREDICTED BY IDOCK:   30.66 KCAL/MOL
REMARK 924 INTRA-LIGAND FREE ENERGY PREDICTED BY IDOCK:   20.37 KCAL/MOL
REMARK 927      BINDING AFFINITY PREDICTED BY RF-SCORE:    0.00 PKD
ROOT
HETATM    1  C   UNL     1     -10.964  14.980  67.887  1.00  0.00    -0.291 C  
HETATM    2  O   UNL     1     -10.669  14.271  69.095  1.00  0.00    -0.247 OA 
ENDROOT
BRANCH   2   3
HETATM    3  C   UNL     1      -9.390  14.449  69.523  1.00  0.00     0.412 C  
HETATM    4  O   UNL     1      -9.072  15.177  70.451  1.00  0.00     0.426 OA 
BRANCH   3   5
HETATM    5  C   UNL     1      -8.443  13.636  68.713  1.00  0.00     0.056 C  
HETATM    6  C   UNL     1      -7.103  13.823  68.804  1.00  0.00    -0.106 C  
HETATM    7  N   UNL     1      -6.249  13.006  68.085  1.00  0.00    -0.089 NA 
HETATM    8  C   UNL     1      -6.372  14.869  69.613  1.00  0.00    -0.142 C  
HETATM    9  C   UNL     1      -6.636  12.108  67.112  1.00  0.00    -0.127 C  
HETATM   10  C   UNL     1      -5.501  11.428  66.379  1.00  0.00    -0.129 C  
HETATM   11  C   UNL     1      -7.954  11.890  66.887  1.00  0.00    -0.132 C  
HETATM   12  C   UNL     1      -9.023  12.575  67.751  1.00  0.00    -0.184 C  
BRANCH  11  13
HETATM   13  C   UNL     1      -8.328  11.025  65.738  1.00  0.00    -0.092 C  
HETATM   14  O   UNL     1      -7.820  11.144  64.634  1.00  0.00     0.379 OA 
BRANCH  13  15
HETATM   15  O   UNL     1      -9.208  10.059  66.092  1.00  0.00    -0.154 OA 
HETATM   16  C   UNL     1     -10.107   8.257  67.521  1.00  0.00    -0.225 C  
HETATM   17  C   UNL     1      -9.281  10.451  68.495  1.00  0.00    -0.145 C  
HETATM   18  C   UNL     1      -9.048   9.408  67.390  1.00  0.00    -0.126 C  
HETATM   19  C   UNL     1      -7.672   8.721  67.554  1.00  0.00    -0.101 C  
BRANCH  16  20
HETATM   20  N   UNL     1     -11.553   8.595  67.479  1.00  0.00     1.622 NA 
HETATM   21  C   UNL     1     -12.372   7.380  67.525  1.00  0.00     5.677 C  
BRANCH  20  22
HETATM   22  C   UNL     1     -11.933   9.414  68.650  1.00  0.00     1.690 C  
BRANCH  22  23
HETATM   23  C   UNL     1     -10.888   9.532  69.761  1.00  0.00    -0.264 C  
HETATM   24  C   UNL     1     -10.431  10.960  70.158  1.00  0.00     0.307 C  
HETATM   25  C   UNL     1      -9.171  10.806  71.027  1.00  0.00     4.175 A  
HETATM   26  C   UNL     1     -11.578  11.791  70.740  1.00  0.00     0.397 A  
HETATM   27  C   UNL     1      -7.965  11.404  70.632  1.00  0.00     3.944 A  
HETATM   28  C   UNL     1     -11.920  11.805  72.100  1.00  0.00     2.387 A  
HETATM   29  C   UNL     1      -6.768  11.087  71.284  1.00  0.00     1.980 A  
HETATM   30  C   UNL     1     -13.054  12.483  72.556  1.00  0.00     0.097 A  
HETATM   31  C   UNL     1     -13.870  13.166  71.664  1.00  0.00     0.059 A  
HETATM   32  C   UNL     1      -6.761  10.185  72.347  1.00  0.00     2.059 A  
HETATM   33  C   UNL     1      -7.953   9.620  72.781  1.00  0.00     2.778 A  
HETATM   34  C   UNL     1     -13.543  13.189  70.313  1.00  0.00     1.656 A  
HETATM   35  C   UNL     1     -12.404  12.515  69.859  1.00  0.00    -0.119 A  
HETATM   36  C   UNL     1      -9.145   9.927  72.128  1.00  0.00     3.769 A  
ENDBRANCH  22  23
ENDBRANCH  20  22
ENDBRANCH  16  20
ENDBRANCH  13  15
ENDBRANCH  11  13
BRANCH  12  37
HETATM   37  C   UNL     1     -10.146  13.151  66.882  1.00  0.00    -0.245 A  
HETATM   38  O   UNL     1      -9.451  16.365  64.359  1.00  0.00     2.270 OA 
HETATM   39  C   UNL     1      -9.869  14.195  65.978  1.00  0.00    -0.329 A  
HETATM   40  O   UNL     1     -11.556  16.437  63.746  1.00  0.00    -1.055 OA 
HETATM   41  C   UNL     1     -12.485  13.254  66.230  1.00  0.00    -0.283 A  
HETATM   42  C   UNL     1     -10.907  14.795  65.254  1.00  0.00    -0.383 A  
HETATM   43  N   UNL     1     -10.616  15.945  64.388  1.00  0.00     0.296 N  
HETATM   44  C   UNL     1     -12.217  14.324  65.374  1.00  0.00    -0.408 A  
HETATM   45  C   UNL     1     -11.459  12.675  66.982  1.00  0.00    -0.406 A  
ENDBRANCH  12  37
ENDBRANCH   3   5
ENDBRANCH   2   3
TORSDOF 8
ENDMDL
MODEL      317
REMARK 921   NORMALIZED FREE ENERGY PREDICTED BY IDOCK:   36.97 KCAL/MOL
REMARK 922        TOTAL FREE ENERGY PREDICTED BY IDOCK:   52.35 KCAL/MOL
REMARK 923 INTER-LIGAND FREE ENERGY PREDICTED BY IDOCK:   38.01 KCAL/MOL
REMARK 924 INTRA-LIGAND FREE ENERGY PREDICTED BY IDOCK:   14.34 KCAL/MOL
REMARK 927      BINDING AFFINITY PREDICTED BY RF-SCORE:    0.00 PKD
ROOT
HETATM    1  C   UNL     1      -5.425  10.364  70.100  1.00  0.00    -0.051 C  
HETATM    2  O   UNL     1      -5.808   9.177  69.398  1.00  0.00    -0.034 OA 
ENDROOT
BRANCH   2   3
HETATM    3  C   UNL     1      -7.055   8.740  69.721  1.00  0.00    -0.054 C  
HETATM    4  O   UNL     1      -7.406   8.445  70.853  1.00  0.00    -0.054 OA 
BRANCH   3   5
HETATM    5  C   UNL     1      -7.923   8.676  68.514  1.00  0.00    -0.116 C  
HETATM    6  C   UNL     1      -7.495   8.081  67.374  1.00  0.00    -0.093 C  
HETATM    7  N   UNL     1      -8.353   7.981  66.292  1.00  0.00    -0.114 NA 
HETATM    8  C   UNL     1      -6.131   7.493  67.097  1.00  0.00    -0.051 C  
HETATM    9  C   UNL     1      -9.577   8.606  66.186  1.00  0.00    -0.235 C  
HETATM   10  C   UNL     1     -10.266   8.446  64.848  1.00  0.00     3.294 C  
HETATM   11  C   UNL     1     -10.076   9.289  67.245  1.00  0.00    -0.291 C  
HETATM   12  C   UNL     1      -9.328   9.315  68.586  1.00  0.00    -0.139 C  
BRANCH  11  13
HETATM   13  C   UNL     1     -11.328  10.064  67.044  1.00  0.00     0.549 C  
HETATM   14  O   UNL     1     -12.190  10.155  67.904  1.00  0.00     0.939 OA 
BRANCH  13  15
HETATM   15  O   UNL     1     -11.340  10.712  65.855  1.00  0.00     0.246 OA 
HETATM   16  C   UNL     1     -12.308  12.140  64.088  1.00  0.00    -0.409 C  
HETATM   17  C   UNL     1     -12.430  12.780  66.542  1.00  0.00     0.243 C  
HETATM   18  C   UNL     1     -12.460  11.602  65.554  1.00  0.00     1.563 C  
HETATM   19  C   UNL     1     -13.827  10.882  65.588  1.00  0.00    13.176 C  
BRANCH  16  20
HETATM   20  N   UNL     1     -11.114  12.953  63.735  1.00  0.00    -0.412 NA 
HETATM   21  C   UNL     1     -11.464  14.373  63.635  1.00  0.00     0.744 C  
BRANCH  20  22
HETATM   22  C   UNL     1     -10.076  12.839  64.782  1.00  0.00    -0.217 C  
BRANCH  22  23
HETATM   23  C   UNL     1      -9.074  11.695  64.619  1.00  0.00     0.227 C  
HETATM   24  C   UNL     1      -7.568  12.064  64.621  1.00  0.00     3.446 C  
HETATM   25  C   UNL     1      -6.799  10.831  64.117  1.00  0.00     0.390 A  
HETATM   26  C   UNL     1      -7.122  12.661  65.959  1.00  0.00     2.615 A  
HETATM   27  C   UNL     1      -5.991  10.921  62.974  1.00  0.00     0.083 A  
HETATM   28  C   UNL     1      -6.667  11.895  67.043  1.00  0.00    -0.119 A  
HETATM   29  C   UNL     1      -5.472   9.767  62.376  1.00  0.00    -0.088 A  
HETATM   30  C   UNL     1      -6.393  12.481  68.281  1.00  0.00    -0.062 A  
HETATM   31  C   UNL     1      -6.564  13.848  68.465  1.00  0.00    -0.098 A  
HETATM   32  C   UNL     1      -5.738   8.512  62.921  1.00  0.00    -0.074 A  
HETATM   33  C   UNL     1      -6.496   8.407  64.079  1.00  0.00    -0.071 A  
HETATM   34  C   UNL     1      -6.992  14.636  67.402  1.00  0.00    -0.123 A  
HETATM   35  C   UNL     1      -7.258  14.047  66.161  1.00  0.00     3.880 A  
HETATM   36  C   UNL     1      -7.021   9.555  64.671  1.00  0.00    -0.102 A  
ENDBRANCH  22  23
ENDBRANCH  20  22
ENDBRANCH  16  20
ENDBRANCH  13  15
ENDBRANCH  11  13
BRANCH  12  37
HETATM   37  C   UNL     1      -9.276  10.735  69.158  1.00  0.00    -0.131 A  
HETATM   38  O   UNL     1     -12.417  12.245  71.401  1.00  0.00    -0.249 OA 
HETATM   39  C   UNL     1     -10.322  11.201  69.979  1.00  0.00     0.568 A  
HETATM   40  O   UNL     1     -11.442  14.200  71.592  1.00  0.00     0.326 OA 
HETATM   41  C   UNL     1      -8.212  12.914  69.339  1.00  0.00     1.014 A  
HETATM   42  C   UNL     1     -10.332  12.529  70.423  1.00  0.00     3.280 A  
HETATM   43  N   UNL     1     -11.478  13.025  71.197  1.00  0.00     1.350 N  
HETATM   44  C   UNL     1      -9.276  13.388  70.108  1.00  0.00     3.453 A  
HETATM   45  C   UNL     1      -8.214  11.599  68.863  1.00  0.00     0.017 A  
ENDBRANCH  12  37
ENDBRANCH   3   5
ENDBRANCH   2   3
TORSDOF 8
ENDMDL
MODEL      318
REMARK 921   NORMALIZED FREE ENERGY PREDICTED BY IDOCK:   37.48 KCAL/MOL
REMARK 922        TOTAL FREE ENERGY PREDICTED BY IDOCK:   53.10 KCAL/MOL
REMARK 923 INTER-LIGAND FREE ENERGY PREDICTED BY IDOCK:   30.22 KCAL/MOL
REMARK 924 INTRA-LIGAND FREE ENERGY PREDICTED BY IDOCK:   22.88 KCAL/MOL
REMARK 927      BINDING AFFINITY PREDICTED BY RF-SCORE:    0.00 PKD
ROOT
HETATM    1  C   UNL     1     -11.004  14.998  67.925  1.00  0.00    -0.291 C  
HETATM    2  O   UNL     1     -10.644  14.156  69.025  1.00  0.00    -0.246 OA 
ENDROOT
BRANCH   2   3
HETATM    3  C   UNL     1      -9.304  13.947  69.126  1.00  0.00     0.323 C  
HETATM    4  O   UNL     1      -8.766  12.861  68.981  1.00  0.00     0.247 OA 
BRANCH   3   5
HETATM    5  C   UNL     1      -8.592  15.217  69.434  1.00  0.00    -0.226 C  
HETATM    6  C   UNL     1      -7.283  15.220  69.785  1.00  0.00    -0.146 C  
HETATM    7  N   UNL     1      -6.636  16.424  70.000  1.00  0.00    -0.010 NA 
HETATM    8  C   UNL     1      -6.386  14.024  70.004  1.00  0.00    -0.118 C  
HETATM    9  C   UNL     1      -7.250  17.657  70.074  1.00  0.00     1.109 C  
HETATM   10  C   UNL     1      -6.340  18.806  70.449  1.00  0.00     0.187 C  
HETATM   11  C   UNL     1      -8.574  17.763  69.807  1.00  0.00     1.343 C  
HETATM   12  C   UNL     1      -9.385  16.541  69.353  1.00  0.00    -0.040 C  
BRANCH  11  13
HETATM   13  C   UNL     1      -9.224  19.080  70.036  1.00  0.00     1.168 C  
HETATM   14  O   UNL     1      -9.051  19.730  71.056  1.00  0.00     1.628 OA 
BRANCH  13  15
HETATM   15  O   UNL     1      -9.933  19.492  68.958  1.00  0.00    -0.442 OA 
HETATM   16  C   UNL     1     -10.262  20.102  66.588  1.00  0.00    -0.427 C  
HETATM   17  C   UNL     1      -8.978  18.021  67.268  1.00  0.00    -0.251 C  
HETATM   18  C   UNL     1      -9.287  19.478  67.648  1.00  0.00    -0.316 C  
HETATM   19  C   UNL     1      -8.011  20.350  67.596  1.00  0.00    -0.288 C  
BRANCH  16  20
HETATM   20  N   UNL     1     -11.572  19.448  66.336  1.00  0.00     0.840 NA 
HETATM   21  C   UNL     1     -12.354  20.212  65.359  1.00  0.00     5.592 C  
BRANCH  20  22
HETATM   22  C   UNL     1     -11.381  18.095  65.771  1.00  0.00     1.275 C  
BRANCH  22  23
HETATM   23  C   UNL     1      -9.936  17.675  65.497  1.00  0.00     0.306 C  
HETATM   24  C   UNL     1      -9.457  16.335  66.113  1.00  0.00    -0.373 C  
HETATM   25  C   UNL     1      -7.925  16.301  65.986  1.00  0.00     0.189 A  
HETATM   26  C   UNL     1     -10.227  15.135  65.555  1.00  0.00    -0.405 A  
HETATM   27  C   UNL     1      -7.124  16.183  67.131  1.00  0.00    -0.253 A  
HETATM   28  C   UNL     1      -9.850  14.435  64.398  1.00  0.00     1.234 A  
HETATM   29  C   UNL     1      -5.740  16.379  67.055  1.00  0.00    -0.068 A  
HETATM   30  C   UNL     1     -10.659  13.428  63.864  1.00  0.00     0.061 A  
HETATM   31  C   UNL     1     -11.861  13.095  64.475  1.00  0.00    -0.427 A  
HETATM   32  C   UNL     1      -5.137  16.676  65.834  1.00  0.00     1.316 A  
HETATM   33  C   UNL     1      -5.908  16.749  64.682  1.00  0.00     5.596 A  
HETATM   34  C   UNL     1     -12.249  13.756  65.635  1.00  0.00    -0.484 A  
HETATM   35  C   UNL     1     -11.434  14.758  66.172  1.00  0.00    -0.311 A  
HETATM   36  C   UNL     1      -7.287  16.564  64.757  1.00  0.00     7.300 A  
ENDBRANCH  22  23
ENDBRANCH  20  22
ENDBRANCH  16  20
ENDBRANCH  13  15
ENDBRANCH  11  13
BRANCH  12  37
HETATM   37  C   UNL     1     -10.715  16.453  70.108  1.00  0.00    -0.209 A  
HETATM   38  O   UNL     1     -10.806  15.640  74.171  1.00  0.00     2.582 OA 
HETATM   39  C   UNL     1     -10.719  16.249  71.502  1.00  0.00     1.013 A  
HETATM   40  O   UNL     1     -12.999  15.625  74.197  1.00  0.00    -0.439 OA 
HETATM   41  C   UNL     1     -13.145  16.400  70.130  1.00  0.00     2.652 A  
HETATM   42  C   UNL     1     -11.927  16.066  72.185  1.00  0.00    -0.538 A  
HETATM   43  N   UNL     1     -11.909  15.759  73.621  1.00  0.00    -0.318 N  
HETATM   44  C   UNL     1     -13.144  16.145  71.502  1.00  0.00     0.397 A  
HETATM   45  C   UNL     1     -11.940  16.547  69.437  1.00  0.00     0.494 A  
ENDBRANCH  12  37
ENDBRANCH   3   5
ENDBRANCH   2   3
TORSDOF 8
ENDMDL
MODEL      319
REMARK 921   NORMALIZED FREE ENERGY PREDICTED BY IDOCK:   37.70 KCAL/MOL
REMARK 922        TOTAL FREE ENERGY PREDICTED BY IDOCK:   53.42 KCAL/MOL
REMARK 923 INTER-LIGAND FREE ENERGY PREDICTED BY IDOCK:   46.52 KCAL/MOL
REMARK 924 INTRA-LIGAND FREE ENERGY PREDICTED BY IDOCK:    6.90 KCAL/MOL
REMARK 927      BINDING AFFINITY PREDICTED BY RF-SCORE:    0.00 PKD
ROOT
HETATM    1  C   UNL     1      -7.109   5.731  65.674  1.00  0.00    -0.069 C  
HETATM    2  O   UNL     1      -8.114   5.253  64.774  1.00  0.00    -0.110 OA 
ENDROOT
BRANCH   2   3
HETATM    3  C   UNL     1      -8.659   6.234  64.006  1.00  0.00     0.323 C  
HETATM    4  O   UNL     1      -9.330   6.030  63.005  1.00  0.00     0.813 OA 
BRANCH   3   5
HETATM    5  C   UNL     1      -8.328   7.578  64.551  1.00  0.00     0.041 C  
HETATM    6  C   UNL     1      -7.133   8.165  64.294  1.00  0.00    -0.078 C  
HETATM    7  N   UNL     1      -6.884   9.443  64.763  1.00  0.00    -0.091 NA 
HETATM    8  C   UNL     1      -5.963   7.578  63.540  1.00  0.00    -0.053 C  
HETATM    9  C   UNL     1      -7.682  10.136  65.648  1.00  0.00    -0.143 C  
HETATM   10  C   UNL     1      -7.125  11.465  66.110  1.00  0.00     0.154 C  
HETATM   11  C   UNL     1      -8.873   9.613  66.029  1.00  0.00    -0.178 C  
HETATM   12  C   UNL     1      -9.379   8.292  65.431  1.00  0.00     0.206 C  
BRANCH  11  13
HETATM   13  C   UNL     1      -9.634  10.322  67.090  1.00  0.00    -0.168 C  
HETATM   14  O   UNL     1      -9.765   9.871  68.218  1.00  0.00    -0.142 OA 
BRANCH  13  15
HETATM   15  O   UNL     1     -10.068  11.537  66.680  1.00  0.00    -0.203 OA 
HETATM   16  C   UNL     1     -11.739  13.320  66.320  1.00  0.00    -0.369 C  
HETATM   17  C   UNL     1     -11.578  12.061  68.519  1.00  0.00    -0.363 C  
HETATM   18  C   UNL     1     -11.439  11.934  66.993  1.00  0.00    -0.316 C  
HETATM   19  C   UNL     1     -12.494  10.961  66.417  1.00  0.00     4.224 C  
BRANCH  16  20
HETATM   20  N   UNL     1     -10.936  14.506  66.717  1.00  0.00    -0.309 NA 
HETATM   21  C   UNL     1     -10.372  14.326  68.058  1.00  0.00    -0.229 C  
BRANCH  20  22
HETATM   22  C   UNL     1      -9.796  14.699  65.794  1.00  0.00    -0.328 C  
BRANCH  22  23
HETATM   23  C   UNL     1      -9.015  16.005  65.949  1.00  0.00    -0.256 C  
HETATM   24  C   UNL     1      -9.351  17.155  64.964  1.00  0.00     2.371 C  
HETATM   25  C   UNL     1      -8.235  18.204  65.097  1.00  0.00     2.298 A  
HETATM   26  C   UNL     1     -10.791  17.649  65.125  1.00  0.00     0.320 A  
HETATM   27  C   UNL     1      -7.463  18.559  63.981  1.00  0.00     6.525 A  
HETATM   28  C   UNL     1     -11.175  18.657  66.022  1.00  0.00     0.684 A  
HETATM   29  C   UNL     1      -6.307  19.333  64.132  1.00  0.00     0.321 A  
HETATM   30  C   UNL     1     -12.521  18.981  66.217  1.00  0.00     6.188 A  
HETATM   31  C   UNL     1     -13.514  18.306  65.517  1.00  0.00    16.451 A  
HETATM   32  C   UNL     1      -5.917  19.778  65.394  1.00  0.00    -0.228 A  
HETATM   33  C   UNL     1      -6.695  19.477  66.504  1.00  0.00    -0.197 A  
HETATM   34  C   UNL     1     -13.162  17.319  64.604  1.00  0.00     9.308 A  
HETATM   35  C   UNL     1     -11.813  17.001  64.405  1.00  0.00     1.781 A  
HETATM   36  C   UNL     1      -7.842  18.698  66.357  1.00  0.00    -0.305 A  
ENDBRANCH  22  23
ENDBRANCH  20  22
ENDBRANCH  16  20
ENDBRANCH  13  15
ENDBRANCH  11  13
BRANCH  12  37
HETATM   37  C   UNL     1      -9.925   7.368  66.524  1.00  0.00    -0.194 A  
HETATM   38  O   UNL     1      -9.809   8.486  70.513  1.00  0.00    -0.174 OA 
HETATM   39  C   UNL     1      -9.943   7.800  67.865  1.00  0.00    -0.212 A  
HETATM   40  O   UNL     1     -10.653   6.566  71.155  1.00  0.00    -0.219 OA 
HETATM   41  C   UNL     1     -10.826   5.227  67.239  1.00  0.00     0.041 A  
HETATM   42  C   UNL     1     -10.345   6.925  68.882  1.00  0.00    -0.189 A  
HETATM   43  N   UNL     1     -10.267   7.359  70.283  1.00  0.00    -0.198 N  
HETATM   44  C   UNL     1     -10.792   5.638  68.572  1.00  0.00    -0.173 A  
HETATM   45  C   UNL     1     -10.391   6.083  66.223  1.00  0.00    -0.037 A  
ENDBRANCH  12  37
ENDBRANCH   3   5
ENDBRANCH   2   3
TORSDOF 8
ENDMDL
MODEL      320
REMARK 921   NORMALIZED FREE ENERGY PREDICTED BY IDOCK:   37.79 KCAL/MOL
REMARK 922        TOTAL FREE ENERGY PREDICTED BY IDOCK:   53.55 KCAL/MOL
REMARK 923 INTER-LIGAND FREE ENERGY PREDICTED BY IDOCK:    6.21 KCAL/MOL
REMARK 924 INTRA-LIGAND FREE ENERGY PREDICTED BY IDOCK:   47.35 KCAL/MOL
REMARK 927      BINDING AFFINITY PREDICTED BY RF-SCORE:    0.00 PKD
ROOT
HETATM    1  C   UNL     1      -9.619   4.076  67.921  1.00  0.00    -0.143 C  
HETATM    2  O   UNL     1      -8.694   3.894  66.844  1.00  0.00    -0.104 OA 
ENDROOT
BRANCH   2   3
HETATM    3  C   UNL     1      -7.479   4.459  67.077  1.00  0.00    -0.081 C  
HETATM    4  O   UNL     1      -6.476   4.227  66.420  1.00  0.00    -0.036 OA 
BRANCH   3   5
HETATM    5  C   UNL     1      -7.544   5.394  68.233  1.00  0.00    -0.081 C  
HETATM    6  C   UNL     1      -7.693   4.933  69.500  1.00  0.00    -0.067 C  
HETATM    7  N   UNL     1      -7.684   5.826  70.557  1.00  0.00    -0.096 NA 
HETATM    8  C   UNL     1      -7.898   3.503  69.942  1.00  0.00    -0.049 C  
HETATM    9  C   UNL     1      -7.721   7.200  70.440  1.00  0.00    -0.095 C  
HETATM   10  C   UNL     1      -7.836   7.952  71.748  1.00  0.00    -0.110 C  
HETATM   11  C   UNL     1      -7.646   7.771  69.214  1.00  0.00    -0.098 C  
HETATM   12  C   UNL     1      -7.446   6.911  67.957  1.00  0.00    -0.099 C  
BRANCH  11  13
HETATM   13  C   UNL     1      -7.833   9.242  69.121  1.00  0.00    -0.086 C  
HETATM   14  O   UNL     1      -8.273   9.908  70.045  1.00  0.00    -0.175 OA 
BRANCH  13  15
HETATM   15  O   UNL     1      -7.375   9.741  67.948  1.00  0.00    -0.084 OA 
HETATM   16  C   UNL     1      -6.136   9.676  65.813  1.00  0.00    -0.062 C  
HETATM   17  C   UNL     1      -7.638   7.766  66.548  1.00  0.00    -0.096 C  
HETATM   18  C   UNL     1      -6.662   8.848  67.038  1.00  0.00    -0.069 C  
HETATM   19  C   UNL     1      -5.404   8.215  67.677  1.00  0.00    -0.034 C  
BRANCH  16  20
HETATM   20  N   UNL     1      -7.114  10.363  64.930  1.00  0.00    -0.091 NA 
HETATM   21  C   UNL     1      -7.261   9.645  63.661  1.00  0.00    -0.113 C  
BRANCH  20  22
HETATM   22  C   UNL     1      -8.451  10.401  65.560  1.00  0.00    -0.167 C  
BRANCH  22  23
HETATM   23  C   UNL     1      -8.941  11.774  66.024  1.00  0.00    -0.108 C  
HETATM   24  C   UNL     1     -10.468  11.951  66.230  1.00  0.00    -0.274 C  
HETATM   25  C   UNL     1     -10.734  13.460  66.362  1.00  0.00    -0.289 A  
HETATM   26  C   UNL     1     -11.009  11.050  67.343  1.00  0.00    -0.349 A  
HETATM   27  C   UNL     1     -11.597  14.106  65.464  1.00  0.00    -0.337 A  
HETATM   28  C   UNL     1     -11.049  11.420  68.696  1.00  0.00    -0.290 A  
HETATM   29  C   UNL     1     -11.671  15.503  65.429  1.00  0.00     0.173 A  
HETATM   30  C   UNL     1     -11.436  10.512  69.685  1.00  0.00    -0.349 A  
HETATM   31  C   UNL     1     -11.794   9.214  69.345  1.00  0.00     0.805 A  
HETATM   32  C   UNL     1     -10.900  16.272  66.300  1.00  0.00    -0.098 A  
HETATM   33  C   UNL     1     -10.076  15.648  67.228  1.00  0.00    -0.255 A  
HETATM   34  C   UNL     1     -11.786   8.826  68.010  1.00  0.00     2.114 A  
HETATM   35  C   UNL     1     -11.406   9.739  67.021  1.00  0.00     0.700 A  
HETATM   36  C   UNL     1      -9.994  14.257  67.258  1.00  0.00    -0.252 A  
ENDBRANCH  22  23
ENDBRANCH  20  22
ENDBRANCH  16  20
ENDBRANCH  13  15
ENDBRANCH  11  13
BRANCH  12  37
HETATM   37  C   UNL     1      -8.397   7.345  66.838  1.00  0.00    -0.122 A  
HETATM   38  O   UNL     1      -8.521   5.301  63.234  1.00  0.00    -0.130 OA 
HETATM   39  C   UNL     1      -8.475   6.592  65.650  1.00  0.00    -0.146 A  
HETATM   40  O   UNL     1      -9.989   6.702  62.402  1.00  0.00     2.345 OA 
HETATM   41  C   UNL     1      -9.997   8.918  65.902  1.00  0.00    -0.099 A  
HETATM   42  C   UNL     1      -9.265   7.037  64.583  1.00  0.00     1.341 A  
HETATM   43  N   UNL     1      -9.261   6.290  63.317  1.00  0.00     1.140 N  
HETATM   44  C   UNL     1     -10.032   8.198  64.707  1.00  0.00     2.908 A  
HETATM   45  C   UNL     1      -9.183   8.498  66.958  1.00  0.00    -0.187 A  
ENDBRANCH  12  37
ENDBRANCH   3   5
ENDBRANCH   2   3
TORSDOF 8
ENDMDL
MODEL      321
REMARK 921   NORMALIZED FREE ENERGY PREDICTED BY IDOCK:   39.15 KCAL/MOL
REMARK 922        TOTAL FREE ENERGY PREDICTED BY IDOCK:   55.55 KCAL/MOL
REMARK 923 INTER-LIGAND FREE ENERGY PREDICTED BY IDOCK:   38.34 KCAL/MOL
REMARK 924 INTRA-LIGAND FREE ENERGY PREDICTED BY IDOCK:   17.21 KCAL/MOL
REMARK 927      BINDING AFFINITY PREDICTED BY RF-SCORE:    0.00 PKD
ROOT
HETATM    1  C   UNL     1      -9.555  17.261  64.558  1.00  0.00     4.789 C  
HETATM    2  O   UNL     1      -9.783  16.027  65.248  1.00  0.00    -0.403 OA 
ENDROOT
BRANCH   2   3
HETATM    3  C   UNL     1      -9.145  15.956  66.447  1.00  0.00    -0.320 C  
HETATM    4  O   UNL     1      -8.303  15.118  66.728  1.00  0.00    -0.231 OA 
BRANCH   3   5
HETATM    5  C   UNL     1      -9.612  17.035  67.359  1.00  0.00    -0.246 C  
HETATM    6  C   UNL     1      -9.754  18.311  66.922  1.00  0.00    -0.315 C  
HETATM    7  N   UNL     1     -10.252  19.275  67.779  1.00  0.00    -0.383 NA 
HETATM    8  C   UNL     1      -9.408  18.860  65.558  1.00  0.00     0.936 C  
HETATM    9  C   UNL     1     -10.457  19.110  69.133  1.00  0.00     0.299 C  
HETATM   10  C   UNL     1     -10.886  20.357  69.875  1.00  0.00     1.232 C  
HETATM   11  C   UNL     1     -10.279  17.889  69.693  1.00  0.00     0.343 C  
HETATM   12  C   UNL     1      -9.924  16.671  68.828  1.00  0.00    -0.265 C  
BRANCH  11  13
HETATM   13  C   UNL     1     -10.371  17.785  71.173  1.00  0.00     3.070 C  
HETATM   14  O   UNL     1      -9.824  18.579  71.923  1.00  0.00     4.820 OA 
BRANCH  13  15
HETATM   15  O   UNL     1     -11.193  16.782  71.563  1.00  0.00     0.022 OA 
HETATM   16  C   UNL     1     -12.781  14.922  71.224  1.00  0.00    -0.340 C  
HETATM   17  C   UNL     1     -10.664  15.143  69.841  1.00  0.00    -0.274 C  
HETATM   18  C   UNL     1     -11.788  15.925  70.540  1.00  0.00    -0.350 C  
HETATM   19  C   UNL     1     -12.638  16.712  69.516  1.00  0.00     2.306 C  
BRANCH  16  20
HETATM   20  N   UNL     1     -12.259  13.956  72.225  1.00  0.00     0.108 NA 
HETATM   21  C   UNL     1     -12.453  14.463  73.587  1.00  0.00     0.124 C  
BRANCH  20  22
HETATM   22  C   UNL     1     -12.984  12.669  72.138  1.00  0.00    -0.228 C  
BRANCH  22  23
HETATM   23  C   UNL     1     -12.131  11.404  72.245  1.00  0.00     2.106 C  
HETATM   24  C   UNL     1     -12.615  10.153  71.468  1.00  0.00    -0.537 C  
HETATM   25  C   UNL     1     -11.805   8.955  71.990  1.00  0.00    -0.438 A  
HETATM   26  C   UNL     1     -12.621  10.381  69.954  1.00  0.00    -0.059 A  
HETATM   27  C   UNL     1     -12.461   7.855  72.564  1.00  0.00    -0.133 A  
HETATM   28  C   UNL     1     -11.514  10.144  69.125  1.00  0.00    -0.155 A  
HETATM   29  C   UNL     1     -11.736   6.870  73.243  1.00  0.00     0.549 A  
HETATM   30  C   UNL     1     -11.536  10.488  67.770  1.00  0.00    -0.143 A  
HETATM   31  C   UNL     1     -12.665  11.074  67.212  1.00  0.00     4.598 A  
HETATM   32  C   UNL     1     -10.348   6.959  73.344  1.00  0.00    -0.337 A  
HETATM   33  C   UNL     1      -9.678   8.016  72.741  1.00  0.00    -0.348 A  
HETATM   34  C   UNL     1     -13.785  11.300  68.004  1.00  0.00    10.063 A  
HETATM   35  C   UNL     1     -13.764  10.947  69.358  1.00  0.00     3.652 A  
HETATM   36  C   UNL     1     -10.399   9.003  72.071  1.00  0.00    -0.287 A  
ENDBRANCH  22  23
ENDBRANCH  20  22
ENDBRANCH  16  20
ENDBRANCH  13  15
ENDBRANCH  11  13
BRANCH  12  37
HETATM   37  C   UNL     1      -8.791  15.858  69.463  1.00  0.00    -0.115 A  
HETATM   38  O   UNL     1      -8.249  11.860  68.516  1.00  0.00    -0.154 OA 
HETATM   39  C   UNL     1      -8.580  14.521  69.071  1.00  0.00    -0.041 A  
HETATM   40  O   UNL     1      -6.592  11.668  69.940  1.00  0.00    -0.121 OA 
HETATM   41  C   UNL     1      -6.979  15.635  71.067  1.00  0.00     1.697 A  
HETATM   42  C   UNL     1      -7.614  13.741  69.717  1.00  0.00     0.715 A  
HETATM   43  N   UNL     1      -7.473  12.322  69.362  1.00  0.00     0.254 N  
HETATM   44  C   UNL     1      -6.808  14.296  70.714  1.00  0.00     0.546 A  
HETATM   45  C   UNL     1      -7.966  16.409  70.451  1.00  0.00     2.332 A  
ENDBRANCH  12  37
ENDBRANCH   3   5
ENDBRANCH   2   3
TORSDOF 8
ENDMDL
MODEL      322
REMARK 921   NORMALIZED FREE ENERGY PREDICTED BY IDOCK:   41.56 KCAL/MOL
REMARK 922        TOTAL FREE ENERGY PREDICTED BY IDOCK:   59.08 KCAL/MOL
REMARK 923 INTER-LIGAND FREE ENERGY PREDICTED BY IDOCK:   42.29 KCAL/MOL
REMARK 924 INTRA-LIGAND FREE ENERGY PREDICTED BY IDOCK:   16.80 KCAL/MOL
REMARK 927      BINDING AFFINITY PREDICTED BY RF-SCORE:    0.00 PKD
ROOT
HETATM    1  C   UNL     1     -10.869  16.287  72.414  1.00  0.00     1.870 C  
HETATM    2  O   UNL     1     -11.606  15.166  71.912  1.00  0.00    -0.392 OA 
ENDROOT
BRANCH   2   3
HETATM    3  C   UNL     1     -10.866  14.028  71.836  1.00  0.00     3.499 C  
HETATM    4  O   UNL     1     -10.398  13.448  72.804  1.00  0.00     8.494 OA 
BRANCH   3   5
HETATM    5  C   UNL     1     -10.712  13.590  70.422  1.00  0.00     1.494 C  
HETATM    6  C   UNL     1     -11.680  12.870  69.802  1.00  0.00    -0.281 C  
HETATM    7  N   UNL     1     -11.533  12.536  68.467  1.00  0.00    -0.280 NA 
HETATM    8  C   UNL     1     -12.960  12.338  70.402  1.00  0.00     0.348 C  
HETATM    9  C   UNL     1     -10.384  12.708  67.725  1.00  0.00    -0.220 C  
HETATM   10  C   UNL     1     -10.434  12.141  66.323  1.00  0.00    -0.270 C  
HETATM   11  C   UNL     1      -9.325  13.356  68.268  1.00  0.00    -0.205 C  
HETATM   12  C   UNL     1      -9.414  13.966  69.675  1.00  0.00     1.032 C  
BRANCH  11  13
HETATM   13  C   UNL     1      -8.060  13.395  67.488  1.00  0.00    -0.181 C  
HETATM   14  O   UNL     1      -7.406  14.417  67.348  1.00  0.00    -0.184 OA 
BRANCH  13  15
HETATM   15  O   UNL     1      -7.695  12.168  67.049  1.00  0.00    -0.160 OA 
HETATM   16  C   UNL     1      -6.134  10.481  66.145  1.00  0.00    -0.110 C  
HETATM   17  C   UNL     1      -5.471  12.040  68.036  1.00  0.00    -0.052 C  
HETATM   18  C   UNL     1      -6.288  11.925  66.738  1.00  0.00    -0.038 C  
HETATM   19  C   UNL     1      -5.739  12.877  65.650  1.00  0.00     5.823 C  
BRANCH  16  20
HETATM   20  N   UNL     1      -6.511   9.311  66.981  1.00  0.00    -0.066 NA 
HETATM   21  C   UNL     1      -7.899   9.426  67.439  1.00  0.00    -0.102 C  
BRANCH  20  22
HETATM   22  C   UNL     1      -6.417   8.058  66.201  1.00  0.00    -0.046 C  
BRANCH  22  23
HETATM   23  C   UNL     1      -7.573   7.070  66.369  1.00  0.00    -0.088 C  
HETATM   24  C   UNL     1      -7.931   6.636  67.814  1.00  0.00    -0.112 C  
HETATM   25  C   UNL     1      -8.867   5.421  67.703  1.00  0.00    -0.105 A  
HETATM   26  C   UNL     1      -8.419   7.812  68.665  1.00  0.00    -0.129 A  
HETATM   27  C   UNL     1      -8.507   4.198  68.288  1.00  0.00    -0.104 A  
HETATM   28  C   UNL     1      -9.759   8.221  68.736  1.00  0.00    -0.160 A  
HETATM   29  C   UNL     1      -9.230   3.034  68.005  1.00  0.00    -0.248 A  
HETATM   30  C   UNL     1     -10.129   9.377  69.428  1.00  0.00    -0.204 A  
HETATM   31  C   UNL     1      -9.169  10.150  70.069  1.00  0.00    -0.042 A  
HETATM   32  C   UNL     1     -10.330   3.078  67.148  1.00  0.00     2.073 A  
HETATM   33  C   UNL     1     -10.728   4.289  66.598  1.00  0.00     0.844 A  
HETATM   34  C   UNL     1      -7.836   9.756  70.036  1.00  0.00    -0.188 A  
HETATM   35  C   UNL     1      -7.469   8.594  69.348  1.00  0.00    -0.080 A  
HETATM   36  C   UNL     1     -10.004   5.448  66.872  1.00  0.00    -0.209 A  
ENDBRANCH  22  23
ENDBRANCH  20  22
ENDBRANCH  16  20
ENDBRANCH  13  15
ENDBRANCH  11  13
BRANCH  12  37
HETATM   37  C   UNL     1      -8.168  13.630  70.499  1.00  0.00     3.835 A  
HETATM   38  O   UNL     1      -7.403   9.742  71.716  1.00  0.00     0.151 OA 
HETATM   39  C   UNL     1      -7.889  12.291  70.838  1.00  0.00     6.704 A  
HETATM   40  O   UNL     1      -5.611  10.359  72.821  1.00  0.00    -0.200 OA 
HETATM   41  C   UNL     1      -6.203  14.318  71.754  1.00  0.00     0.397 A  
HETATM   42  C   UNL     1      -6.809  11.985  71.675  1.00  0.00     5.161 A  
HETATM   43  N   UNL     1      -6.590  10.595  72.097  1.00  0.00     2.304 N  
HETATM   44  C   UNL     1      -5.961  12.997  72.132  1.00  0.00     1.361 A  
HETATM   45  C   UNL     1      -7.301  14.634  70.948  1.00  0.00     1.355 A  
ENDBRANCH  12  37
ENDBRANCH   3   5
ENDBRANCH   2   3
TORSDOF 8
ENDMDL
MODEL      323
REMARK 921   NORMALIZED FREE ENERGY PREDICTED BY IDOCK:   42.42 KCAL/MOL
REMARK 922        TOTAL FREE ENERGY PREDICTED BY IDOCK:   60.35 KCAL/MOL
REMARK 923 INTER-LIGAND FREE ENERGY PREDICTED BY IDOCK:   13.68 KCAL/MOL
REMARK 924 INTRA-LIGAND FREE ENERGY PREDICTED BY IDOCK:   46.67 KCAL/MOL
REMARK 927      BINDING AFFINITY PREDICTED BY RF-SCORE:    0.00 PKD
ROOT
HETATM    1  C   UNL     1      -7.849   9.236  62.396  1.00  0.00    -0.118 C  
HETATM    2  O   UNL     1      -6.761  10.166  62.394  1.00  0.00    -0.113 OA 
ENDROOT
BRANCH   2   3
HETATM    3  C   UNL     1      -6.428  10.607  63.637  1.00  0.00     0.145 C  
HETATM    4  O   UNL     1      -5.597  11.473  63.858  1.00  0.00     0.693 OA 
BRANCH   3   5
HETATM    5  C   UNL     1      -7.215   9.894  64.680  1.00  0.00    -0.137 C  
HETATM    6  C   UNL     1      -8.374   9.261  64.373  1.00  0.00    -0.171 C  
HETATM    7  N   UNL     1      -9.046   8.552  65.353  1.00  0.00    -0.106 NA 
HETATM    8  C   UNL     1      -9.084   9.234  63.039  1.00  0.00     0.015 C  
HETATM    9  C   UNL     1      -8.745   8.573  66.699  1.00  0.00    -0.125 C  
HETATM   10  C   UNL     1      -9.711   7.816  67.584  1.00  0.00    -0.193 C  
HETATM   11  C   UNL     1      -7.643   9.234  67.129  1.00  0.00    -0.091 C  
HETATM   12  C   UNL     1      -6.684   9.898  66.131  1.00  0.00    -0.092 C  
BRANCH  11  13
HETATM   13  C   UNL     1      -7.434   9.351  68.596  1.00  0.00    -0.079 C  
HETATM   14  O   UNL     1      -6.731   8.574  69.224  1.00  0.00    -0.048 OA 
BRANCH  13  15
HETATM   15  O   UNL     1      -8.029  10.453  69.109  1.00  0.00    -0.118 OA 
HETATM   16  C   UNL     1      -8.185  12.459  70.542  1.00  0.00     5.717 C  
HETATM   17  C   UNL     1      -6.107  11.949  69.175  1.00  0.00    -0.078 C  
HETATM   18  C   UNL     1      -7.253  11.324  69.989  1.00  0.00     0.462 C  
HETATM   19  C   UNL     1      -6.712  10.591  71.238  1.00  0.00     1.084 C  
BRANCH  16  20
HETATM   20  N   UNL     1      -8.817  13.406  69.587  1.00  0.00     1.441 NA 
HETATM   21  C   UNL     1     -10.204  13.017  69.312  1.00  0.00     0.408 C  
BRANCH  20  22
HETATM   22  C   UNL     1      -8.859  14.771  70.154  1.00  0.00     0.881 C  
BRANCH  22  23
HETATM   23  C   UNL     1      -9.021  15.915  69.151  1.00  0.00    -0.256 C  
HETATM   24  C   UNL     1      -8.866  15.568  67.648  1.00  0.00    -0.185 C  
HETATM   25  C   UNL     1      -8.739  16.899  66.888  1.00  0.00    -0.248 A  
HETATM   26  C   UNL     1      -9.945  14.594  67.166  1.00  0.00    -0.240 A  
HETATM   27  C   UNL     1      -7.599  17.164  66.115  1.00  0.00    -0.304 A  
HETATM   28  C   UNL     1     -11.196  14.996  66.675  1.00  0.00    -0.311 A  
HETATM   29  C   UNL     1      -7.365  18.447  65.607  1.00  0.00    -0.082 A  
HETATM   30  C   UNL     1     -12.189  14.061  66.367  1.00  0.00    -0.492 A  
HETATM   31  C   UNL     1     -11.953  12.703  66.540  1.00  0.00    -0.401 A  
HETATM   32  C   UNL     1      -8.274  19.476  65.850  1.00  0.00    -0.174 A  
HETATM   33  C   UNL     1      -9.431  19.220  66.573  1.00  0.00    -0.407 A  
HETATM   34  C   UNL     1     -10.714  12.274  67.004  1.00  0.00    -0.263 A  
HETATM   35  C   UNL     1      -9.719  13.211  67.304  1.00  0.00    -0.230 A  
HETATM   36  C   UNL     1      -9.661  17.945  67.086  1.00  0.00    -0.280 A  
ENDBRANCH  22  23
ENDBRANCH  20  22
ENDBRANCH  16  20
ENDBRANCH  13  15
ENDBRANCH  11  13
BRANCH  12  37
HETATM   37  C   UNL     1      -6.303  11.308  66.590  1.00  0.00    -0.135 A  
HETATM   38  O   UNL     1      -5.398  12.083  70.560  1.00  0.00    -0.112 OA 
HETATM   39  C   UNL     1      -5.928  11.534  67.929  1.00  0.00    -0.045 A  
HETATM   40  O   UNL     1      -5.140  14.225  70.163  1.00  0.00    -0.089 OA 
HETATM   41  C   UNL     1      -6.053  13.687  66.158  1.00  0.00     5.238 A  
HETATM   42  C   UNL     1      -5.676  12.834  68.382  1.00  0.00    -0.062 A  
HETATM   43  N   UNL     1      -5.379  13.063  69.803  1.00  0.00    -0.082 N  
HETATM   44  C   UNL     1      -5.733  13.914  67.498  1.00  0.00     0.106 A  
HETATM   45  C   UNL     1      -6.341  12.395  65.709  1.00  0.00     3.358 A  
ENDBRANCH  12  37
ENDBRANCH   3   5
ENDBRANCH   2   3
TORSDOF 8
ENDMDL
MODEL      324
REMARK 921   NORMALIZED FREE ENERGY PREDICTED BY IDOCK:   49.60 KCAL/MOL
REMARK 922        TOTAL FREE ENERGY PREDICTED BY IDOCK:   70.89 KCAL/MOL
REMARK 923 INTER-LIGAND FREE ENERGY PREDICTED BY IDOCK:   62.55 KCAL/MOL
REMARK 924 INTRA-LIGAND FREE ENERGY PREDICTED BY IDOCK:    8.34 KCAL/MOL
REMARK 927      BINDING AFFINITY PREDICTED BY RF-SCORE:    0.00 PKD
ROOT
HETATM    1  C   UNL     1      -7.783  14.829  66.745  1.00  0.00     0.356 C  
HETATM    2  O   UNL     1      -8.490  13.597  66.563  1.00  0.00     0.057 OA 
ENDROOT
BRANCH   2   3
HETATM    3  C   UNL     1      -7.899  12.542  67.185  1.00  0.00    -0.123 C  
HETATM    4  O   UNL     1      -7.407  12.591  68.301  1.00  0.00    -0.098 OA 
BRANCH   3   5
HETATM    5  C   UNL     1      -7.940  11.329  66.323  1.00  0.00    -0.086 C  
HETATM    6  C   UNL     1      -8.745  11.270  65.233  1.00  0.00     0.050 C  
HETATM    7  N   UNL     1      -8.710  10.153  64.417  1.00  0.00    -0.186 NA 
HETATM    8  C   UNL     1      -9.744  12.304  64.769  1.00  0.00    -0.033 C  
HETATM    9  C   UNL     1      -8.051   8.977  64.706  1.00  0.00    -0.144 C  
HETATM   10  C   UNL     1      -8.274   7.856  63.713  1.00  0.00    -0.011 C  
HETATM   11  C   UNL     1      -7.269   8.899  65.809  1.00  0.00    -0.085 C  
HETATM   12  C   UNL     1      -7.048  10.127  66.704  1.00  0.00    -0.101 C  
BRANCH  11  13
HETATM   13  C   UNL     1      -6.693   7.575  66.160  1.00  0.00    -0.053 C  
HETATM   14  O   UNL     1      -5.617   7.455  66.726  1.00  0.00    -0.022 OA 
BRANCH  13  15
HETATM   15  O   UNL     1      -7.536   6.557  65.862  1.00  0.00    -0.078 OA 
HETATM   16  C   UNL     1      -8.418   4.702  64.492  1.00  0.00    -0.136 C  
HETATM   17  C   UNL     1      -5.934   4.973  64.938  1.00  0.00    -0.021 C  
HETATM   18  C   UNL     1      -7.249   5.729  64.693  1.00  0.00    -0.062 C  
HETATM   19  C   UNL     1      -7.187   6.544  63.380  1.00  0.00    -0.064 C  
BRANCH  16  20
HETATM   20  N   UNL     1      -8.700   3.708  65.560  1.00  0.00    -0.116 NA 
HETATM   21  C   UNL     1      -7.694   2.642  65.555  1.00  0.00    -0.077 C  
BRANCH  20  22
HETATM   22  C   UNL     1      -8.646   4.344  66.894  1.00  0.00    -0.104 C  
BRANCH  22  23
HETATM   23  C   UNL     1      -9.702   3.889  67.903  1.00  0.00    -0.133 C  
HETATM   24  C   UNL     1     -10.222   4.946  68.912  1.00  0.00    -0.137 C  
HETATM   25  C   UNL     1     -10.997   4.186  70.002  1.00  0.00     2.828 A  
HETATM   26  C   UNL     1     -10.952   6.098  68.216  1.00  0.00    -0.397 A  
HETATM   27  C   UNL     1     -10.601   4.280  71.345  1.00  0.00     0.242 A  
HETATM   28  C   UNL     1     -12.323   6.088  67.921  1.00  0.00     5.504 A  
HETATM   29  C   UNL     1     -11.146   3.425  72.309  1.00  0.00     0.688 A  
HETATM   30  C   UNL     1     -12.912   7.112  67.173  1.00  0.00    11.860 A  
HETATM   31  C   UNL     1     -12.144   8.170  66.706  1.00  0.00     6.391 A  
HETATM   32  C   UNL     1     -12.106   2.480  71.950  1.00  0.00     4.285 A  
HETATM   33  C   UNL     1     -12.545   2.405  70.635  1.00  0.00    14.707 A  
HETATM   34  C   UNL     1     -10.786   8.218  67.002  1.00  0.00    -0.061 A  
HETATM   35  C   UNL     1     -10.201   7.196  67.758  1.00  0.00    -0.234 A  
HETATM   36  C   UNL     1     -11.996   3.250  69.671  1.00  0.00    15.027 A  
ENDBRANCH  22  23
ENDBRANCH  20  22
ENDBRANCH  16  20
ENDBRANCH  13  15
ENDBRANCH  11  13
BRANCH  12  37
HETATM   37  C   UNL     1      -7.191   9.762  68.184  1.00  0.00    -0.079 A  
HETATM   38  O   UNL     1     -10.526  10.927  70.353  1.00  0.00     0.276 OA 
HETATM   39  C   UNL     1      -8.366  10.104  68.882  1.00  0.00    -0.130 A  
HETATM   40  O   UNL     1      -9.720  10.065  72.202  1.00  0.00     2.010 OA 
HETATM   41  C   UNL     1      -6.282   8.839  70.241  1.00  0.00    -0.038 A  
HETATM   42  C   UNL     1      -8.465   9.864  70.258  1.00  0.00    -0.034 A  
HETATM   43  N   UNL     1      -9.658  10.315  70.989  1.00  0.00     1.274 N  
HETATM   44  C   UNL     1      -7.426   9.227  70.941  1.00  0.00    -0.123 A  
HETATM   45  C   UNL     1      -6.164   9.108  68.875  1.00  0.00    -0.044 A  
ENDBRANCH  12  37
ENDBRANCH   3   5
ENDBRANCH   2   3
TORSDOF 8
ENDMDL
MODEL      325
REMARK 921   NORMALIZED FREE ENERGY PREDICTED BY IDOCK:   49.69 KCAL/MOL
REMARK 922        TOTAL FREE ENERGY PREDICTED BY IDOCK:   71.02 KCAL/MOL
REMARK 923 INTER-LIGAND FREE ENERGY PREDICTED BY IDOCK:   49.70 KCAL/MOL
REMARK 924 INTRA-LIGAND FREE ENERGY PREDICTED BY IDOCK:   21.32 KCAL/MOL
REMARK 927      BINDING AFFINITY PREDICTED BY RF-SCORE:    0.00 PKD
ROOT
HETATM    1  C   UNL     1     -10.389   3.707  66.008  1.00  0.00     0.651 C  
HETATM    2  O   UNL     1     -11.154   3.560  67.209  1.00  0.00     3.636 OA 
ENDROOT
BRANCH   2   3
HETATM    3  C   UNL     1     -10.747   4.387  68.210  1.00  0.00     1.271 C  
HETATM    4  O   UNL     1     -10.138   4.015  69.201  1.00  0.00     0.022 OA 
BRANCH   3   5
HETATM    5  C   UNL     1     -11.141   5.793  67.928  1.00  0.00     0.048 C  
HETATM    6  C   UNL     1     -12.313   6.299  68.387  1.00  0.00     4.476 C  
HETATM    7  N   UNL     1     -12.617   7.630  68.162  1.00  0.00     5.467 NA 
HETATM    8  C   UNL     1     -13.400   5.566  69.137  1.00  0.00    14.097 C  
HETATM    9  C   UNL     1     -11.913   8.479  67.335  1.00  0.00     4.561 C  
HETATM   10  C   UNL     1     -12.525   9.852  67.154  1.00  0.00     6.900 C  
HETATM   11  C   UNL     1     -10.759   8.057  66.765  1.00  0.00    -0.077 C  
HETATM   12  C   UNL     1     -10.185   6.669  67.087  1.00  0.00    -0.275 C  
BRANCH  11  13
HETATM   13  C   UNL     1     -10.108   8.950  65.772  1.00  0.00     0.269 C  
HETATM   14  O   UNL     1     -10.710   9.425  64.821  1.00  0.00     1.989 OA 
BRANCH  13  15
HETATM   15  O   UNL     1      -8.826   9.233  66.104  1.00  0.00    -0.141 OA 
HETATM   16  C   UNL     1      -6.577  10.191  65.756  1.00  0.00    -0.109 C  
HETATM   17  C   UNL     1      -8.686  11.507  65.241  1.00  0.00     0.226 C  
HETATM   18  C   UNL     1      -8.051  10.107  65.226  1.00  0.00    -0.151 C  
HETATM   19  C   UNL     1      -7.939   9.562  63.782  1.00  0.00    -0.142 C  
BRANCH  16  20
HETATM   20  N   UNL     1      -6.325  10.749  67.109  1.00  0.00    -0.068 NA 
HETATM   21  C   UNL     1      -6.027   9.679  68.065  1.00  0.00    -0.043 C  
BRANCH  20  22
HETATM   22  C   UNL     1      -5.152  11.650  67.094  1.00  0.00    -0.088 C  
BRANCH  22  23
HETATM   23  C   UNL     1      -5.299  12.965  67.862  1.00  0.00    -0.110 C  
HETATM   24  C   UNL     1      -6.670  13.686  67.779  1.00  0.00    -0.177 C  
HETATM   25  C   UNL     1      -6.468  15.106  68.335  1.00  0.00    -0.107 A  
HETATM   26  C   UNL     1      -7.798  12.854  68.394  1.00  0.00    -0.133 A  
HETATM   27  C   UNL     1      -6.741  16.223  67.532  1.00  0.00    -0.189 A  
HETATM   28  C   UNL     1      -8.152  12.900  69.751  1.00  0.00     1.874 A  
HETATM   29  C   UNL     1      -6.350  17.504  67.938  1.00  0.00    -0.170 A  
HETATM   30  C   UNL     1      -9.105  12.027  70.282  1.00  0.00     4.426 A  
HETATM   31  C   UNL     1      -9.729  11.090  69.469  1.00  0.00     0.177 A  
HETATM   32  C   UNL     1      -5.698  17.688  69.157  1.00  0.00    -0.197 A  
HETATM   33  C   UNL     1      -5.462  16.599  69.985  1.00  0.00    -0.201 A  
HETATM   34  C   UNL     1      -9.416  11.036  68.116  1.00  0.00    -0.172 A  
HETATM   35  C   UNL     1      -8.467  11.916  67.585  1.00  0.00    -0.156 A  
HETATM   36  C   UNL     1      -5.843  15.322  69.578  1.00  0.00    -0.108 A  
ENDBRANCH  22  23
ENDBRANCH  20  22
ENDBRANCH  16  20
ENDBRANCH  13  15
ENDBRANCH  11  13
BRANCH  12  37
HETATM   37  C   UNL     1      -9.735   5.952  65.810  1.00  0.00     0.151 A  
HETATM   38  O   UNL     1      -8.667   1.948  65.880  1.00  0.00    -0.108 OA 
HETATM   39  C   UNL     1      -9.448   4.573  65.843  1.00  0.00    -0.171 A  
HETATM   40  O   UNL     1      -8.130   1.975  63.754  1.00  0.00    -0.071 OA 
HETATM   41  C   UNL     1      -9.105   5.991  63.463  1.00  0.00     0.906 A  
HETATM   42  C   UNL     1      -8.940   3.931  64.707  1.00  0.00    -0.131 A  
HETATM   43  N   UNL     1      -8.555   2.515  64.785  1.00  0.00    -0.094 N  
HETATM   44  C   UNL     1      -8.771   4.636  63.513  1.00  0.00    -0.136 A  
HETATM   45  C   UNL     1      -9.579   6.645  64.604  1.00  0.00     2.081 A  
ENDBRANCH  12  37
ENDBRANCH   3   5
ENDBRANCH   2   3
TORSDOF 8
ENDMDL
MODEL      326
REMARK 921   NORMALIZED FREE ENERGY PREDICTED BY IDOCK:   51.76 KCAL/MOL
REMARK 922        TOTAL FREE ENERGY PREDICTED BY IDOCK:   74.05 KCAL/MOL
REMARK 923 INTER-LIGAND FREE ENERGY PREDICTED BY IDOCK:   50.90 KCAL/MOL
REMARK 924 INTRA-LIGAND FREE ENERGY PREDICTED BY IDOCK:   23.16 KCAL/MOL
REMARK 927      BINDING AFFINITY PREDICTED BY RF-SCORE:    0.00 PKD
ROOT
HETATM    1  C   UNL     1     -12.608   4.154  65.578  1.00  0.00     8.447 C  
HETATM    2  O   UNL     1     -11.185   4.022  65.506  1.00  0.00     0.534 OA 
ENDROOT
BRANCH   2   3
HETATM    3  C   UNL     1     -10.643   4.620  64.411  1.00  0.00     0.385 C  
HETATM    4  O   UNL     1     -10.752   4.192  63.272  1.00  0.00    -0.134 OA 
BRANCH   3   5
HETATM    5  C   UNL     1      -9.911   5.858  64.792  1.00  0.00     1.466 C  
HETATM    6  C   UNL     1      -9.277   6.612  63.860  1.00  0.00     1.778 C  
HETATM    7  N   UNL     1      -8.662   7.791  64.239  1.00  0.00     0.328 NA 
HETATM    8  C   UNL     1      -9.127   6.319  62.385  1.00  0.00     0.578 C  
HETATM    9  C   UNL     1      -8.462   8.203  65.540  1.00  0.00    -0.159 C  
HETATM   10  C   UNL     1      -7.646   9.468  65.695  1.00  0.00    -0.101 C  
HETATM   11  C   UNL     1      -8.994   7.487  66.559  1.00  0.00    -0.189 C  
HETATM   12  C   UNL     1      -9.878   6.262  66.282  1.00  0.00    -0.065 C  
BRANCH  11  13
HETATM   13  C   UNL     1      -8.637   7.883  67.946  1.00  0.00    -0.125 C  
HETATM   14  O   UNL     1      -8.235   7.082  68.776  1.00  0.00    -0.119 OA 
BRANCH  13  15
HETATM   15  O   UNL     1      -8.722   9.222  68.132  1.00  0.00    -0.124 OA 
HETATM   16  C   UNL     1      -8.085  11.581  67.779  1.00  0.00    -0.133 C  
HETATM   17  C   UNL     1      -8.357   9.964  65.841  1.00  0.00    -0.126 C  
HETATM   18  C   UNL     1      -7.898  10.098  67.302  1.00  0.00    -0.103 C  
HETATM   19  C   UNL     1      -6.385   9.810  67.440  1.00  0.00    -0.068 C  
BRANCH  16  20
HETATM   20  N   UNL     1      -9.434  12.201  67.704  1.00  0.00    -0.182 NA 
HETATM   21  C   UNL     1     -10.095  12.164  69.012  1.00  0.00     0.116 C  
BRANCH  20  22
HETATM   22  C   UNL     1      -9.335  13.623  67.312  1.00  0.00    -0.233 C  
BRANCH  22  23
HETATM   23  C   UNL     1      -8.854  14.591  68.395  1.00  0.00    -0.180 C  
HETATM   24  C   UNL     1      -7.400  15.119  68.280  1.00  0.00    -0.114 C  
HETATM   25  C   UNL     1      -7.054  15.783  69.623  1.00  0.00    -0.150 A  
HETATM   26  C   UNL     1      -7.189  15.957  67.016  1.00  0.00    -0.232 A  
HETATM   27  C   UNL     1      -5.967  15.319  70.380  1.00  0.00    -0.094 A  
HETATM   28  C   UNL     1      -7.418  17.340  66.949  1.00  0.00    -0.242 A  
HETATM   29  C   UNL     1      -5.779  15.755  71.696  1.00  0.00     0.617 A  
HETATM   30  C   UNL     1      -7.329  18.031  65.738  1.00  0.00    -0.161 A  
HETATM   31  C   UNL     1      -7.007  17.358  64.566  1.00  0.00     5.223 A  
HETATM   32  C   UNL     1      -6.660  16.673  72.267  1.00  0.00     5.247 A  
HETATM   33  C   UNL     1      -7.713  17.179  71.516  1.00  0.00     8.501 A  
HETATM   34  C   UNL     1      -6.752  15.992  64.607  1.00  0.00    11.667 A  
HETATM   35  C   UNL     1      -6.834  15.303  65.822  1.00  0.00     5.891 A  
HETATM   36  C   UNL     1      -7.908  16.738  70.209  1.00  0.00     2.270 A  
ENDBRANCH  22  23
ENDBRANCH  20  22
ENDBRANCH  16  20
ENDBRANCH  13  15
ENDBRANCH  11  13
BRANCH  12  37
HETATM   37  C   UNL     1      -9.485   5.086  67.181  1.00  0.00    -0.146 A  
HETATM   38  O   UNL     1      -5.515   3.982  67.628  1.00  0.00    -0.015 OA 
HETATM   39  C   UNL     1      -8.125   4.775  67.376  1.00  0.00    -0.102 A  
HETATM   40  O   UNL     1      -6.053   2.281  68.905  1.00  0.00    -0.024 OA 
HETATM   41  C   UNL     1     -10.083   3.180  68.565  1.00  0.00     0.819 A  
HETATM   42  C   UNL     1      -7.759   3.642  68.113  1.00  0.00    -0.065 A  
HETATM   43  N   UNL     1      -6.340   3.278  68.226  1.00  0.00    -0.032 N  
HETATM   44  C   UNL     1      -8.736   2.843  68.713  1.00  0.00    -0.131 A  
HETATM   45  C   UNL     1     -10.455   4.289  67.801  1.00  0.00     0.577 A  
ENDBRANCH  12  37
ENDBRANCH   3   5
ENDBRANCH   2   3
TORSDOF 8
ENDMDL
MODEL      327
REMARK 921   NORMALIZED FREE ENERGY PREDICTED BY IDOCK:   52.13 KCAL/MOL
REMARK 922        TOTAL FREE ENERGY PREDICTED BY IDOCK:   74.59 KCAL/MOL
REMARK 923 INTER-LIGAND FREE ENERGY PREDICTED BY IDOCK:   50.24 KCAL/MOL
REMARK 924 INTRA-LIGAND FREE ENERGY PREDICTED BY IDOCK:   24.36 KCAL/MOL
REMARK 927      BINDING AFFINITY PREDICTED BY RF-SCORE:    0.00 PKD
ROOT
HETATM    1  C   UNL     1      -8.152   5.235  65.509  1.00  0.00    -0.119 C  
HETATM    2  O   UNL     1      -9.022   4.197  65.971  1.00  0.00    -0.118 OA 
ENDROOT
BRANCH   2   3
HETATM    3  C   UNL     1      -9.742   4.548  67.070  1.00  0.00    -0.202 C  
HETATM    4  O   UNL     1      -9.721   3.937  68.128  1.00  0.00    -0.146 OA 
BRANCH   3   5
HETATM    5  C   UNL     1     -10.548   5.771  66.807  1.00  0.00    -0.373 C  
HETATM    6  C   UNL     1     -11.631   5.735  65.991  1.00  0.00     1.651 C  
HETATM    7  N   UNL     1     -12.395   6.875  65.821  1.00  0.00     6.790 NA 
HETATM    8  C   UNL     1     -12.136   4.562  65.184  1.00  0.00     3.069 C  
HETATM    9  C   UNL     1     -12.057   8.135  66.266  1.00  0.00     8.271 C  
HETATM   10  C   UNL     1     -12.997   9.241  65.838  1.00  0.00    17.729 C  
HETATM   11  C   UNL     1     -10.954   8.301  67.035  1.00  0.00     0.178 C  
HETATM   12  C   UNL     1     -10.117   7.093  67.480  1.00  0.00    -0.241 C  
BRANCH  11  13
HETATM   13  C   UNL     1     -10.547   9.690  67.374  1.00  0.00    -0.268 C  
HETATM   14  O   UNL     1     -10.857  10.227  68.427  1.00  0.00    -0.215 OA 
BRANCH  13  15
HETATM   15  O   UNL     1      -9.734  10.226  66.434  1.00  0.00    -0.183 OA 
HETATM   16  C   UNL     1      -8.764  10.460  64.175  1.00  0.00    -0.197 C  
HETATM   17  C   UNL     1     -11.266  10.227  64.540  1.00  0.00     2.163 C  
HETATM   18  C   UNL     1      -9.882   9.789  65.048  1.00  0.00    -0.173 C  
HETATM   19  C   UNL     1      -9.682   8.266  64.872  1.00  0.00     1.587 C  
BRANCH  16  20
HETATM   20  N   UNL     1      -8.721  11.942  64.068  1.00  0.00     0.829 NA 
HETATM   21  C   UNL     1      -8.207  12.353  62.759  1.00  0.00     3.726 C  
BRANCH  20  22
HETATM   22  C   UNL     1     -10.078  12.515  64.196  1.00  0.00    -0.284 C  
BRANCH  22  23
HETATM   23  C   UNL     1     -10.673  12.537  65.606  1.00  0.00    -0.297 C  
HETATM   24  C   UNL     1     -10.055  13.534  66.622  1.00  0.00    -0.277 C  
HETATM   25  C   UNL     1     -10.576  13.140  68.014  1.00  0.00    -0.246 A  
HETATM   26  C   UNL     1     -10.252  14.991  66.193  1.00  0.00    -0.311 A  
HETATM   27  C   UNL     1      -9.675  12.796  69.033  1.00  0.00     0.333 A  
HETATM   28  C   UNL     1     -11.379  15.757  66.525  1.00  0.00     0.132 A  
HETATM   29  C   UNL     1     -10.134  12.221  70.223  1.00  0.00     3.198 A  
HETATM   30  C   UNL     1     -11.564  17.039  66.002  1.00  0.00     1.528 A  
HETATM   31  C   UNL     1     -10.625  17.587  65.137  1.00  0.00     0.275 A  
HETATM   32  C   UNL     1     -11.496  12.000  70.420  1.00  0.00     0.189 A  
HETATM   33  C   UNL     1     -12.406  12.378  69.442  1.00  0.00     0.041 A  
HETATM   34  C   UNL     1      -9.487  16.860  64.808  1.00  0.00     3.061 A  
HETATM   35  C   UNL     1      -9.300  15.579  65.339  1.00  0.00     0.124 A  
HETATM   36  C   UNL     1     -11.950  12.942  68.252  1.00  0.00    -0.297 A  
ENDBRANCH  22  23
ENDBRANCH  20  22
ENDBRANCH  16  20
ENDBRANCH  13  15
ENDBRANCH  11  13
BRANCH  12  37
HETATM   37  C   UNL     1      -8.621   7.363  67.292  1.00  0.00    -0.118 A  
HETATM   38  O   UNL     1      -7.274  11.033  65.914  1.00  0.00    -0.082 OA 
HETATM   39  C   UNL     1      -8.182   8.641  66.893  1.00  0.00    -0.105 A  
HETATM   40  O   UNL     1      -5.190  10.351  65.906  1.00  0.00    -0.046 OA 
HETATM   41  C   UNL     1      -6.314   6.596  67.248  1.00  0.00    -0.037 A  
HETATM   42  C   UNL     1      -6.827   8.868  66.622  1.00  0.00    -0.076 A  
HETATM   43  N   UNL     1      -6.400  10.179  66.115  1.00  0.00    -0.080 N  
HETATM   44  C   UNL     1      -5.889   7.849  66.802  1.00  0.00    -0.044 A  
HETATM   45  C   UNL     1      -7.670   6.353  67.486  1.00  0.00    -0.101 A  
ENDBRANCH  12  37
ENDBRANCH   3   5
ENDBRANCH   2   3
TORSDOF 8
ENDMDL
MODEL      328
REMARK 921   NORMALIZED FREE ENERGY PREDICTED BY IDOCK:   52.86 KCAL/MOL
REMARK 922        TOTAL FREE ENERGY PREDICTED BY IDOCK:   75.67 KCAL/MOL
REMARK 923 INTER-LIGAND FREE ENERGY PREDICTED BY IDOCK:   20.25 KCAL/MOL
REMARK 924 INTRA-LIGAND FREE ENERGY PREDICTED BY IDOCK:   55.42 KCAL/MOL
REMARK 927      BINDING AFFINITY PREDICTED BY RF-SCORE:    0.00 PKD
ROOT
HETATM    1  C   UNL     1      -7.853   9.238  62.397  1.00  0.00    -0.118 C  
HETATM    2  O   UNL     1      -6.810  10.219  62.379  1.00  0.00    -0.122 OA 
ENDROOT
BRANCH   2   3
HETATM    3  C   UNL     1      -6.509  10.706  63.613  1.00  0.00     0.145 C  
HETATM    4  O   UNL     1      -5.840  11.708  63.811  1.00  0.00     1.265 OA 
BRANCH   3   5
HETATM    5  C   UNL     1      -7.108   9.856  64.678  1.00  0.00    -0.137 C  
HETATM    6  C   UNL     1      -8.132   9.009  64.407  1.00  0.00    -0.146 C  
HETATM    7  N   UNL     1      -8.620   8.186  65.406  1.00  0.00    -0.154 NA 
HETATM    8  C   UNL     1      -8.867   8.843  63.098  1.00  0.00     0.040 C  
HETATM    9  C   UNL     1      -8.284   8.268  66.741  1.00  0.00    -0.103 C  
HETATM   10  C   UNL     1      -9.055   7.340  67.655  1.00  0.00    -0.124 C  
HETATM   11  C   UNL     1      -7.317   9.130  67.138  1.00  0.00    -0.087 C  
HETATM   12  C   UNL     1      -6.540   9.966  66.110  1.00  0.00    -0.084 C  
BRANCH  11  13
HETATM   13  C   UNL     1      -7.086   9.289  68.597  1.00  0.00    -0.070 C  
HETATM   14  O   UNL     1      -6.218   8.672  69.195  1.00  0.00    -0.042 OA 
BRANCH  13  15
HETATM   15  O   UNL     1      -7.875  10.247  69.137  1.00  0.00    -0.104 OA 
HETATM   16  C   UNL     1      -8.381  12.194  70.570  1.00  0.00     5.754 C  
HETATM   17  C   UNL     1      -6.313  12.116  69.099  1.00  0.00    -0.094 C  
HETATM   18  C   UNL     1      -7.258  11.275  69.973  1.00  0.00     0.462 C  
HETATM   19  C   UNL     1      -6.513  10.689  71.195  1.00  0.00     0.643 C  
BRANCH  16  20
HETATM   20  N   UNL     1      -9.247  12.972  69.647  1.00  0.00     1.636 NA 
HETATM   21  C   UNL     1      -9.896  14.080  70.354  1.00  0.00     2.333 C  
BRANCH  20  22
HETATM   22  C   UNL     1      -8.445  13.569  68.556  1.00  0.00    -0.092 C  
BRANCH  22  23
HETATM   23  C   UNL     1      -9.216  13.992  67.304  1.00  0.00    -0.231 C  
HETATM   24  C   UNL     1     -10.724  13.638  67.246  1.00  0.00    -0.283 C  
HETATM   25  C   UNL     1     -11.184  13.856  65.795  1.00  0.00    -0.303 A  
HETATM   26  C   UNL     1     -11.526  14.345  68.342  1.00  0.00    -0.329 A  
HETATM   27  C   UNL     1     -11.733  12.794  65.061  1.00  0.00    -0.391 A  
HETATM   28  C   UNL     1     -12.089  15.622  68.197  1.00  0.00     0.220 A  
HETATM   29  C   UNL     1     -11.942  12.915  63.682  1.00  0.00    -0.613 A  
HETATM   30  C   UNL     1     -12.702  16.271  69.272  1.00  0.00     1.474 A  
HETATM   31  C   UNL     1     -12.770  15.657  70.516  1.00  0.00    -0.391 A  
HETATM   32  C   UNL     1     -11.624  14.101  63.023  1.00  0.00     1.820 A  
HETATM   33  C   UNL     1     -11.124  15.179  63.742  1.00  0.00     1.305 A  
HETATM   34  C   UNL     1     -12.242  14.382  70.684  1.00  0.00    -0.414 A  
HETATM   35  C   UNL     1     -11.635  13.731  69.604  1.00  0.00    -0.343 A  
HETATM   36  C   UNL     1     -10.906  15.057  65.113  1.00  0.00    -0.422 A  
ENDBRANCH  22  23
ENDBRANCH  20  22
ENDBRANCH  16  20
ENDBRANCH  13  15
ENDBRANCH  11  13
BRANCH  12  37
HETATM   37  C   UNL     1      -6.424  11.424  66.564  1.00  0.00    -0.081 A  
HETATM   38  O   UNL     1      -5.485  12.367  70.489  1.00  0.00    -0.129 OA 
HETATM   39  C   UNL     1      -6.031  11.721  67.884  1.00  0.00    -0.050 A  
HETATM   40  O   UNL     1      -5.680  14.517  70.100  1.00  0.00    -0.110 OA 
HETATM   41  C   UNL     1      -6.677  13.805  66.142  1.00  0.00     4.776 A  
HETATM   42  C   UNL     1      -6.021  13.046  68.335  1.00  0.00    -0.077 A  
HETATM   43  N   UNL     1      -5.702  13.330  69.742  1.00  0.00    -0.105 N  
HETATM   44  C   UNL     1      -6.339  14.092  67.466  1.00  0.00    -0.028 A  
HETATM   45  C   UNL     1      -6.724  12.481  65.696  1.00  0.00     4.151 A  
ENDBRANCH  12  37
ENDBRANCH   3   5
ENDBRANCH   2   3
TORSDOF 8
ENDMDL
MODEL      329
REMARK 921   NORMALIZED FREE ENERGY PREDICTED BY IDOCK:   62.81 KCAL/MOL
REMARK 922        TOTAL FREE ENERGY PREDICTED BY IDOCK:   90.28 KCAL/MOL
REMARK 923 INTER-LIGAND FREE ENERGY PREDICTED BY IDOCK:   37.45 KCAL/MOL
REMARK 924 INTRA-LIGAND FREE ENERGY PREDICTED BY IDOCK:   52.83 KCAL/MOL
REMARK 927      BINDING AFFINITY PREDICTED BY RF-SCORE:    0.00 PKD
ROOT
HETATM    1  C   UNL     1      -7.897  14.633  64.451  1.00  0.00    13.720 C  
HETATM    2  O   UNL     1      -8.358  13.804  65.523  1.00  0.00     2.100 OA 
ENDROOT
BRANCH   2   3
HETATM    3  C   UNL     1      -9.366  14.367  66.242  1.00  0.00    -0.232 C  
HETATM    4  O   UNL     1     -10.275  15.020  65.755  1.00  0.00    -0.293 OA 
BRANCH   3   5
HETATM    5  C   UNL     1      -9.207  14.077  67.693  1.00  0.00    -0.194 C  
HETATM    6  C   UNL     1      -9.410  15.039  68.627  1.00  0.00    -0.202 C  
HETATM    7  N   UNL     1      -9.318  14.717  69.970  1.00  0.00     0.397 NA 
HETATM    8  C   UNL     1      -9.724  16.498  68.393  1.00  0.00    -0.236 C  
HETATM    9  C   UNL     1      -8.847  13.523  70.473  1.00  0.00     5.046 C  
HETATM   10  C   UNL     1      -8.721  13.465  71.980  1.00  0.00    14.637 C  
HETATM   11  C   UNL     1      -8.547  12.510  69.624  1.00  0.00     1.929 C  
HETATM   12  C   UNL     1      -8.793  12.649  68.115  1.00  0.00    -0.194 C  
BRANCH  11  13
HETATM   13  C   UNL     1      -7.910  11.294  70.194  1.00  0.00     1.570 C  
HETATM   14  O   UNL     1      -7.324  11.300  71.266  1.00  0.00     2.810 OA 
BRANCH  13  15
HETATM   15  O   UNL     1      -8.140  10.196  69.436  1.00  0.00    -0.133 OA 
HETATM   16  C   UNL     1      -8.886   8.973  67.424  1.00  0.00    -0.118 C  
HETATM   17  C   UNL     1      -7.443  11.056  67.267  1.00  0.00    -0.107 C  
HETATM   18  C   UNL     1      -8.576  10.377  68.053  1.00  0.00    -0.123 C  
HETATM   19  C   UNL     1      -9.893  11.179  67.937  1.00  0.00    -0.187 C  
BRANCH  16  20
HETATM   20  N   UNL     1      -7.794   7.972  67.315  1.00  0.00    -0.108 NA 
HETATM   21  C   UNL     1      -7.002   7.931  68.548  1.00  0.00    -0.071 C  
BRANCH  20  22
HETATM   22  C   UNL     1      -8.346   6.615  67.114  1.00  0.00    -0.113 C  
BRANCH  22  23
HETATM   23  C   UNL     1      -8.167   5.633  68.273  1.00  0.00    -0.103 C  
HETATM   24  C   UNL     1      -8.096   6.228  69.703  1.00  0.00    -0.120 C  
HETATM   25  C   UNL     1      -7.589   5.113  70.633  1.00  0.00    -0.071 A  
HETATM   26  C   UNL     1      -9.399   6.926  70.103  1.00  0.00    -0.159 A  
HETATM   27  C   UNL     1      -6.410   5.292  71.372  1.00  0.00    -0.034 A  
HETATM   28  C   UNL     1     -10.480   6.271  70.712  1.00  0.00    -0.273 A  
HETATM   29  C   UNL     1      -5.818   4.214  72.039  1.00  0.00    -0.012 A  
HETATM   30  C   UNL     1     -11.691   6.929  70.941  1.00  0.00    -0.408 A  
HETATM   31  C   UNL     1     -11.850   8.258  70.568  1.00  0.00    -0.002 A  
HETATM   32  C   UNL     1      -6.402   2.949  71.992  1.00  0.00    -0.014 A  
HETATM   33  C   UNL     1      -7.594   2.764  71.304  1.00  0.00    -0.040 A  
HETATM   34  C   UNL     1     -10.789   8.939  69.983  1.00  0.00    -0.239 A  
HETATM   35  C   UNL     1      -9.574   8.281  69.763  1.00  0.00    -0.171 A  
HETATM   36  C   UNL     1      -8.181   3.835  70.632  1.00  0.00    -0.072 A  
ENDBRANCH  22  23
ENDBRANCH  20  22
ENDBRANCH  16  20
ENDBRANCH  13  15
ENDBRANCH  11  13
BRANCH  12  37
HETATM   37  C   UNL     1      -7.588  12.149  67.313  1.00  0.00    -0.156 A  
HETATM   38  O   UNL     1      -7.871   8.771  64.928  1.00  0.00    -0.107 OA 
HETATM   39  C   UNL     1      -7.727  11.042  66.452  1.00  0.00    -0.146 A  
HETATM   40  O   UNL     1      -5.747   8.879  64.389  1.00  0.00    -0.063 OA 
HETATM   41  C   UNL     1      -5.227  12.247  66.745  1.00  0.00     0.188 A  
HETATM   42  C   UNL     1      -6.609  10.516  65.794  1.00  0.00    -0.123 A  
HETATM   43  N   UNL     1      -6.754   9.304  64.975  1.00  0.00    -0.076 N  
HETATM   44  C   UNL     1      -5.357  11.119  65.934  1.00  0.00    -0.106 A  
HETATM   45  C   UNL     1      -6.332  12.756  67.433  1.00  0.00    -0.139 A  
ENDBRANCH  12  37
ENDBRANCH   3   5
ENDBRANCH   2   3
TORSDOF 8
ENDMDL
MODEL      330
REMARK 921   NORMALIZED FREE ENERGY PREDICTED BY IDOCK:   65.63 KCAL/MOL
REMARK 922        TOTAL FREE ENERGY PREDICTED BY IDOCK:   94.40 KCAL/MOL
REMARK 923 INTER-LIGAND FREE ENERGY PREDICTED BY IDOCK:   53.62 KCAL/MOL
REMARK 924 INTRA-LIGAND FREE ENERGY PREDICTED BY IDOCK:   40.79 KCAL/MOL
REMARK 927      BINDING AFFINITY PREDICTED BY RF-SCORE:    0.00 PKD
ROOT
HETATM    1  C   UNL     1     -12.595   6.361  67.292  1.00  0.00     7.259 C  
HETATM    2  O   UNL     1     -12.348   5.348  66.311  1.00  0.00     3.285 OA 
ENDROOT
BRANCH   2   3
HETATM    3  C   UNL     1     -11.041   5.263  65.944  1.00  0.00     0.280 C  
HETATM    4  O   UNL     1     -10.661   4.925  64.834  1.00  0.00     0.198 OA 
BRANCH   3   5
HETATM    5  C   UNL     1     -10.149   5.638  67.074  1.00  0.00    -0.223 C  
HETATM    6  C   UNL     1      -9.798   4.733  68.021  1.00  0.00    -0.126 C  
HETATM    7  N   UNL     1      -8.914   5.099  69.021  1.00  0.00    -0.098 NA 
HETATM    8  C   UNL     1     -10.278   3.307  68.155  1.00  0.00     1.217 C  
HETATM    9  C   UNL     1      -8.478   6.383  69.269  1.00  0.00    -0.126 C  
HETATM   10  C   UNL     1      -7.617   6.542  70.503  1.00  0.00    -0.096 C  
HETATM   11  C   UNL     1      -8.824   7.384  68.423  1.00  0.00    -0.121 C  
HETATM   12  C   UNL     1      -9.635   7.093  67.151  1.00  0.00    -0.191 C  
BRANCH  11  13
HETATM   13  C   UNL     1      -8.454   8.772  68.802  1.00  0.00    -0.129 C  
HETATM   14  O   UNL     1      -8.308   9.119  69.964  1.00  0.00    -0.120 OA 
BRANCH  13  15
HETATM   15  O   UNL     1      -8.215   9.550  67.720  1.00  0.00    -0.113 OA 
HETATM   16  C   UNL     1      -7.992  10.032  65.308  1.00  0.00    -0.143 C  
HETATM   17  C   UNL     1      -9.946   8.701  66.232  1.00  0.00    -0.287 C  
HETATM   18  C   UNL     1      -8.445   8.989  66.390  1.00  0.00    -0.120 C  
HETATM   19  C   UNL     1      -7.602   7.721  66.118  1.00  0.00    -0.087 C  
BRANCH  16  20
HETATM   20  N   UNL     1      -8.668  11.353  65.249  1.00  0.00     0.043 NA 
HETATM   21  C   UNL     1     -10.125  11.191  65.245  1.00  0.00    -0.276 C  
BRANCH  20  22
HETATM   22  C   UNL     1      -8.330  12.168  66.436  1.00  0.00     0.106 C  
BRANCH  22  23
HETATM   23  C   UNL     1      -9.350  13.236  66.835  1.00  0.00    -0.244 C  
HETATM   24  C   UNL     1      -9.624  13.425  68.350  1.00  0.00    -0.188 C  
HETATM   25  C   UNL     1     -10.891  14.288  68.475  1.00  0.00    -0.264 A  
HETATM   26  C   UNL     1      -8.381  13.902  69.106  1.00  0.00     0.312 A  
HETATM   27  C   UNL     1     -12.014  13.796  69.157  1.00  0.00    -0.403 A  
HETATM   28  C   UNL     1      -8.036  15.253  69.268  1.00  0.00    -0.236 A  
HETATM   29  C   UNL     1     -13.240  14.468  69.084  1.00  0.00     1.898 A  
HETATM   30  C   UNL     1      -6.826  15.627  69.859  1.00  0.00    -0.073 A  
HETATM   31  C   UNL     1      -5.934  14.660  70.304  1.00  0.00    -0.159 A  
HETATM   32  C   UNL     1     -13.356  15.646  68.347  1.00  0.00     3.708 A  
HETATM   33  C   UNL     1     -12.242  16.172  67.706  1.00  0.00     1.124 A  
HETATM   34  C   UNL     1      -6.259  13.314  70.178  1.00  0.00    -0.050 A  
HETATM   35  C   UNL     1      -7.474  12.942  69.593  1.00  0.00     0.788 A  
HETATM   36  C   UNL     1     -11.023  15.500  67.769  1.00  0.00    -0.317 A  
ENDBRANCH  22  23
ENDBRANCH  20  22
ENDBRANCH  16  20
ENDBRANCH  13  15
ENDBRANCH  11  13
BRANCH  12  37
HETATM   37  C   UNL     1     -10.772   8.106  66.982  1.00  0.00    -0.247 A  
HETATM   38  O   UNL     1     -10.937  11.533  69.306  1.00  0.00    -0.231 OA 
HETATM   39  C   UNL     1     -10.768   9.299  67.730  1.00  0.00    -0.270 A  
HETATM   40  O   UNL     1     -12.842  12.144  68.406  1.00  0.00     0.830 OA 
HETATM   41  C   UNL     1     -12.901   8.764  66.012  1.00  0.00    17.103 A  
HETATM   42  C   UNL     1     -11.852  10.182  67.656  1.00  0.00     1.527 A  
HETATM   43  N   UNL     1     -11.876  11.374  68.515  1.00  0.00    -0.317 N  
HETATM   44  C   UNL     1     -12.920   9.919  66.794  1.00  0.00    12.653 A  
HETATM   45  C   UNL     1     -11.838   7.861  66.108  1.00  0.00     6.542 A  
ENDBRANCH  12  37
ENDBRANCH   3   5
ENDBRANCH   2   3
TORSDOF 8
ENDMDL
MODEL      331
REMARK 921   NORMALIZED FREE ENERGY PREDICTED BY IDOCK:   67.40 KCAL/MOL
REMARK 922        TOTAL FREE ENERGY PREDICTED BY IDOCK:   97.01 KCAL/MOL
REMARK 923 INTER-LIGAND FREE ENERGY PREDICTED BY IDOCK:   -2.39 KCAL/MOL
REMARK 924 INTRA-LIGAND FREE ENERGY PREDICTED BY IDOCK:   99.39 KCAL/MOL
REMARK 927      BINDING AFFINITY PREDICTED BY RF-SCORE:    0.00 PKD
ROOT
HETATM    1  C   UNL     1      -7.769  14.838  66.729  1.00  0.00     0.356 C  
HETATM    2  O   UNL     1      -8.536  13.662  66.449  1.00  0.00     0.187 OA 
ENDROOT
BRANCH   2   3
HETATM    3  C   UNL     1      -8.027  12.539  67.024  1.00  0.00    -0.085 C  
HETATM    4  O   UNL     1      -7.586  12.491  68.162  1.00  0.00    -0.107 OA 
BRANCH   3   5
HETATM    5  C   UNL     1      -8.086  11.389  66.082  1.00  0.00    -0.011 C  
HETATM    6  C   UNL     1      -8.777  11.470  64.919  1.00  0.00     0.403 C  
HETATM    7  N   UNL     1      -8.756  10.404  64.036  1.00  0.00    -0.186 NA 
HETATM    8  C   UNL     1      -9.629  12.618  64.432  1.00  0.00     0.224 C  
HETATM    9  C   UNL     1      -8.236   9.156  64.306  1.00  0.00    -0.161 C  
HETATM   10  C   UNL     1      -8.453   8.122  63.223  1.00  0.00     0.088 C  
HETATM   11  C   UNL     1      -7.580   8.941  65.472  1.00  0.00    -0.087 C  
HETATM   12  C   UNL     1      -7.345  10.088  66.465  1.00  0.00    -0.101 C  
BRANCH  11  13
HETATM   13  C   UNL     1      -7.161   7.550  65.786  1.00  0.00    -0.065 C  
HETATM   14  O   UNL     1      -6.051   7.280  66.220  1.00  0.00    -0.035 OA 
BRANCH  13  15
HETATM   15  O   UNL     1      -8.171   6.664  65.621  1.00  0.00    -0.125 OA 
HETATM   16  C   UNL     1      -9.449   4.912  64.439  1.00  0.00     0.164 C  
HETATM   17  C   UNL     1      -6.921   4.814  64.647  1.00  0.00    -0.050 C  
HETATM   18  C   UNL     1      -8.126   5.754  64.478  1.00  0.00    -0.132 C  
HETATM   19  C   UNL     1      -8.069   6.494  63.122  1.00  0.00    -0.036 C  
BRANCH  16  20
HETATM   20  N   UNL     1      -9.772   4.018  65.581  1.00  0.00    -0.188 NA 
HETATM   21  C   UNL     1      -9.478   2.622  65.247  1.00  0.00    -0.013 C  
BRANCH  20  22
HETATM   22  C   UNL     1      -8.950   4.359  66.762  1.00  0.00    -0.118 C  
BRANCH  22  23
HETATM   23  C   UNL     1      -9.674   5.069  67.908  1.00  0.00    -0.196 C  
HETATM   24  C   UNL     1      -8.797   5.689  69.026  1.00  0.00    -0.106 C  
HETATM   25  C   UNL     1      -9.734   6.034  70.196  1.00  0.00    -0.204 A  
HETATM   26  C   UNL     1      -7.901   6.813  68.500  1.00  0.00    -0.118 A  
HETATM   27  C   UNL     1      -9.522   5.466  71.461  1.00  0.00    -0.185 A  
HETATM   28  C   UNL     1      -8.296   8.157  68.426  1.00  0.00    -0.126 A  
HETATM   29  C   UNL     1     -10.488   5.588  72.466  1.00  0.00    -0.260 A  
HETATM   30  C   UNL     1      -7.484   9.120  67.821  1.00  0.00    -0.085 A  
HETATM   31  C   UNL     1      -6.257   8.763  67.278  1.00  0.00    -0.056 A  
HETATM   32  C   UNL     1     -11.667   6.293  72.229  1.00  0.00    -0.344 A  
HETATM   33  C   UNL     1     -11.872   6.903  70.998  1.00  0.00    -0.411 A  
HETATM   34  C   UNL     1      -5.828   7.443  67.356  1.00  0.00    -0.034 A  
HETATM   35  C   UNL     1      -6.640   6.482  67.970  1.00  0.00    -0.062 A  
HETATM   36  C   UNL     1     -10.915   6.774  69.993  1.00  0.00    -0.344 A  
ENDBRANCH  22  23
ENDBRANCH  20  22
ENDBRANCH  16  20
ENDBRANCH  13  15
ENDBRANCH  11  13
BRANCH  12  37
HETATM   37  C   UNL     1      -7.670   9.651  67.897  1.00  0.00    -0.087 A  
HETATM   38  O   UNL     1     -10.925  11.231  69.919  1.00  0.00    -0.177 OA 
HETATM   39  C   UNL     1      -8.823  10.146  68.538  1.00  0.00    -0.127 A  
HETATM   40  O   UNL     1     -10.433  10.114  71.741  1.00  0.00     0.957 OA 
HETATM   41  C   UNL     1      -7.104   8.442  69.928  1.00  0.00    -0.051 A  
HETATM   42  C   UNL     1      -9.075   9.832  69.879  1.00  0.00    -0.229 A  
HETATM   43  N   UNL     1     -10.229  10.433  70.560  1.00  0.00     0.186 N  
HETATM   44  C   UNL     1      -8.219   8.976  70.577  1.00  0.00    -0.187 A  
HETATM   45  C   UNL     1      -6.829   8.780  68.600  1.00  0.00    -0.063 A  
ENDBRANCH  12  37
ENDBRANCH   3   5
ENDBRANCH   2   3
TORSDOF 8
ENDMDL
MODEL      332
REMARK 921   NORMALIZED FREE ENERGY PREDICTED BY IDOCK:   70.35 KCAL/MOL
REMARK 922        TOTAL FREE ENERGY PREDICTED BY IDOCK:  101.34 KCAL/MOL
REMARK 923 INTER-LIGAND FREE ENERGY PREDICTED BY IDOCK:   72.02 KCAL/MOL
REMARK 924 INTRA-LIGAND FREE ENERGY PREDICTED BY IDOCK:   29.32 KCAL/MOL
REMARK 927      BINDING AFFINITY PREDICTED BY RF-SCORE:    0.00 PKD
ROOT
HETATM    1  C   UNL     1      -8.751  15.629  66.920  1.00  0.00    -0.253 C  
HETATM    2  O   UNL     1      -8.421  15.091  68.205  1.00  0.00    -0.143 OA 
ENDROOT
BRANCH   2   3
HETATM    3  C   UNL     1      -7.298  15.637  68.744  1.00  0.00    -0.144 C  
HETATM    4  O   UNL     1      -6.212  15.078  68.779  1.00  0.00    -0.081 OA 
BRANCH   3   5
HETATM    5  C   UNL     1      -7.574  16.999  69.276  1.00  0.00    -0.055 C  
HETATM    6  C   UNL     1      -6.587  17.753  69.820  1.00  0.00     0.019 C  
HETATM    7  N   UNL     1      -6.866  19.039  70.245  1.00  0.00     0.331 NA 
HETATM    8  C   UNL     1      -5.149  17.356  70.055  1.00  0.00    -0.191 C  
HETATM    9  C   UNL     1      -8.127  19.590  70.344  1.00  0.00     1.480 C  
HETATM   10  C   UNL     1      -8.177  20.971  70.961  1.00  0.00     3.772 C  
HETATM   11  C   UNL     1      -9.199  18.896  69.892  1.00  0.00     0.979 C  
HETATM   12  C   UNL     1      -9.022  17.535  69.204  1.00  0.00     0.083 C  
BRANCH  11  13
HETATM   13  C   UNL     1     -10.549  19.463  70.146  1.00  0.00     1.489 C  
HETATM   14  O   UNL     1     -10.773  20.245  71.058  1.00  0.00     1.858 OA 
BRANCH  13  15
HETATM   15  O   UNL     1     -11.446  19.084  69.205  1.00  0.00     2.781 OA 
HETATM   16  C   UNL     1     -12.322  18.838  66.909  1.00  0.00     4.604 C  
HETATM   17  C   UNL     1      -9.910  18.295  67.487  1.00  0.00    -0.324 C  
HETATM   18  C   UNL     1     -11.089  19.232  67.796  1.00  0.00    -0.021 C  
HETATM   19  C   UNL     1     -10.756  20.692  67.410  1.00  0.00     0.598 C  
BRANCH  16  20
HETATM   20  N   UNL     1     -12.856  17.453  66.988  1.00  0.00     5.811 NA 
HETATM   21  C   UNL     1     -14.109  17.337  66.236  1.00  0.00    15.354 C  
BRANCH  20  22
HETATM   22  C   UNL     1     -11.906  16.491  66.390  1.00  0.00     1.644 C  
BRANCH  22  23
HETATM   23  C   UNL     1     -10.670  17.091  65.716  1.00  0.00    -0.146 C  
HETATM   24  C   UNL     1      -9.361  16.261  65.764  1.00  0.00    -0.194 C  
HETATM   25  C   UNL     1      -8.218  17.194  65.334  1.00  0.00     1.505 A  
HETATM   26  C   UNL     1      -9.493  14.932  65.015  1.00  0.00     0.634 A  
HETATM   27  C   UNL     1      -7.141  17.438  66.200  1.00  0.00    -0.320 A  
HETATM   28  C   UNL     1      -9.230  14.779  63.645  1.00  0.00     9.652 A  
HETATM   29  C   UNL     1      -6.218  18.452  65.919  1.00  0.00    -0.264 A  
HETATM   30  C   UNL     1      -9.487  13.573  62.988  1.00  0.00     6.711 A  
HETATM   31  C   UNL     1     -10.011  12.491  63.684  1.00  0.00    -0.080 A  
HETATM   32  C   UNL     1      -6.346  19.221  64.763  1.00  0.00    -0.210 A  
HETATM   33  C   UNL     1      -7.378  18.962  63.871  1.00  0.00     5.255 A  
HETATM   34  C   UNL     1     -10.260  12.606  65.047  1.00  0.00    -0.294 A  
HETATM   35  C   UNL     1      -9.994  13.812  65.705  1.00  0.00    -0.275 A  
HETATM   36  C   UNL     1      -8.304  17.959  64.153  1.00  0.00    10.307 A  
ENDBRANCH  22  23
ENDBRANCH  20  22
ENDBRANCH  16  20
ENDBRANCH  13  15
ENDBRANCH  11  13
BRANCH  12  37
HETATM   37  C   UNL     1     -10.031  16.514  69.738  1.00  0.00     0.067 A  
HETATM   38  O   UNL     1      -9.575  12.466  68.975  1.00  0.00     0.122 OA 
HETATM   39  C   UNL     1      -9.816  15.137  69.529  1.00  0.00    -0.191 A  
HETATM   40  O   UNL     1     -11.453  11.983  69.999  1.00  0.00    -0.227 OA 
HETATM   41  C   UNL     1     -12.131  15.982  70.842  1.00  0.00    -0.332 A  
HETATM   42  C   UNL     1     -10.783  14.205  69.925  1.00  0.00     0.228 A  
HETATM   43  N   UNL     1     -10.587  12.782  69.614  1.00  0.00     0.443 N  
HETATM   44  C   UNL     1     -11.940  14.623  70.586  1.00  0.00    -0.380 A  
HETATM   45  C   UNL     1     -11.186  16.921  70.417  1.00  0.00     0.413 A  
ENDBRANCH  12  37
ENDBRANCH   3   5
ENDBRANCH   2   3
TORSDOF 8
ENDMDL
MODEL      333
REMARK 921   NORMALIZED FREE ENERGY PREDICTED BY IDOCK:   71.10 KCAL/MOL
REMARK 922        TOTAL FREE ENERGY PREDICTED BY IDOCK:  102.44 KCAL/MOL
REMARK 923 INTER-LIGAND FREE ENERGY PREDICTED BY IDOCK:   19.25 KCAL/MOL
REMARK 924 INTRA-LIGAND FREE ENERGY PREDICTED BY IDOCK:   83.19 KCAL/MOL
REMARK 927      BINDING AFFINITY PREDICTED BY RF-SCORE:    0.00 PKD
ROOT
HETATM    1  C   UNL     1      -7.283   7.662  67.952  1.00  0.00    -0.094 C  
HETATM    2  O   UNL     1      -7.362   8.960  67.354  1.00  0.00    -0.080 OA 
ENDROOT
BRANCH   2   3
HETATM    3  C   UNL     1      -7.820   9.917  68.205  1.00  0.00    -0.085 C  
HETATM    4  O   UNL     1      -8.441   9.684  69.230  1.00  0.00    -0.130 OA 
BRANCH   3   5
HETATM    5  C   UNL     1      -7.457  11.276  67.718  1.00  0.00    -0.095 C  
HETATM    6  C   UNL     1      -6.351  11.913  68.176  1.00  0.00    -0.052 C  
HETATM    7  N   UNL     1      -6.009  13.147  67.653  1.00  0.00    -0.212 NA 
HETATM    8  C   UNL     1      -5.398  11.445  69.250  1.00  0.00    -0.044 C  
HETATM    9  C   UNL     1      -6.800  13.906  66.816  1.00  0.00     1.592 C  
HETATM   10  C   UNL     1      -6.256  15.279  66.488  1.00  0.00     2.269 C  
HETATM   11  C   UNL     1      -7.964  13.394  66.348  1.00  0.00     1.080 C  
HETATM   12  C   UNL     1      -8.379  11.953  66.679  1.00  0.00    -0.117 C  
BRANCH  11  13
HETATM   13  C   UNL     1      -8.853  14.293  65.567  1.00  0.00     1.469 C  
HETATM   14  O   UNL     1      -9.682  13.872  64.774  1.00  0.00    -0.043 OA 
BRANCH  13  15
HETATM   15  O   UNL     1      -8.691  15.593  65.909  1.00  0.00    -0.219 OA 
HETATM   16  C   UNL     1      -9.441  17.895  66.398  1.00  0.00    -0.267 C  
HETATM   17  C   UNL     1     -10.634  15.867  67.352  1.00  0.00    -0.315 C  
HETATM   18  C   UNL     1      -9.881  16.413  66.128  1.00  0.00    -0.338 C  
HETATM   19  C   UNL     1     -10.804  16.477  64.889  1.00  0.00    -0.222 C  
BRANCH  16  20
HETATM   20  N   UNL     1      -8.591  18.193  67.580  1.00  0.00    -0.249 NA 
HETATM   21  C   UNL     1      -9.232  19.193  68.440  1.00  0.00    -0.356 C  
BRANCH  20  22
HETATM   22  C   UNL     1      -8.395  16.981  68.404  1.00  0.00    -0.241 C  
BRANCH  22  23
HETATM   23  C   UNL     1      -9.662  16.217  68.796  1.00  0.00    -0.240 C  
HETATM   24  C   UNL     1     -11.022  16.893  68.486  1.00  0.00    -0.290 C  
HETATM   25  C   UNL     1     -12.101  16.112  69.255  1.00  0.00     0.030 A  
HETATM   26  C   UNL     1     -11.243  17.084  66.983  1.00  0.00     0.378 A  
HETATM   27  C   UNL     1     -12.907  16.766  70.199  1.00  0.00     4.111 A  
HETATM   28  C   UNL     1     -11.831  16.119  66.151  1.00  0.00     1.179 A  
HETATM   29  C   UNL     1     -13.728  16.032  71.063  1.00  0.00     1.102 A  
HETATM   30  C   UNL     1     -11.893  16.295  64.767  1.00  0.00     0.365 A  
HETATM   31  C   UNL     1     -11.371  17.442  64.180  1.00  0.00     2.729 A  
HETATM   32  C   UNL     1     -13.768  14.641  70.985  1.00  0.00    -0.281 A  
HETATM   33  C   UNL     1     -13.012  13.981  70.025  1.00  0.00     0.182 A  
HETATM   34  C   UNL     1     -10.803  18.426  64.981  1.00  0.00     1.197 A  
HETATM   35  C   UNL     1     -10.749  18.251  66.369  1.00  0.00    -0.189 A  
HETATM   36  C   UNL     1     -12.187  14.709  69.170  1.00  0.00    -0.223 A  
ENDBRANCH  22  23
ENDBRANCH  20  22
ENDBRANCH  16  20
ENDBRANCH  13  15
ENDBRANCH  11  13
BRANCH  12  37
HETATM   37  C   UNL     1      -9.850  11.888  67.100  1.00  0.00    -0.206 A  
HETATM   38  O   UNL     1     -12.675  14.374  65.362  1.00  0.00    -0.442 OA 
HETATM   39  C   UNL     1     -10.805  12.690  66.444  1.00  0.00    -0.295 A  
HETATM   40  O   UNL     1     -14.266  13.602  66.660  1.00  0.00     5.697 OA 
HETATM   41  C   UNL     1     -11.606  11.059  68.563  1.00  0.00    -0.380 A  
HETATM   42  C   UNL     1     -12.133  12.712  66.888  1.00  0.00    -0.143 A  
HETATM   43  N   UNL     1     -13.094  13.626  66.255  1.00  0.00     0.269 N  
HETATM   44  C   UNL     1     -12.538  11.894  67.945  1.00  0.00     1.651 A  
HETATM   45  C   UNL     1     -10.271  11.059  68.147  1.00  0.00    -0.201 A  
ENDBRANCH  12  37
ENDBRANCH   3   5
ENDBRANCH   2   3
TORSDOF 8
ENDMDL
MODEL      334
REMARK 921   NORMALIZED FREE ENERGY PREDICTED BY IDOCK:   76.31 KCAL/MOL
REMARK 922        TOTAL FREE ENERGY PREDICTED BY IDOCK:  110.08 KCAL/MOL
REMARK 923 INTER-LIGAND FREE ENERGY PREDICTED BY IDOCK:   63.92 KCAL/MOL
REMARK 924 INTRA-LIGAND FREE ENERGY PREDICTED BY IDOCK:   46.16 KCAL/MOL
REMARK 927      BINDING AFFINITY PREDICTED BY RF-SCORE:    0.00 PKD
ROOT
HETATM    1  C   UNL     1      -5.943  16.982  65.074  1.00  0.00     2.981 C  
HETATM    2  O   UNL     1      -6.574  15.939  65.825  1.00  0.00     2.180 OA 
ENDROOT
BRANCH   2   3
HETATM    3  C   UNL     1      -6.292  15.989  67.155  1.00  0.00    -0.079 C  
HETATM    4  O   UNL     1      -5.181  16.205  67.613  1.00  0.00    -0.123 OA 
BRANCH   3   5
HETATM    5  C   UNL     1      -7.516  15.747  67.965  1.00  0.00    -0.136 C  
HETATM    6  C   UNL     1      -7.682  16.332  69.177  1.00  0.00    -0.229 C  
HETATM    7  N   UNL     1      -8.861  16.138  69.874  1.00  0.00     0.388 NA 
HETATM    8  C   UNL     1      -6.696  17.202  69.922  1.00  0.00     0.255 C  
HETATM    9  C   UNL     1      -9.847  15.234  69.537  1.00  0.00    -0.226 C  
HETATM   10  C   UNL     1     -10.979  15.118  70.533  1.00  0.00    -0.267 C  
HETATM   11  C   UNL     1      -9.752  14.541  68.377  1.00  0.00    -0.224 C  
HETATM   12  C   UNL     1      -8.598  14.801  67.397  1.00  0.00    -0.210 C  
BRANCH  11  13
HETATM   13  C   UNL     1     -10.758  13.478  68.119  1.00  0.00    -0.252 C  
HETATM   14  O   UNL     1     -11.943  13.721  67.954  1.00  0.00    -0.362 OA 
BRANCH  13  15
HETATM   15  O   UNL     1     -10.188  12.255  68.003  1.00  0.00    -0.195 OA 
HETATM   16  C   UNL     1      -9.948   9.968  67.102  1.00  0.00    -0.201 C  
HETATM   17  C   UNL     1     -10.362  11.965  65.590  1.00  0.00    -0.285 C  
HETATM   18  C   UNL     1     -10.677  11.351  66.964  1.00  0.00    -0.261 C  
HETATM   19  C   UNL     1     -12.185  11.036  67.101  1.00  0.00     1.781 C  
BRANCH  16  20
HETATM   20  N   UNL     1      -8.472   9.909  66.947  1.00  0.00    -0.124 NA 
HETATM   21  C   UNL     1      -8.090  10.105  65.545  1.00  0.00    -0.147 C  
BRANCH  20  22
HETATM   22  C   UNL     1      -7.820  10.986  67.724  1.00  0.00    -0.110 C  
BRANCH  22  23
HETATM   23  C   UNL     1      -8.358  11.220  69.137  1.00  0.00     0.067 C  
HETATM   24  C   UNL     1      -9.371  10.184  69.692  1.00  0.00    -0.215 C  
HETATM   25  C   UNL     1     -10.003  10.800  70.951  1.00  0.00     2.529 A  
HETATM   26  C   UNL     1      -8.751   8.792  69.836  1.00  0.00    -0.135 A  
HETATM   27  C   UNL     1     -11.391  10.991  71.023  1.00  0.00     0.565 A  
HETATM   28  C   UNL     1      -8.074   8.354  70.984  1.00  0.00    -0.132 A  
HETATM   29  C   UNL     1     -11.952  11.752  72.055  1.00  0.00     1.979 A  
HETATM   30  C   UNL     1      -7.420   7.119  71.014  1.00  0.00    -0.077 A  
HETATM   31  C   UNL     1      -7.430   6.292  69.898  1.00  0.00    -0.084 A  
HETATM   32  C   UNL     1     -11.138  12.315  73.037  1.00  0.00    12.662 A  
HETATM   33  C   UNL     1      -9.767  12.097  73.008  1.00  0.00    23.629 A  
HETATM   34  C   UNL     1      -8.112   6.690  68.754  1.00  0.00    -0.119 A  
HETATM   35  C   UNL     1      -8.773   7.923  68.729  1.00  0.00    -0.128 A  
HETATM   36  C   UNL     1      -9.206  11.348  71.976  1.00  0.00    15.040 A  
ENDBRANCH  22  23
ENDBRANCH  20  22
ENDBRANCH  16  20
ENDBRANCH  13  15
ENDBRANCH  11  13
BRANCH  12  37
HETATM   37  C   UNL     1      -7.994  13.485  66.898  1.00  0.00     0.171 A  
HETATM   38  O   UNL     1      -8.928  12.003  63.142  1.00  0.00     0.009 OA 
HETATM   39  C   UNL     1      -8.267  13.038  65.590  1.00  0.00     2.326 A  
HETATM   40  O   UNL     1      -7.730  10.196  63.472  1.00  0.00    -0.147 OA 
HETATM   41  C   UNL     1      -6.696  11.466  67.278  1.00  0.00    -0.111 A  
HETATM   42  C   UNL     1      -7.803  11.789  65.160  1.00  0.00     1.571 A  
HETATM   43  N   UNL     1      -8.178  11.296  63.828  1.00  0.00     0.506 N  
HETATM   44  C   UNL     1      -7.013  11.001  66.000  1.00  0.00    -0.014 A  
HETATM   45  C   UNL     1      -7.187  12.696  67.725  1.00  0.00    -0.127 A  
ENDBRANCH  12  37
ENDBRANCH   3   5
ENDBRANCH   2   3
TORSDOF 8
ENDMDL
MODEL      335
REMARK 921   NORMALIZED FREE ENERGY PREDICTED BY IDOCK:   90.47 KCAL/MOL
REMARK 922        TOTAL FREE ENERGY PREDICTED BY IDOCK:  130.87 KCAL/MOL
REMARK 923 INTER-LIGAND FREE ENERGY PREDICTED BY IDOCK:   73.22 KCAL/MOL
REMARK 924 INTRA-LIGAND FREE ENERGY PREDICTED BY IDOCK:   57.65 KCAL/MOL
REMARK 927      BINDING AFFINITY PREDICTED BY RF-SCORE:    0.00 PKD
ROOT
HETATM    1  C   UNL     1     -13.609   2.187  68.744  1.00  0.00    23.808 C  
HETATM    2  O   UNL     1     -12.638   3.147  69.172  1.00  0.00    19.908 OA 
ENDROOT
BRANCH   2   3
HETATM    3  C   UNL     1     -11.428   2.991  68.571  1.00  0.00    10.928 C  
HETATM    4  O   UNL     1     -11.277   2.612  67.420  1.00  0.00     6.494 OA 
BRANCH   3   5
HETATM    5  C   UNL     1     -10.324   3.347  69.504  1.00  0.00     1.475 C  
HETATM    6  C   UNL     1     -10.484   3.253  70.847  1.00  0.00     1.150 C  
HETATM    7  N   UNL     1      -9.416   3.529  71.682  1.00  0.00    -0.136 NA 
HETATM    8  C   UNL     1     -11.740   2.886  71.602  1.00  0.00     4.256 C  
HETATM    9  C   UNL     1      -8.217   4.083  71.287  1.00  0.00    -0.072 C  
HETATM   10  C   UNL     1      -7.258   4.410  72.411  1.00  0.00    -0.067 C  
HETATM   11  C   UNL     1      -7.974   4.286  69.969  1.00  0.00    -0.055 C  
HETATM   12  C   UNL     1      -8.987   3.838  68.905  1.00  0.00    -0.178 C  
BRANCH  11  13
HETATM   13  C   UNL     1      -6.733   5.014  69.596  1.00  0.00    -0.051 C  
HETATM   14  O   UNL     1      -5.620   4.530  69.736  1.00  0.00    -0.011 OA 
BRANCH  13  15
HETATM   15  O   UNL     1      -6.998   6.206  69.012  1.00  0.00    -0.063 OA 
HETATM   16  C   UNL     1      -7.619   8.596  68.970  1.00  0.00    -0.090 C  
HETATM   17  C   UNL     1      -5.918   7.684  70.620  1.00  0.00    -0.030 C  
HETATM   18  C   UNL     1      -7.221   7.370  69.866  1.00  0.00    -0.081 C  
HETATM   19  C   UNL     1      -8.400   7.179  70.848  1.00  0.00    -0.121 C  
BRANCH  16  20
HETATM   20  N   UNL     1      -6.656   9.092  67.953  1.00  0.00    -0.060 NA 
HETATM   21  C   UNL     1      -7.253   9.060  66.615  1.00  0.00    -0.085 C  
BRANCH  20  22
HETATM   22  C   UNL     1      -6.286  10.497  68.225  1.00  0.00    -0.054 C  
BRANCH  22  23
HETATM   23  C   UNL     1      -7.354  11.360  68.900  1.00  0.00    -0.114 C  
HETATM   24  C   UNL     1      -8.823  11.155  68.446  1.00  0.00    -0.157 C  
HETATM   25  C   UNL     1      -9.637  12.334  69.005  1.00  0.00     0.308 A  
HETATM   26  C   UNL     1      -9.333   9.747  68.762  1.00  0.00    -0.150 A  
HETATM   27  C   UNL     1     -10.336  13.184  68.135  1.00  0.00    -0.247 A  
HETATM   28  C   UNL     1      -9.935   9.389  69.978  1.00  0.00    -0.253 A  
HETATM   29  C   UNL     1     -10.888  14.382  68.603  1.00  0.00    -0.260 A  
HETATM   30  C   UNL     1     -10.268   8.062  70.260  1.00  0.00    -0.200 A  
HETATM   31  C   UNL     1     -10.010   7.061  69.332  1.00  0.00    -0.165 A  
HETATM   32  C   UNL     1     -10.765  14.738  69.945  1.00  0.00    -0.139 A  
HETATM   33  C   UNL     1     -10.118  13.886  70.830  1.00  0.00     3.315 A  
HETATM   34  C   UNL     1      -9.436   7.388  68.109  1.00  0.00    -0.141 A  
HETATM   35  C   UNL     1      -9.110   8.720  67.826  1.00  0.00    -0.143 A  
HETATM   36  C   UNL     1      -9.560  12.696  70.364  1.00  0.00     5.153 A  
ENDBRANCH  22  23
ENDBRANCH  20  22
ENDBRANCH  16  20
ENDBRANCH  13  15
ENDBRANCH  11  13
BRANCH  12  37
HETATM   37  C   UNL     1      -9.203   4.934  67.857  1.00  0.00    -0.142 A  
HETATM   38  O   UNL     1      -8.167   4.324  63.891  1.00  0.00    -0.090 OA 
HETATM   39  C   UNL     1      -8.913   4.679  66.503  1.00  0.00    -0.113 A  
HETATM   40  O   UNL     1      -8.734   6.372  63.348  1.00  0.00     0.296 OA 
HETATM   41  C   UNL     1      -9.798   7.215  67.263  1.00  0.00    -0.217 A  
HETATM   42  C   UNL     1      -9.011   5.704  65.555  1.00  0.00    -0.104 A  
HETATM   43  N   UNL     1      -8.612   5.447  64.164  1.00  0.00    -0.086 N  
HETATM   44  C   UNL     1      -9.458   6.974  65.930  1.00  0.00     0.132 A  
HETATM   45  C   UNL     1      -9.667   6.204  68.220  1.00  0.00    -0.129 A  
ENDBRANCH  12  37
ENDBRANCH   3   5
ENDBRANCH   2   3
TORSDOF 8
ENDMDL
MODEL      336
REMARK 921   NORMALIZED FREE ENERGY PREDICTED BY IDOCK:   94.51 KCAL/MOL
REMARK 922        TOTAL FREE ENERGY PREDICTED BY IDOCK:  136.80 KCAL/MOL
REMARK 923 INTER-LIGAND FREE ENERGY PREDICTED BY IDOCK:   60.27 KCAL/MOL
REMARK 924 INTRA-LIGAND FREE ENERGY PREDICTED BY IDOCK:   76.53 KCAL/MOL
REMARK 927      BINDING AFFINITY PREDICTED BY RF-SCORE:    0.00 PKD
ROOT
HETATM    1  C   UNL     1      -8.813  12.266  71.763  1.00  0.00    18.456 C  
HETATM    2  O   UNL     1      -9.719  12.441  70.668  1.00  0.00     4.880 OA 
ENDROOT
BRANCH   2   3
HETATM    3  C   UNL     1      -9.407  11.677  69.586  1.00  0.00     1.274 C  
HETATM    4  O   UNL     1      -9.608  12.013  68.429  1.00  0.00    -0.204 OA 
BRANCH   3   5
HETATM    5  C   UNL     1      -8.791  10.390  70.007  1.00  0.00     0.270 C  
HETATM    6  C   UNL     1      -7.688  10.365  70.795  1.00  0.00     1.322 C  
HETATM    7  N   UNL     1      -7.180   9.150  71.221  1.00  0.00    -0.257 NA 
HETATM    8  C   UNL     1      -6.881  11.544  71.287  1.00  0.00     3.247 C  
HETATM    9  C   UNL     1      -7.584   7.914  70.765  1.00  0.00    -0.078 C  
HETATM   10  C   UNL     1      -6.783   6.742  71.289  1.00  0.00    -0.057 C  
HETATM   11  C   UNL     1      -8.637   7.823  69.916  1.00  0.00    -0.137 C  
HETATM   12  C   UNL     1      -9.433   9.074  69.515  1.00  0.00    -0.164 C  
BRANCH  11  13
HETATM   13  C   UNL     1      -8.949   6.490  69.338  1.00  0.00    -0.132 C  
HETATM   14  O   UNL     1      -9.886   6.308  68.575  1.00  0.00    -0.133 OA 
BRANCH  13  15
HETATM   15  O   UNL     1      -8.031   5.557  69.683  1.00  0.00    -0.090 OA 
HETATM   16  C   UNL     1      -6.076   4.679  70.909  1.00  0.00    -0.018 C  
HETATM   17  C   UNL     1      -7.912   5.985  72.078  1.00  0.00    -0.107 C  
HETATM   18  C   UNL     1      -7.107   5.854  70.775  1.00  0.00    -0.071 C  
HETATM   19  C   UNL     1      -6.256   7.119  70.516  1.00  0.00    -0.031 C  
BRANCH  16  20
HETATM   20  N   UNL     1      -6.570   3.316  71.235  1.00  0.00    -0.029 NA 
HETATM   21  C   UNL     1      -5.450   2.387  71.413  1.00  0.00    -0.008 C  
BRANCH  20  22
HETATM   22  C   UNL     1      -7.329   3.324  72.504  1.00  0.00    -0.049 C  
BRANCH  22  23
HETATM   23  C   UNL     1      -7.820   4.689  72.990  1.00  0.00    -0.096 C  
HETATM   24  C   UNL     1      -9.194   5.178  72.462  1.00  0.00    -0.145 C  
HETATM   25  C   UNL     1      -9.306   6.671  72.811  1.00  0.00    -0.149 A  
HETATM   26  C   UNL     1     -10.341   4.271  72.913  1.00  0.00    -0.241 A  
HETATM   27  C   UNL     1      -9.485   7.622  71.796  1.00  0.00    -0.178 A  
HETATM   28  C   UNL     1     -11.040   4.437  74.119  1.00  0.00    -0.057 A  
HETATM   29  C   UNL     1      -9.362   8.989  72.070  1.00  0.00    -0.049 A  
HETATM   30  C   UNL     1     -11.994   3.506  74.539  1.00  0.00     2.680 A  
HETATM   31  C   UNL     1     -12.273   2.388  73.763  1.00  0.00     0.406 A  
HETATM   32  C   UNL     1      -9.076   9.424  73.364  1.00  0.00     3.435 A  
HETATM   33  C   UNL     1      -8.943   8.499  74.391  1.00  0.00     1.203 A  
HETATM   34  C   UNL     1     -11.613   2.209  72.552  1.00  0.00     0.850 A  
HETATM   35  C   UNL     1     -10.664   3.147  72.130  1.00  0.00     0.343 A  
HETATM   36  C   UNL     1      -9.056   7.137  74.117  1.00  0.00    -0.262 A  
ENDBRANCH  22  23
ENDBRANCH  20  22
ENDBRANCH  16  20
ENDBRANCH  13  15
ENDBRANCH  11  13
BRANCH  12  37
HETATM   37  C   UNL     1      -9.691   9.099  68.005  1.00  0.00    -0.177 A  
HETATM   38  O   UNL     1     -12.205   6.324  66.227  1.00  0.00     2.374 OA 
HETATM   39  C   UNL     1     -10.606   8.193  67.433  1.00  0.00    -0.325 A  
HETATM   40  O   UNL     1     -11.799   7.125  64.226  1.00  0.00    14.501 OA 
HETATM   41  C   UNL     1      -9.213   9.962  65.784  1.00  0.00    -0.228 A  
HETATM   42  C   UNL     1     -10.773   8.141  66.044  1.00  0.00     1.826 A  
HETATM   43  N   UNL     1     -11.659   7.126  65.458  1.00  0.00     6.016 N  
HETATM   44  C   UNL     1     -10.080   9.027  65.215  1.00  0.00     0.808 A  
HETATM   45  C   UNL     1      -9.015   9.994  67.167  1.00  0.00    -0.146 A  
ENDBRANCH  12  37
ENDBRANCH   3   5
ENDBRANCH   2   3
TORSDOF 8
ENDMDL
MODEL      337
REMARK 921   NORMALIZED FREE ENERGY PREDICTED BY IDOCK:  107.81 KCAL/MOL
REMARK 922        TOTAL FREE ENERGY PREDICTED BY IDOCK:  156.32 KCAL/MOL
REMARK 923 INTER-LIGAND FREE ENERGY PREDICTED BY IDOCK:   74.37 KCAL/MOL
REMARK 924 INTRA-LIGAND FREE ENERGY PREDICTED BY IDOCK:   81.96 KCAL/MOL
REMARK 927      BINDING AFFINITY PREDICTED BY RF-SCORE:    0.00 PKD
ROOT
HETATM    1  C   UNL     1      -8.817  12.269  71.764  1.00  0.00    18.456 C  
HETATM    2  O   UNL     1      -9.723  12.472  70.675  1.00  0.00     4.970 OA 
ENDROOT
BRANCH   2   3
HETATM    3  C   UNL     1      -9.433  11.710  69.586  1.00  0.00     1.217 C  
HETATM    4  O   UNL     1      -9.615  12.065  68.432  1.00  0.00    -0.204 OA 
BRANCH   3   5
HETATM    5  C   UNL     1      -8.865  10.397  69.995  1.00  0.00     0.270 C  
HETATM    6  C   UNL     1      -8.317  10.222  71.223  1.00  0.00     2.858 C  
HETATM    7  N   UNL     1      -7.858   8.971  71.594  1.00  0.00    -0.341 NA 
HETATM    8  C   UNL     1      -8.109  11.265  72.296  1.00  0.00    13.476 C  
HETATM    9  C   UNL     1      -7.730   7.887  70.751  1.00  0.00    -0.083 C  
HETATM   10  C   UNL     1      -7.080   6.667  71.367  1.00  0.00    -0.076 C  
HETATM   11  C   UNL     1      -8.184   7.970  69.477  1.00  0.00    -0.122 C  
HETATM   12  C   UNL     1      -8.906   9.232  68.981  1.00  0.00    -0.136 C  
BRANCH  11  13
HETATM   13  C   UNL     1      -7.900   6.834  68.563  1.00  0.00    -0.118 C  
HETATM   14  O   UNL     1      -8.275   6.816  67.401  1.00  0.00    -0.119 OA 
BRANCH  13  15
HETATM   15  O   UNL     1      -7.114   5.897  69.144  1.00  0.00    -0.065 OA 
HETATM   16  C   UNL     1      -5.893   4.835  71.010  1.00  0.00    -0.017 C  
HETATM   17  C   UNL     1      -8.276   5.670  71.273  1.00  0.00    -0.125 C  
HETATM   18  C   UNL     1      -6.925   5.941  70.592  1.00  0.00    -0.062 C  
HETATM   19  C   UNL     1      -6.314   7.277  71.078  1.00  0.00    -0.036 C  
BRANCH  16  20
HETATM   20  N   UNL     1      -6.216   3.409  70.746  1.00  0.00    -0.018 NA 
HETATM   21  C   UNL     1      -5.182   2.531  71.305  1.00  0.00    -0.004 C  
BRANCH  20  22
HETATM   22  C   UNL     1      -7.493   3.033  71.391  1.00  0.00    -0.040 C  
BRANCH  22  23
HETATM   23  C   UNL     1      -8.405   4.189  71.808  1.00  0.00    -0.099 C  
HETATM   24  C   UNL     1      -9.389   4.736  70.742  1.00  0.00    -0.210 C  
HETATM   25  C   UNL     1      -9.937   6.070  71.276  1.00  0.00    -0.223 A  
HETATM   26  C   UNL     1     -10.417   3.686  70.312  1.00  0.00     1.331 A  
HETATM   27  C   UNL     1      -9.753   7.252  70.544  1.00  0.00    -0.176 A  
HETATM   28  C   UNL     1     -11.644   3.483  70.962  1.00  0.00     5.826 A  
HETATM   29  C   UNL     1     -10.041   8.496  71.117  1.00  0.00    -0.263 A  
HETATM   30  C   UNL     1     -12.487   2.427  70.605  1.00  0.00    13.841 A  
HETATM   31  C   UNL     1     -12.126   1.552  69.589  1.00  0.00    10.138 A  
HETATM   32  C   UNL     1     -10.531   8.576  72.420  1.00  0.00    -0.367 A  
HETATM   33  C   UNL     1     -10.764   7.413  73.142  1.00  0.00    -0.436 A  
HETATM   34  C   UNL     1     -10.926   1.742  68.912  1.00  0.00     4.659 A  
HETATM   35  C   UNL     1     -10.087   2.804  69.266  1.00  0.00     0.921 A  
HETATM   36  C   UNL     1     -10.470   6.174  72.577  1.00  0.00    -0.228 A  
ENDBRANCH  22  23
ENDBRANCH  20  22
ENDBRANCH  16  20
ENDBRANCH  13  15
ENDBRANCH  11  13
BRANCH  12  37
HETATM   37  C   UNL     1      -8.383   9.659  67.606  1.00  0.00    -0.121 A  
HETATM   38  O   UNL     1      -9.094   7.344  64.243  1.00  0.00     0.885 OA 
HETATM   39  C   UNL     1      -8.699   8.895  66.466  1.00  0.00    -0.145 A  
HETATM   40  O   UNL     1      -7.916   8.689  62.973  1.00  0.00    -0.145 OA 
HETATM   41  C   UNL     1      -7.047  11.130  66.206  1.00  0.00    -0.049 A  
HETATM   42  C   UNL     1      -8.143   9.220  65.222  1.00  0.00    -0.121 A  
HETATM   43  N   UNL     1      -8.407   8.358  64.062  1.00  0.00    -0.113 N  
HETATM   44  C   UNL     1      -7.319  10.340  65.088  1.00  0.00    -0.127 A  
HETATM   45  C   UNL     1      -7.570  10.789  67.457  1.00  0.00    -0.094 A  
ENDBRANCH  12  37
ENDBRANCH   3   5
ENDBRANCH   2   3
TORSDOF 8
ENDMDL
