MODEL        1
REMARK 921   NORMALIZED FREE ENERGY PREDICTED BY IDOCK:   -7.75 KCAL/MOL
REMARK 922        TOTAL FREE ENERGY PREDICTED BY IDOCK:  -10.44 KCAL/MOL
REMARK 923 INTER-LIGAND FREE ENERGY PREDICTED BY IDOCK:   -9.56 KCAL/MOL
REMARK 924 INTRA-LIGAND FREE ENERGY PREDICTED BY IDOCK:   -0.88 KCAL/MOL
REMARK 927      BINDING AFFINITY PREDICTED BY RF-SCORE:    0.00 PKD
ROOT
HETATM    1  O   UNL     1     -12.912  11.977  63.367  1.00  0.00    -0.772 OA 
HETATM    2  C   UNL     1     -11.586  11.973  63.649  1.00  0.00    -0.486 C  
HETATM    3  O   UNL     1     -10.849  11.095  63.238  1.00  0.00    -0.283 OA 
HETATM    4  C   UNL     1     -11.095  13.176  64.437  1.00  0.00    -0.381 C  
ENDROOT
BRANCH   4   5
HETATM    5  S   UNL     1     -12.419  13.925  65.471  1.00  0.00    -0.512 SA 
BRANCH   5   6
HETATM    6  C   UNL     1     -11.438  14.842  66.577  1.00  0.00    -0.327 A  
HETATM    7  N   UNL     1     -10.857  15.958  66.196  1.00  0.00    -0.260 NA 
HETATM    8  N   UNL     1     -10.046  16.371  67.205  1.00  0.00    -0.264 NA 
HETATM    9  C   UNL     1     -10.137  15.491  68.179  1.00  0.00    -0.218 A  
HETATM   10  N   UNL     1     -11.176  14.593  67.928  1.00  0.00    -0.291 NA 
HETATM   11 BR   UNL     1      -8.793  15.405  69.494  1.00  0.00    -0.133 Br 
BRANCH  10  12
HETATM   12  C   UNL     1     -11.700  13.601  68.832  1.00  0.00    -0.338 A  
HETATM   13  C   UNL     1     -11.469  12.253  68.553  1.00  0.00    -0.349 A  
HETATM   14  C   UNL     1     -11.813  11.266  69.474  1.00  0.00    -0.427 A  
HETATM   15  C   UNL     1     -12.347  11.569  70.734  1.00  0.00    -0.472 A  
HETATM   16  C   UNL     1     -13.252  13.289  72.243  1.00  0.00    -0.567 A  
HETATM   17  C   UNL     1     -12.657  12.928  71.011  1.00  0.00    -0.376 A  
HETATM   18  C   UNL     1     -13.606  14.601  72.545  1.00  0.00    -0.572 A  
HETATM   19  C   UNL     1     -12.390  13.952  70.045  1.00  0.00    -0.378 A  
HETATM   20  C   UNL     1     -12.886  15.251  70.349  1.00  0.00    -0.360 A  
HETATM   21  C   UNL     1     -13.447  15.580  71.586  1.00  0.00    -0.584 A  
BRANCH  15  22
HETATM   22  C   UNL     1     -12.605  10.405  71.685  1.00  0.00    -0.521 C  
HETATM   23  C   UNL     1     -13.710   9.425  71.331  1.00  0.00    -0.309 C  
HETATM   24  C   UNL     1     -12.290   8.972  71.335  1.00  0.00    -0.380 C  
ENDBRANCH  15  22
ENDBRANCH  10  12
ENDBRANCH   5   6
ENDBRANCH   4   5
TORSDOF 4
ENDMDL
MODEL        2
REMARK 921   NORMALIZED FREE ENERGY PREDICTED BY IDOCK:   -7.45 KCAL/MOL
REMARK 922        TOTAL FREE ENERGY PREDICTED BY IDOCK:  -10.07 KCAL/MOL
REMARK 923 INTER-LIGAND FREE ENERGY PREDICTED BY IDOCK:   -9.13 KCAL/MOL
REMARK 924 INTRA-LIGAND FREE ENERGY PREDICTED BY IDOCK:   -0.94 KCAL/MOL
REMARK 927      BINDING AFFINITY PREDICTED BY RF-SCORE:    0.00 PKD
ROOT
HETATM    1  O   UNL     1     -12.572  13.778  63.124  1.00  0.00    -0.793 OA 
HETATM    2  C   UNL     1     -12.753  12.568  63.708  1.00  0.00    -0.311 C  
HETATM    3  O   UNL     1     -13.178  11.614  63.082  1.00  0.00    -0.471 OA 
HETATM    4  C   UNL     1     -12.313  12.486  65.161  1.00  0.00    -0.429 C  
ENDROOT
BRANCH   4   5
HETATM    5  S   UNL     1     -12.381  14.117  66.007  1.00  0.00    -0.397 SA 
BRANCH   5   6
HETATM    6  C   UNL     1     -10.836  14.092  66.806  1.00  0.00    -0.296 A  
HETATM    7  N   UNL     1      -9.827  14.796  66.344  1.00  0.00    -0.266 NA 
HETATM    8  N   UNL     1      -8.724  14.469  67.069  1.00  0.00    -0.231 NA 
HETATM    9  C   UNL     1      -9.079  13.562  67.953  1.00  0.00    -0.204 A  
HETATM   10  N   UNL     1     -10.469  13.428  67.982  1.00  0.00    -0.233 NA 
HETATM   11 BR   UNL     1      -7.771  12.477  68.761  1.00  0.00     0.074 Br 
BRANCH  10  12
HETATM   12  C   UNL     1     -11.246  12.671  68.930  1.00  0.00    -0.280 A  
HETATM   13  C   UNL     1     -11.169  11.277  68.898  1.00  0.00    -0.315 A  
HETATM   14  C   UNL     1     -11.771  10.508  69.890  1.00  0.00    -0.372 A  
HETATM   15  C   UNL     1     -12.429  11.081  70.988  1.00  0.00    -0.512 A  
HETATM   16  C   UNL     1     -13.288  13.124  72.055  1.00  0.00    -0.587 A  
HETATM   17  C   UNL     1     -12.582  12.493  71.003  1.00  0.00    -0.350 A  
HETATM   18  C   UNL     1     -13.495  14.500  72.095  1.00  0.00    -0.494 A  
HETATM   19  C   UNL     1     -12.043  13.300  69.949  1.00  0.00    -0.377 A  
HETATM   20  C   UNL     1     -12.391  14.680  69.970  1.00  0.00    -0.365 A  
HETATM   21  C   UNL     1     -13.068  15.276  71.037  1.00  0.00    -0.544 A  
BRANCH  15  22
HETATM   22  C   UNL     1     -12.976  10.133  72.050  1.00  0.00    -0.508 C  
HETATM   23  C   UNL     1     -13.903   9.016  71.601  1.00  0.00    -0.422 C  
HETATM   24  C   UNL     1     -12.559   8.686  72.155  1.00  0.00    -0.451 C  
ENDBRANCH  15  22
ENDBRANCH  10  12
ENDBRANCH   5   6
ENDBRANCH   4   5
TORSDOF 4
ENDMDL
MODEL        3
REMARK 921   NORMALIZED FREE ENERGY PREDICTED BY IDOCK:   -7.28 KCAL/MOL
REMARK 922        TOTAL FREE ENERGY PREDICTED BY IDOCK:   -9.86 KCAL/MOL
REMARK 923 INTER-LIGAND FREE ENERGY PREDICTED BY IDOCK:   -8.86 KCAL/MOL
REMARK 924 INTRA-LIGAND FREE ENERGY PREDICTED BY IDOCK:   -0.99 KCAL/MOL
REMARK 927      BINDING AFFINITY PREDICTED BY RF-SCORE:    0.00 PKD
ROOT
HETATM    1  O   UNL     1     -10.715  11.185  65.095  1.00  0.00    -0.273 OA 
HETATM    2  C   UNL     1     -10.770  11.810  63.893  1.00  0.00    -0.399 C  
HETATM    3  O   UNL     1      -9.968  11.566  63.009  1.00  0.00    -0.365 OA 
HETATM    4  C   UNL     1     -11.942  12.762  63.720  1.00  0.00    -0.510 C  
ENDROOT
BRANCH   4   5
HETATM    5  S   UNL     1     -12.536  13.442  65.321  1.00  0.00    -0.471 SA 
BRANCH   5   6
HETATM    6  C   UNL     1     -11.199  14.486  65.705  1.00  0.00    -0.335 A  
HETATM    7  N   UNL     1     -10.495  15.057  64.753  1.00  0.00    -0.326 NA 
HETATM    8  N   UNL     1      -9.438  15.684  65.335  1.00  0.00    -0.269 NA 
HETATM    9  C   UNL     1      -9.510  15.473  66.631  1.00  0.00    -0.259 A  
HETATM   10  N   UNL     1     -10.734  14.889  66.962  1.00  0.00    -0.300 NA 
HETATM   11 BR   UNL     1      -7.981  15.700  67.705  1.00  0.00    -0.187 Br 
BRANCH  10  12
HETATM   12  C   UNL     1     -11.258  14.667  68.286  1.00  0.00    -0.285 A  
HETATM   13  C   UNL     1     -11.806  15.748  68.979  1.00  0.00    -0.367 A  
HETATM   14  C   UNL     1     -12.467  15.555  70.189  1.00  0.00    -0.351 A  
HETATM   15  C   UNL     1     -12.666  14.282  70.742  1.00  0.00    -0.419 A  
HETATM   16  C   UNL     1     -12.170  11.875  70.634  1.00  0.00    -0.424 A  
HETATM   17  C   UNL     1     -12.055  13.177  70.092  1.00  0.00    -0.392 A  
HETATM   18  C   UNL     1     -11.559  10.767  70.052  1.00  0.00    -0.417 A  
HETATM   19  C   UNL     1     -11.298  13.362  68.889  1.00  0.00    -0.331 A  
HETATM   20  C   UNL     1     -10.590  12.224  68.408  1.00  0.00    -0.250 A  
HETATM   21  C   UNL     1     -10.746  10.946  68.952  1.00  0.00    -0.252 A  
BRANCH  15  22
HETATM   22  C   UNL     1     -13.477  14.195  72.031  1.00  0.00    -0.518 C  
HETATM   23  C   UNL     1     -12.907  14.848  73.278  1.00  0.00    -0.646 C  
HETATM   24  C   UNL     1     -14.152  15.389  72.660  1.00  0.00    -0.519 C  
ENDBRANCH  15  22
ENDBRANCH  10  12
ENDBRANCH   5   6
ENDBRANCH   4   5
TORSDOF 4
ENDMDL
MODEL        4
REMARK 921   NORMALIZED FREE ENERGY PREDICTED BY IDOCK:   -7.19 KCAL/MOL
REMARK 922        TOTAL FREE ENERGY PREDICTED BY IDOCK:   -9.76 KCAL/MOL
REMARK 923 INTER-LIGAND FREE ENERGY PREDICTED BY IDOCK:   -9.11 KCAL/MOL
REMARK 924 INTRA-LIGAND FREE ENERGY PREDICTED BY IDOCK:   -0.65 KCAL/MOL
REMARK 927      BINDING AFFINITY PREDICTED BY RF-SCORE:    0.00 PKD
ROOT
HETATM    1  O   UNL     1     -12.767  14.086  63.393  1.00  0.00    -0.796 OA 
HETATM    2  C   UNL     1     -12.205  14.897  64.321  1.00  0.00    -0.344 C  
HETATM    3  O   UNL     1     -11.833  16.024  64.044  1.00  0.00    -0.762 OA 
HETATM    4  C   UNL     1     -12.154  14.322  65.727  1.00  0.00    -0.405 C  
ENDROOT
BRANCH   4   5
HETATM    5  S   UNL     1     -12.116  12.484  65.732  1.00  0.00    -0.276 SA 
BRANCH   5   6
HETATM    6  C   UNL     1     -10.542  12.229  66.426  1.00  0.00    -0.242 A  
HETATM    7  N   UNL     1      -9.493  12.026  65.661  1.00  0.00    -0.188 NA 
HETATM    8  N   UNL     1      -8.444  11.711  66.466  1.00  0.00    -0.166 NA 
HETATM    9  C   UNL     1      -8.876  11.716  67.709  1.00  0.00    -0.159 A  
HETATM   10  N   UNL     1     -10.165  12.248  67.773  1.00  0.00    -0.199 NA 
HETATM   11 BR   UNL     1      -7.899  10.819  69.044  1.00  0.00    -0.130 Br 
BRANCH  10  12
HETATM   12  C   UNL     1     -10.905  12.579  68.964  1.00  0.00    -0.137 A  
HETATM   13  C   UNL     1     -11.158  13.923  69.244  1.00  0.00    -0.261 A  
HETATM   14  C   UNL     1     -12.002  14.286  70.291  1.00  0.00    -0.398 A  
HETATM   15  C   UNL     1     -12.679  13.338  71.072  1.00  0.00    -0.374 A  
HETATM   16  C   UNL     1     -12.988  10.967  71.648  1.00  0.00    -0.569 A  
HETATM   17  C   UNL     1     -12.382  11.967  70.852  1.00  0.00    -0.400 A  
HETATM   18  C   UNL     1     -12.701   9.613  71.494  1.00  0.00    -0.480 A  
HETATM   19  C   UNL     1     -11.451  11.573  69.836  1.00  0.00    -0.340 A  
HETATM   20  C   UNL     1     -11.097  10.194  69.805  1.00  0.00    -0.328 A  
HETATM   21  C   UNL     1     -11.735   9.228  70.589  1.00  0.00    -0.276 A  
BRANCH  15  22
HETATM   22  C   UNL     1     -13.639  13.863  72.134  1.00  0.00    -0.599 C  
HETATM   23  C   UNL     1     -13.121  14.898  73.117  1.00  0.00    -0.615 C  
HETATM   24  C   UNL     1     -14.177  15.273  72.133  1.00  0.00    -0.667 C  
ENDBRANCH  15  22
ENDBRANCH  10  12
ENDBRANCH   5   6
ENDBRANCH   4   5
TORSDOF 4
ENDMDL
MODEL        5
REMARK 921   NORMALIZED FREE ENERGY PREDICTED BY IDOCK:   -7.07 KCAL/MOL
REMARK 922        TOTAL FREE ENERGY PREDICTED BY IDOCK:   -9.60 KCAL/MOL
REMARK 923 INTER-LIGAND FREE ENERGY PREDICTED BY IDOCK:   -8.64 KCAL/MOL
REMARK 924 INTRA-LIGAND FREE ENERGY PREDICTED BY IDOCK:   -0.96 KCAL/MOL
REMARK 927      BINDING AFFINITY PREDICTED BY RF-SCORE:    0.00 PKD
ROOT
HETATM    1  O   UNL     1     -12.578  13.860  63.264  1.00  0.00    -0.824 OA 
HETATM    2  C   UNL     1     -12.406  14.807  64.218  1.00  0.00    -0.320 C  
HETATM    3  O   UNL     1     -12.340  15.991  63.938  1.00  0.00    -0.855 OA 
HETATM    4  C   UNL     1     -12.383  14.282  65.644  1.00  0.00    -0.405 C  
ENDROOT
BRANCH   4   5
HETATM    5  S   UNL     1     -11.819  12.535  65.740  1.00  0.00    -0.417 SA 
BRANCH   5   6
HETATM    6  C   UNL     1     -10.377  12.748  66.688  1.00  0.00    -0.242 A  
HETATM    7  N   UNL     1      -9.417  13.549  66.282  1.00  0.00    -0.228 NA 
HETATM    8  N   UNL     1      -8.365  13.404  67.132  1.00  0.00    -0.172 NA 
HETATM    9  C   UNL     1      -8.700  12.507  68.035  1.00  0.00    -0.186 A  
HETATM   10  N   UNL     1     -10.058  12.199  67.934  1.00  0.00    -0.192 NA 
HETATM   11 BR   UNL     1      -7.363  11.641  69.036  1.00  0.00    -0.029 Br 
BRANCH  10  12
HETATM   12  C   UNL     1     -10.834  11.400  68.849  1.00  0.00    -0.215 A  
HETATM   13  C   UNL     1     -10.680  10.013  68.822  1.00  0.00    -0.250 A  
HETATM   14  C   UNL     1     -11.283   9.211  69.788  1.00  0.00    -0.073 A  
HETATM   15  C   UNL     1     -12.018   9.747  70.855  1.00  0.00    -0.413 A  
HETATM   16  C   UNL     1     -13.033  11.740  71.880  1.00  0.00    -0.435 A  
HETATM   17  C   UNL     1     -12.249  11.148  70.862  1.00  0.00    -0.468 A  
HETATM   18  C   UNL     1     -13.316  13.103  71.908  1.00  0.00    -0.546 A  
HETATM   19  C   UNL     1     -11.709  11.984  69.831  1.00  0.00    -0.374 A  
HETATM   20  C   UNL     1     -12.132  13.343  69.834  1.00  0.00    -0.389 A  
HETATM   21  C   UNL     1     -12.886  13.902  70.869  1.00  0.00    -0.370 A  
BRANCH  15  22
HETATM   22  C   UNL     1     -12.560   8.770  71.894  1.00  0.00    -0.428 C  
HETATM   23  C   UNL     1     -12.496   7.285  71.580  1.00  0.00    -0.408 C  
HETATM   24  C   UNL     1     -11.675   7.844  72.692  1.00  0.00    -0.398 C  
ENDBRANCH  15  22
ENDBRANCH  10  12
ENDBRANCH   5   6
ENDBRANCH   4   5
TORSDOF 4
ENDMDL
MODEL        6
REMARK 921   NORMALIZED FREE ENERGY PREDICTED BY IDOCK:   -7.05 KCAL/MOL
REMARK 922        TOTAL FREE ENERGY PREDICTED BY IDOCK:   -9.58 KCAL/MOL
REMARK 923 INTER-LIGAND FREE ENERGY PREDICTED BY IDOCK:   -8.72 KCAL/MOL
REMARK 924 INTRA-LIGAND FREE ENERGY PREDICTED BY IDOCK:   -0.85 KCAL/MOL
REMARK 927      BINDING AFFINITY PREDICTED BY RF-SCORE:    0.00 PKD
ROOT
HETATM    1  O   UNL     1     -12.777  14.679  63.482  1.00  0.00    -0.670 OA 
HETATM    2  C   UNL     1     -12.246  13.471  63.791  1.00  0.00    -0.388 C  
HETATM    3  O   UNL     1     -12.845  12.434  63.569  1.00  0.00    -0.749 OA 
HETATM    4  C   UNL     1     -10.834  13.517  64.352  1.00  0.00    -0.389 C  
ENDROOT
BRANCH   4   5
HETATM    5  S   UNL     1     -10.466  15.109  65.196  1.00  0.00    -0.395 SA 
BRANCH   5   6
HETATM    6  C   UNL     1     -10.977  14.705  66.809  1.00  0.00    -0.323 A  
HETATM    7  N   UNL     1     -11.812  13.713  67.022  1.00  0.00    -0.388 NA 
HETATM    8  N   UNL     1     -12.147  13.725  68.340  1.00  0.00    -0.353 NA 
HETATM    9  C   UNL     1     -11.519  14.734  68.904  1.00  0.00    -0.297 A  
HETATM   10  N   UNL     1     -10.583  15.279  68.022  1.00  0.00    -0.255 NA 
HETATM   11 BR   UNL     1     -12.124  15.413  70.551  1.00  0.00    -0.454 Br 
BRANCH  10  12
HETATM   12  C   UNL     1      -9.586  16.275  68.325  1.00  0.00    -0.218 A  
HETATM   13  C   UNL     1      -8.430  15.881  69.000  1.00  0.00    -0.242 A  
HETATM   14  C   UNL     1      -7.370  16.768  69.172  1.00  0.00    -0.213 A  
HETATM   15  C   UNL     1      -7.382  18.064  68.639  1.00  0.00    -0.286 A  
HETATM   16  C   UNL     1      -8.669  19.828  67.506  1.00  0.00    -0.388 A  
HETATM   17  C   UNL     1      -8.575  18.510  68.012  1.00  0.00    -0.310 A  
HETATM   18  C   UNL     1      -9.829  20.322  66.916  1.00  0.00    -0.597 A  
HETATM   19  C   UNL     1      -9.710  17.643  67.897  1.00  0.00    -0.295 A  
HETATM   20  C   UNL     1     -10.908  18.233  67.404  1.00  0.00    -0.281 A  
HETATM   21  C   UNL     1     -10.959  19.531  66.888  1.00  0.00    -0.422 A  
BRANCH  15  22
HETATM   22  C   UNL     1      -6.127  18.911  68.826  1.00  0.00    -0.239 C  
HETATM   23  C   UNL     1      -6.099  19.903  69.976  1.00  0.00    -0.368 C  
HETATM   24  C   UNL     1      -5.178  18.730  69.985  1.00  0.00    -0.204 C  
ENDBRANCH  15  22
ENDBRANCH  10  12
ENDBRANCH   5   6
ENDBRANCH   4   5
TORSDOF 4
ENDMDL
MODEL        7
REMARK 921   NORMALIZED FREE ENERGY PREDICTED BY IDOCK:   -7.00 KCAL/MOL
REMARK 922        TOTAL FREE ENERGY PREDICTED BY IDOCK:   -9.52 KCAL/MOL
REMARK 923 INTER-LIGAND FREE ENERGY PREDICTED BY IDOCK:   -8.73 KCAL/MOL
REMARK 924 INTRA-LIGAND FREE ENERGY PREDICTED BY IDOCK:   -0.78 KCAL/MOL
REMARK 927      BINDING AFFINITY PREDICTED BY RF-SCORE:    0.00 PKD
ROOT
HETATM    1  O   UNL     1     -10.387  18.047  69.169  1.00  0.00    -0.322 OA 
HETATM    2  C   UNL     1      -9.292  18.104  68.373  1.00  0.00    -0.309 C  
HETATM    3  O   UNL     1      -9.127  19.011  67.577  1.00  0.00    -0.285 OA 
HETATM    4  C   UNL     1      -8.269  17.006  68.612  1.00  0.00    -0.261 C  
ENDROOT
BRANCH   4   5
HETATM    5  S   UNL     1      -9.027  15.479  69.301  1.00  0.00    -0.270 SA 
BRANCH   5   6
HETATM    6  C   UNL     1      -9.728  14.825  67.849  1.00  0.00    -0.211 A  
HETATM    7  N   UNL     1      -9.287  15.188  66.666  1.00  0.00    -0.249 NA 
HETATM    8  N   UNL     1     -10.108  14.641  65.730  1.00  0.00    -0.322 NA 
HETATM    9  C   UNL     1     -11.042  13.964  66.361  1.00  0.00    -0.309 A  
HETATM   10  N   UNL     1     -10.736  13.863  67.719  1.00  0.00    -0.244 NA 
HETATM   11 BR   UNL     1     -12.644  13.527  65.476  1.00  0.00    -0.493 Br 
BRANCH  10  12
HETATM   12  C   UNL     1     -11.416  13.059  68.703  1.00  0.00    -0.307 A  
HETATM   13  C   UNL     1     -11.313  11.669  68.618  1.00  0.00    -0.326 A  
HETATM   14  C   UNL     1     -11.816  10.855  69.631  1.00  0.00    -0.416 A  
HETATM   15  C   UNL     1     -12.391  11.378  70.797  1.00  0.00    -0.483 A  
HETATM   16  C   UNL     1     -13.200  13.367  71.999  1.00  0.00    -0.531 A  
HETATM   17  C   UNL     1     -12.571  12.785  70.873  1.00  0.00    -0.342 A  
HETATM   18  C   UNL     1     -13.431  14.736  72.101  1.00  0.00    -0.491 A  
HETATM   19  C   UNL     1     -12.139  13.637  69.805  1.00  0.00    -0.396 A  
HETATM   20  C   UNL     1     -12.512  15.007  69.900  1.00  0.00    -0.269 A  
HETATM   21  C   UNL     1     -13.110  15.554  71.038  1.00  0.00    -0.551 A  
BRANCH  15  22
HETATM   22  C   UNL     1     -12.829  10.385  71.869  1.00  0.00    -0.519 C  
HETATM   23  C   UNL     1     -13.780   9.272  71.466  1.00  0.00    -0.382 C  
HETATM   24  C   UNL     1     -12.387   8.942  71.883  1.00  0.00    -0.445 C  
ENDBRANCH  15  22
ENDBRANCH  10  12
ENDBRANCH   5   6
ENDBRANCH   4   5
TORSDOF 4
ENDMDL
MODEL        8
REMARK 921   NORMALIZED FREE ENERGY PREDICTED BY IDOCK:   -6.81 KCAL/MOL
REMARK 922        TOTAL FREE ENERGY PREDICTED BY IDOCK:   -9.28 KCAL/MOL
REMARK 923 INTER-LIGAND FREE ENERGY PREDICTED BY IDOCK:   -8.03 KCAL/MOL
REMARK 924 INTRA-LIGAND FREE ENERGY PREDICTED BY IDOCK:   -1.26 KCAL/MOL
REMARK 927      BINDING AFFINITY PREDICTED BY RF-SCORE:    0.00 PKD
ROOT
HETATM    1  O   UNL     1     -13.229  11.952  63.924  1.00  0.00    -0.626 OA 
HETATM    2  C   UNL     1     -11.892  11.988  63.701  1.00  0.00    -0.506 C  
HETATM    3  O   UNL     1     -11.247  10.970  63.523  1.00  0.00    -0.125 OA 
HETATM    4  C   UNL     1     -11.295  13.382  63.612  1.00  0.00    -0.060 C  
ENDROOT
BRANCH   4   5
HETATM    5  S   UNL     1     -12.267  14.623  64.558  1.00  0.00    -0.374 SA 
BRANCH   5   6
HETATM    6  C   UNL     1     -10.986  15.352  65.481  1.00  0.00    -0.343 A  
HETATM    7  N   UNL     1     -10.443  16.486  65.101  1.00  0.00    -0.667 NA 
HETATM    8  N   UNL     1      -9.382  16.735  65.914  1.00  0.00    -0.519 NA 
HETATM    9  C   UNL     1      -9.290  15.739  66.769  1.00  0.00    -0.242 A  
HETATM   10  N   UNL     1     -10.417  14.920  66.684  1.00  0.00    -0.286 NA 
HETATM   11 BR   UNL     1      -7.674  15.434  67.683  1.00  0.00    -0.200 Br 
BRANCH  10  12
HETATM   12  C   UNL     1     -10.768  13.836  67.568  1.00  0.00    -0.256 A  
HETATM   13  C   UNL     1     -11.592  14.105  68.662  1.00  0.00    -0.352 A  
HETATM   14  C   UNL     1     -12.088  13.069  69.450  1.00  0.00    -0.267 A  
HETATM   15  C   UNL     1     -11.840  11.720  69.160  1.00  0.00    -0.389 A  
HETATM   16  C   UNL     1     -10.611  10.086  67.792  1.00  0.00    -0.311 A  
HETATM   17  C   UNL     1     -10.947  11.427  68.095  1.00  0.00    -0.284 A  
HETATM   18  C   UNL     1      -9.713   9.751  66.783  1.00  0.00    -0.248 A  
HETATM   19  C   UNL     1     -10.356  12.479  67.323  1.00  0.00    -0.228 A  
HETATM   20  C   UNL     1      -9.351  12.092  66.392  1.00  0.00    -0.225 A  
HETATM   21  C   UNL     1      -9.062  10.757  66.098  1.00  0.00    -0.193 A  
BRANCH  15  22
HETATM   22  C   UNL     1     -12.508  10.677  70.050  1.00  0.00    -0.294 C  
HETATM   23  C   UNL     1     -11.686  10.061  71.168  1.00  0.00    -0.472 C  
HETATM   24  C   UNL     1     -12.852  10.930  71.497  1.00  0.00    -0.560 C  
ENDBRANCH  15  22
ENDBRANCH  10  12
ENDBRANCH   5   6
ENDBRANCH   4   5
TORSDOF 4
ENDMDL
MODEL        9
REMARK 921   NORMALIZED FREE ENERGY PREDICTED BY IDOCK:   -6.72 KCAL/MOL
REMARK 922        TOTAL FREE ENERGY PREDICTED BY IDOCK:   -9.17 KCAL/MOL
REMARK 923 INTER-LIGAND FREE ENERGY PREDICTED BY IDOCK:   -7.89 KCAL/MOL
REMARK 924 INTRA-LIGAND FREE ENERGY PREDICTED BY IDOCK:   -1.27 KCAL/MOL
REMARK 927      BINDING AFFINITY PREDICTED BY RF-SCORE:    0.00 PKD
ROOT
HETATM    1  O   UNL     1     -13.063  14.128  65.613  1.00  0.00    -0.617 OA 
HETATM    2  C   UNL     1     -12.285  14.408  64.539  1.00  0.00    -0.463 C  
HETATM    3  O   UNL     1     -12.481  15.392  63.848  1.00  0.00    -0.695 OA 
HETATM    4  C   UNL     1     -11.122  13.454  64.325  1.00  0.00    -0.373 C  
ENDROOT
BRANCH   4   5
HETATM    5  S   UNL     1     -11.449  11.782  65.016  1.00  0.00    -0.123 SA 
BRANCH   5   6
HETATM    6  C   UNL     1     -10.026  11.592  65.998  1.00  0.00    -0.224 A  
HETATM    7  N   UNL     1      -8.925  11.079  65.496  1.00  0.00    -0.203 NA 
HETATM    8  N   UNL     1      -8.040  10.913  66.515  1.00  0.00    -0.149 NA 
HETATM    9  C   UNL     1      -8.623  11.316  67.623  1.00  0.00    -0.124 A  
HETATM   10  N   UNL     1      -9.826  11.964  67.332  1.00  0.00    -0.182 NA 
HETATM   11 BR   UNL     1      -7.957  10.756  69.291  1.00  0.00    -0.066 Br 
BRANCH  10  12
HETATM   12  C   UNL     1     -10.661  12.692  68.252  1.00  0.00    -0.237 A  
HETATM   13  C   UNL     1     -11.533  11.978  69.076  1.00  0.00    -0.357 A  
HETATM   14  C   UNL     1     -12.241  12.619  70.089  1.00  0.00    -0.310 A  
HETATM   15  C   UNL     1     -12.078  13.982  70.372  1.00  0.00    -0.426 A  
HETATM   16  C   UNL     1     -11.095  16.136  69.701  1.00  0.00    -0.344 A  
HETATM   17  C   UNL     1     -11.252  14.743  69.502  1.00  0.00    -0.305 A  
HETATM   18  C   UNL     1     -10.326  16.929  68.854  1.00  0.00    -0.333 A  
HETATM   19  C   UNL     1     -10.579  14.122  68.400  1.00  0.00    -0.263 A  
HETATM   20  C   UNL     1      -9.912  14.994  67.494  1.00  0.00    -0.226 A  
HETATM   21  C   UNL     1      -9.754  16.361  67.734  1.00  0.00    -0.235 A  
BRANCH  15  22
HETATM   22  C   UNL     1     -12.848  14.549  71.560  1.00  0.00    -0.407 C  
HETATM   23  C   UNL     1     -14.300  14.941  71.348  1.00  0.00    -0.560 C  
HETATM   24  C   UNL     1     -13.963  13.802  72.249  1.00  0.00    -0.672 C  
ENDBRANCH  15  22
ENDBRANCH  10  12
ENDBRANCH   5   6
ENDBRANCH   4   5
TORSDOF 4
ENDMDL
MODEL       10
REMARK 921   NORMALIZED FREE ENERGY PREDICTED BY IDOCK:   -6.69 KCAL/MOL
REMARK 922        TOTAL FREE ENERGY PREDICTED BY IDOCK:   -9.14 KCAL/MOL
REMARK 923 INTER-LIGAND FREE ENERGY PREDICTED BY IDOCK:   -8.05 KCAL/MOL
REMARK 924 INTRA-LIGAND FREE ENERGY PREDICTED BY IDOCK:   -1.09 KCAL/MOL
REMARK 927      BINDING AFFINITY PREDICTED BY RF-SCORE:    0.00 PKD
ROOT
HETATM    1  O   UNL     1     -11.434  12.863  63.835  1.00  0.00    -0.391 OA 
HETATM    2  C   UNL     1     -12.109  13.896  64.396  1.00  0.00    -0.443 C  
HETATM    3  O   UNL     1     -12.549  14.811  63.724  1.00  0.00    -0.806 OA 
HETATM    4  C   UNL     1     -12.334  13.775  65.894  1.00  0.00    -0.476 C  
ENDROOT
BRANCH   4   5
HETATM    5  S   UNL     1     -11.049  12.748  66.715  1.00  0.00    -0.290 SA 
BRANCH   5   6
HETATM    6  C   UNL     1     -11.385  13.138  68.377  1.00  0.00    -0.289 A  
HETATM    7  N   UNL     1     -11.892  12.239  69.191  1.00  0.00    -0.310 NA 
HETATM    8  N   UNL     1     -12.186  12.858  70.364  1.00  0.00    -0.345 NA 
HETATM    9  C   UNL     1     -11.865  14.128  70.240  1.00  0.00    -0.303 A  
HETATM   10  N   UNL     1     -11.148  14.335  69.061  1.00  0.00    -0.250 NA 
HETATM   11 BR   UNL     1     -12.605  15.401  71.413  1.00  0.00    -0.520 Br 
BRANCH  10  12
HETATM   12  C   UNL     1     -10.476  15.545  68.658  1.00  0.00    -0.237 A  
HETATM   13  C   UNL     1     -11.237  16.592  68.137  1.00  0.00    -0.241 A  
HETATM   14  C   UNL     1     -10.661  17.834  67.884  1.00  0.00    -0.389 A  
HETATM   15  C   UNL     1      -9.321  18.115  68.186  1.00  0.00    -0.295 A  
HETATM   16  C   UNL     1      -7.135  17.252  68.915  1.00  0.00    -0.242 A  
HETATM   17  C   UNL     1      -8.509  17.045  68.649  1.00  0.00    -0.262 A  
HETATM   18  C   UNL     1      -6.293  16.226  69.335  1.00  0.00    -0.184 A  
HETATM   19  C   UNL     1      -9.061  15.736  68.837  1.00  0.00    -0.225 A  
HETATM   20  C   UNL     1      -8.135  14.698  69.142  1.00  0.00    -0.078 A  
HETATM   21  C   UNL     1      -6.788  14.942  69.424  1.00  0.00    -0.164 A  
BRANCH  15  22
HETATM   22  C   UNL     1      -8.829  19.537  67.938  1.00  0.00    -0.372 C  
HETATM   23  C   UNL     1      -8.698  20.008  66.500  1.00  0.00    -0.384 C  
HETATM   24  C   UNL     1      -9.716  20.631  67.395  1.00  0.00    -0.552 C  
ENDBRANCH  15  22
ENDBRANCH  10  12
ENDBRANCH   5   6
ENDBRANCH   4   5
TORSDOF 4
ENDMDL
MODEL       11
REMARK 921   NORMALIZED FREE ENERGY PREDICTED BY IDOCK:   -6.62 KCAL/MOL
REMARK 922        TOTAL FREE ENERGY PREDICTED BY IDOCK:   -9.04 KCAL/MOL
REMARK 923 INTER-LIGAND FREE ENERGY PREDICTED BY IDOCK:   -7.62 KCAL/MOL
REMARK 924 INTRA-LIGAND FREE ENERGY PREDICTED BY IDOCK:   -1.42 KCAL/MOL
REMARK 927      BINDING AFFINITY PREDICTED BY RF-SCORE:    0.00 PKD
ROOT
HETATM    1  O   UNL     1      -7.734  13.436  68.180  1.00  0.00    -0.119 OA 
HETATM    2  C   UNL     1      -6.504  13.713  67.680  1.00  0.00    -0.153 C  
HETATM    3  O   UNL     1      -5.855  12.874  67.082  1.00  0.00    -0.339 OA 
HETATM    4  C   UNL     1      -6.051  15.152  67.857  1.00  0.00    -0.154 C  
ENDROOT
BRANCH   4   5
HETATM    5  S   UNL     1      -6.836  15.962  69.309  1.00  0.00    -0.199 SA 
BRANCH   5   6
HETATM    6  C   UNL     1      -7.611  17.299  68.511  1.00  0.00    -0.251 A  
HETATM    7  N   UNL     1      -7.073  18.498  68.531  1.00  0.00    -0.267 NA 
HETATM    8  N   UNL     1      -7.959  19.361  67.966  1.00  0.00    -0.295 NA 
HETATM    9  C   UNL     1      -9.027  18.674  67.623  1.00  0.00    -0.275 A  
HETATM   10  N   UNL     1      -8.785  17.305  67.751  1.00  0.00    -0.223 NA 
HETATM   11 BR   UNL     1     -10.658  19.563  67.321  1.00  0.00    -0.609 Br 
BRANCH  10  12
HETATM   12  C   UNL     1      -9.639  16.230  67.311  1.00  0.00    -0.230 A  
HETATM   13  C   UNL     1      -9.520  15.776  65.996  1.00  0.00    -0.392 A  
HETATM   14  C   UNL     1     -10.205  14.640  65.572  1.00  0.00    -0.395 A  
HETATM   15  C   UNL     1     -10.993  13.870  66.439  1.00  0.00    -0.303 A  
HETATM   16  C   UNL     1     -12.018  13.651  68.664  1.00  0.00    -0.395 A  
HETATM   17  C   UNL     1     -11.186  14.353  67.760  1.00  0.00    -0.316 A  
HETATM   18  C   UNL     1     -12.266  14.105  69.957  1.00  0.00    -0.418 A  
HETATM   19  C   UNL     1     -10.559  15.566  68.196  1.00  0.00    -0.266 A  
HETATM   20  C   UNL     1     -10.945  16.051  69.477  1.00  0.00    -0.326 A  
HETATM   21  C   UNL     1     -11.749  15.320  70.356  1.00  0.00    -0.345 A  
BRANCH  15  22
HETATM   22  C   UNL     1     -11.625  12.603  65.873  1.00  0.00    -0.443 C  
HETATM   23  C   UNL     1     -12.597  12.745  64.715  1.00  0.00    -0.518 C  
HETATM   24  C   UNL     1     -11.291  12.057  64.507  1.00  0.00    -0.393 C  
ENDBRANCH  15  22
ENDBRANCH  10  12
ENDBRANCH   5   6
ENDBRANCH   4   5
TORSDOF 4
ENDMDL
MODEL       12
REMARK 921   NORMALIZED FREE ENERGY PREDICTED BY IDOCK:   -6.61 KCAL/MOL
REMARK 922        TOTAL FREE ENERGY PREDICTED BY IDOCK:   -9.04 KCAL/MOL
REMARK 923 INTER-LIGAND FREE ENERGY PREDICTED BY IDOCK:   -8.09 KCAL/MOL
REMARK 924 INTRA-LIGAND FREE ENERGY PREDICTED BY IDOCK:   -0.95 KCAL/MOL
REMARK 927      BINDING AFFINITY PREDICTED BY RF-SCORE:    0.00 PKD
ROOT
HETATM    1  O   UNL     1      -6.128  13.253  70.095  1.00  0.00    -0.145 OA 
HETATM    2  C   UNL     1      -6.738  14.232  69.384  1.00  0.00    -0.130 C  
HETATM    3  O   UNL     1      -6.698  15.397  69.736  1.00  0.00    -0.171 OA 
HETATM    4  C   UNL     1      -7.394  13.770  68.093  1.00  0.00    -0.124 C  
ENDROOT
BRANCH   4   5
HETATM    5  S   UNL     1      -7.898  12.003  68.155  1.00  0.00    -0.154 SA 
BRANCH   5   6
HETATM    6  C   UNL     1      -9.296  12.065  67.122  1.00  0.00    -0.187 A  
HETATM    7  N   UNL     1      -9.224  11.678  65.868  1.00  0.00    -0.219 NA 
HETATM    8  N   UNL     1     -10.410  11.975  65.271  1.00  0.00    -0.265 NA 
HETATM    9  C   UNL     1     -11.179  12.550  66.171  1.00  0.00    -0.321 A  
HETATM   10  N   UNL     1     -10.604  12.448  67.439  1.00  0.00    -0.214 NA 
HETATM   11 BR   UNL     1     -12.654  13.581  65.622  1.00  0.00    -0.471 Br 
BRANCH  10  12
HETATM   12  C   UNL     1     -11.215  12.796  68.697  1.00  0.00    -0.282 A  
HETATM   13  C   UNL     1     -11.507  14.137  68.951  1.00  0.00    -0.327 A  
HETATM   14  C   UNL     1     -12.239  14.505  70.076  1.00  0.00    -0.396 A  
HETATM   15  C   UNL     1     -12.764  13.562  70.972  1.00  0.00    -0.399 A  
HETATM   16  C   UNL     1     -12.870  11.208  71.677  1.00  0.00    -0.524 A  
HETATM   17  C   UNL     1     -12.419  12.199  70.773  1.00  0.00    -0.362 A  
HETATM   18  C   UNL     1     -12.528   9.865  71.544  1.00  0.00    -0.506 A  
HETATM   19  C   UNL     1     -11.595  11.805  69.669  1.00  0.00    -0.393 A  
HETATM   20  C   UNL     1     -11.171  10.447  69.650  1.00  0.00    -0.333 A  
HETATM   21  C   UNL     1     -11.656   9.488  70.544  1.00  0.00    -0.316 A  
BRANCH  15  22
HETATM   22  C   UNL     1     -13.619  14.087  72.121  1.00  0.00    -0.582 C  
HETATM   23  C   UNL     1     -12.913  14.752  73.290  1.00  0.00    -0.608 C  
HETATM   24  C   UNL     1     -13.803  15.557  72.404  1.00  0.00    -0.662 C  
ENDBRANCH  15  22
ENDBRANCH  10  12
ENDBRANCH   5   6
ENDBRANCH   4   5
TORSDOF 4
ENDMDL
MODEL       13
REMARK 921   NORMALIZED FREE ENERGY PREDICTED BY IDOCK:   -6.55 KCAL/MOL
REMARK 922        TOTAL FREE ENERGY PREDICTED BY IDOCK:   -8.97 KCAL/MOL
REMARK 923 INTER-LIGAND FREE ENERGY PREDICTED BY IDOCK:   -8.06 KCAL/MOL
REMARK 924 INTRA-LIGAND FREE ENERGY PREDICTED BY IDOCK:   -0.91 KCAL/MOL
REMARK 927      BINDING AFFINITY PREDICTED BY RF-SCORE:    0.00 PKD
ROOT
HETATM    1  O   UNL     1     -12.816  12.714  63.491  1.00  0.00    -0.712 OA 
HETATM    2  C   UNL     1     -11.569  12.324  63.851  1.00  0.00    -0.444 C  
HETATM    3  O   UNL     1     -11.231  11.154  63.818  1.00  0.00    -0.275 OA 
HETATM    4  C   UNL     1     -10.623  13.458  64.212  1.00  0.00    -0.341 C  
ENDROOT
BRANCH   4   5
HETATM    5  S   UNL     1     -11.512  14.943  64.831  1.00  0.00    -0.391 SA 
BRANCH   5   6
HETATM    6  C   UNL     1     -11.406  14.651  66.543  1.00  0.00    -0.353 A  
HETATM    7  N   UNL     1     -12.181  13.763  67.124  1.00  0.00    -0.369 NA 
HETATM    8  N   UNL     1     -11.987  13.855  68.466  1.00  0.00    -0.365 NA 
HETATM    9  C   UNL     1     -11.106  14.808  68.680  1.00  0.00    -0.262 A  
HETATM   10  N   UNL     1     -10.531  15.218  67.476  1.00  0.00    -0.260 NA 
HETATM   11 BR   UNL     1     -10.977  15.602  70.381  1.00  0.00    -0.380 Br 
BRANCH  10  12
HETATM   12  C   UNL     1      -9.411  16.109  67.310  1.00  0.00    -0.213 A  
HETATM   13  C   UNL     1      -8.134  15.561  67.172  1.00  0.00    -0.249 A  
HETATM   14  C   UNL     1      -7.045  16.367  66.851  1.00  0.00    -0.256 A  
HETATM   15  C   UNL     1      -7.176  17.739  66.596  1.00  0.00    -0.256 A  
HETATM   16  C   UNL     1      -8.632  19.722  66.618  1.00  0.00    -0.380 A  
HETATM   17  C   UNL     1      -8.451  18.331  66.802  1.00  0.00    -0.272 A  
HETATM   18  C   UNL     1      -9.853  20.352  66.842  1.00  0.00    -0.572 A  
HETATM   19  C   UNL     1      -9.569  17.536  67.215  1.00  0.00    -0.273 A  
HETATM   20  C   UNL     1     -10.756  18.244  67.553  1.00  0.00    -0.381 A  
HETATM   21  C   UNL     1     -10.910  19.616  67.335  1.00  0.00    -0.497 A  
BRANCH  15  22
HETATM   22  C   UNL     1      -5.922  18.497  66.173  1.00  0.00    -0.205 C  
HETATM   23  C   UNL     1      -5.152  17.987  64.967  1.00  0.00    -0.063 C  
HETATM   24  C   UNL     1      -5.840  19.309  64.904  1.00  0.00    -0.290 C  
ENDBRANCH  15  22
ENDBRANCH  10  12
ENDBRANCH   5   6
ENDBRANCH   4   5
TORSDOF 4
ENDMDL
MODEL       14
REMARK 921   NORMALIZED FREE ENERGY PREDICTED BY IDOCK:   -6.54 KCAL/MOL
REMARK 922        TOTAL FREE ENERGY PREDICTED BY IDOCK:   -8.95 KCAL/MOL
REMARK 923 INTER-LIGAND FREE ENERGY PREDICTED BY IDOCK:   -8.47 KCAL/MOL
REMARK 924 INTRA-LIGAND FREE ENERGY PREDICTED BY IDOCK:   -0.48 KCAL/MOL
REMARK 927      BINDING AFFINITY PREDICTED BY RF-SCORE:    0.00 PKD
ROOT
HETATM    1  O   UNL     1      -7.358  17.561  68.785  1.00  0.00    -0.246 OA 
HETATM    2  C   UNL     1      -7.909  18.756  68.461  1.00  0.00    -0.336 C  
HETATM    3  O   UNL     1      -7.292  19.799  68.586  1.00  0.00    -0.321 OA 
HETATM    4  C   UNL     1      -9.305  18.676  67.865  1.00  0.00    -0.298 C  
ENDROOT
BRANCH   4   5
HETATM    5  S   UNL     1     -10.217  17.177  68.413  1.00  0.00    -0.362 SA 
BRANCH   5   6
HETATM    6  C   UNL     1     -10.495  16.427  66.868  1.00  0.00    -0.289 A  
HETATM    7  N   UNL     1     -10.285  17.087  65.751  1.00  0.00    -0.564 NA 
HETATM    8  N   UNL     1     -10.723  16.315  64.722  1.00  0.00    -0.683 NA 
HETATM    9  C   UNL     1     -11.204  15.202  65.231  1.00  0.00    -0.358 A  
HETATM   10  N   UNL     1     -10.896  15.116  66.590  1.00  0.00    -0.316 NA 
HETATM   11 BR   UNL     1     -12.377  14.136  64.216  1.00  0.00    -0.317 Br 
BRANCH  10  12
HETATM   12  C   UNL     1     -11.095  13.978  67.452  1.00  0.00    -0.303 A  
HETATM   13  C   UNL     1     -11.778  14.162  68.656  1.00  0.00    -0.385 A  
HETATM   14  C   UNL     1     -12.135  13.071  69.445  1.00  0.00    -0.267 A  
HETATM   15  C   UNL     1     -11.884  11.748  69.054  1.00  0.00    -0.379 A  
HETATM   16  C   UNL     1     -10.792  10.230  67.456  1.00  0.00    -0.355 A  
HETATM   17  C   UNL     1     -11.128  11.541  67.870  1.00  0.00    -0.317 A  
HETATM   18  C   UNL     1     -10.023   9.979  66.324  1.00  0.00    -0.310 A  
HETATM   19  C   UNL     1     -10.676  12.651  67.086  1.00  0.00    -0.264 A  
HETATM   20  C   UNL     1      -9.789  12.348  66.015  1.00  0.00    -0.268 A  
HETATM   21  C   UNL     1      -9.498  11.040  65.616  1.00  0.00    -0.250 A  
BRANCH  15  22
HETATM   22  C   UNL     1     -12.398  10.639  69.966  1.00  0.00    -0.341 C  
HETATM   23  C   UNL     1     -11.506  10.182  71.108  1.00  0.00    -0.387 C  
HETATM   24  C   UNL     1     -12.794  10.872  71.403  1.00  0.00    -0.554 C  
ENDBRANCH  15  22
ENDBRANCH  10  12
ENDBRANCH   5   6
ENDBRANCH   4   5
TORSDOF 4
ENDMDL
MODEL       15
REMARK 921   NORMALIZED FREE ENERGY PREDICTED BY IDOCK:   -6.53 KCAL/MOL
REMARK 922        TOTAL FREE ENERGY PREDICTED BY IDOCK:   -8.94 KCAL/MOL
REMARK 923 INTER-LIGAND FREE ENERGY PREDICTED BY IDOCK:   -7.94 KCAL/MOL
REMARK 924 INTRA-LIGAND FREE ENERGY PREDICTED BY IDOCK:   -1.00 KCAL/MOL
REMARK 927      BINDING AFFINITY PREDICTED BY RF-SCORE:    0.00 PKD
ROOT
HETATM    1  O   UNL     1      -5.999  15.141  67.463  1.00  0.00    -0.293 OA 
HETATM    2  C   UNL     1      -6.228  13.850  67.806  1.00  0.00    -0.145 C  
HETATM    3  O   UNL     1      -5.595  12.935  67.309  1.00  0.00    -0.322 OA 
HETATM    4  C   UNL     1      -7.263  13.652  68.900  1.00  0.00    -0.083 C  
ENDROOT
BRANCH   4   5
HETATM    5  S   UNL     1      -8.489  15.021  68.962  1.00  0.00    -0.188 SA 
BRANCH   5   6
HETATM    6  C   UNL     1      -9.446  14.615  67.567  1.00  0.00    -0.198 A  
HETATM    7  N   UNL     1      -9.107  15.039  66.371  1.00  0.00    -0.287 NA 
HETATM    8  N   UNL     1     -10.104  14.702  65.510  1.00  0.00    -0.358 NA 
HETATM    9  C   UNL     1     -11.039  14.088  66.201  1.00  0.00    -0.302 A  
HETATM   10  N   UNL     1     -10.587  13.809  67.492  1.00  0.00    -0.244 NA 
HETATM   11 BR   UNL     1     -12.783  13.953  65.505  1.00  0.00    -0.456 Br 
BRANCH  10  12
HETATM   12  C   UNL     1     -11.248  13.000  68.485  1.00  0.00    -0.274 A  
HETATM   13  C   UNL     1     -11.146  11.611  68.393  1.00  0.00    -0.285 A  
HETATM   14  C   UNL     1     -11.628  10.793  69.412  1.00  0.00    -0.380 A  
HETATM   15  C   UNL     1     -12.182  11.311  70.591  1.00  0.00    -0.489 A  
HETATM   16  C   UNL     1     -12.969  13.295  71.815  1.00  0.00    -0.430 A  
HETATM   17  C   UNL     1     -12.361  12.717  70.675  1.00  0.00    -0.381 A  
HETATM   18  C   UNL     1     -13.199  14.663  71.927  1.00  0.00    -0.436 A  
HETATM   19  C   UNL     1     -11.950  13.574  69.602  1.00  0.00    -0.397 A  
HETATM   20  C   UNL     1     -12.322  14.943  69.709  1.00  0.00    -0.283 A  
HETATM   21  C   UNL     1     -12.898  15.486  70.861  1.00  0.00    -0.535 A  
BRANCH  15  22
HETATM   22  C   UNL     1     -12.599  10.314  71.667  1.00  0.00    -0.534 C  
HETATM   23  C   UNL     1     -12.966   8.905  71.232  1.00  0.00    -0.255 C  
HETATM   24  C   UNL     1     -11.750   9.131  72.066  1.00  0.00    -0.384 C  
ENDBRANCH  15  22
ENDBRANCH  10  12
ENDBRANCH   5   6
ENDBRANCH   4   5
TORSDOF 4
ENDMDL
MODEL       16
REMARK 921   NORMALIZED FREE ENERGY PREDICTED BY IDOCK:   -6.53 KCAL/MOL
REMARK 922        TOTAL FREE ENERGY PREDICTED BY IDOCK:   -8.93 KCAL/MOL
REMARK 923 INTER-LIGAND FREE ENERGY PREDICTED BY IDOCK:   -8.20 KCAL/MOL
REMARK 924 INTRA-LIGAND FREE ENERGY PREDICTED BY IDOCK:   -0.73 KCAL/MOL
REMARK 927      BINDING AFFINITY PREDICTED BY RF-SCORE:    0.00 PKD
ROOT
HETATM    1  O   UNL     1      -8.499   9.150  71.223  1.00  0.00    -0.286 OA 
HETATM    2  C   UNL     1      -8.302   8.284  70.199  1.00  0.00    -0.124 C  
HETATM    3  O   UNL     1      -8.004   7.119  70.396  1.00  0.00    -0.108 OA 
HETATM    4  C   UNL     1      -8.558   8.859  68.816  1.00  0.00    -0.136 C  
ENDROOT
BRANCH   4   5
HETATM    5  S   UNL     1      -8.309  10.680  68.756  1.00  0.00    -0.150 SA 
BRANCH   5   6
HETATM    6  C   UNL     1      -9.557  11.106  67.623  1.00  0.00    -0.170 A  
HETATM    7  N   UNL     1      -9.502  10.698  66.375  1.00  0.00    -0.167 NA 
HETATM    8  N   UNL     1     -10.514  11.299  65.695  1.00  0.00    -0.259 NA 
HETATM    9  C   UNL     1     -11.162  12.072  66.539  1.00  0.00    -0.334 A  
HETATM   10  N   UNL     1     -10.732  11.833  67.845  1.00  0.00    -0.197 NA 
HETATM   11 BR   UNL     1     -12.258  13.458  65.891  1.00  0.00    -0.504 Br 
BRANCH  10  12
HETATM   12  C   UNL     1     -11.316  12.350  69.057  1.00  0.00    -0.283 A  
HETATM   13  C   UNL     1     -11.407  13.734  69.219  1.00  0.00    -0.325 A  
HETATM   14  C   UNL     1     -12.105  14.280  70.294  1.00  0.00    -0.403 A  
HETATM   15  C   UNL     1     -12.790  13.486  71.225  1.00  0.00    -0.420 A  
HETATM   16  C   UNL     1     -13.271  11.225  72.066  1.00  0.00    -0.437 A  
HETATM   17  C   UNL     1     -12.652  12.077  71.121  1.00  0.00    -0.372 A  
HETATM   18  C   UNL     1     -13.134   9.840  72.026  1.00  0.00    -0.546 A  
HETATM   19  C   UNL     1     -11.868  11.493  70.072  1.00  0.00    -0.435 A  
HETATM   20  C   UNL     1     -11.655  10.088  70.151  1.00  0.00    -0.320 A  
HETATM   21  C   UNL     1     -12.303   9.272  71.083  1.00  0.00    -0.363 A  
BRANCH  15  22
HETATM   22  C   UNL     1     -13.586  14.206  72.309  1.00  0.00    -0.596 C  
HETATM   23  C   UNL     1     -12.823  15.060  73.307  1.00  0.00    -0.647 C  
HETATM   24  C   UNL     1     -13.760  15.705  72.343  1.00  0.00    -0.619 C  
ENDBRANCH  15  22
ENDBRANCH  10  12
ENDBRANCH   5   6
ENDBRANCH   4   5
TORSDOF 4
ENDMDL
MODEL       17
REMARK 921   NORMALIZED FREE ENERGY PREDICTED BY IDOCK:   -6.47 KCAL/MOL
REMARK 922        TOTAL FREE ENERGY PREDICTED BY IDOCK:   -8.86 KCAL/MOL
REMARK 923 INTER-LIGAND FREE ENERGY PREDICTED BY IDOCK:   -8.02 KCAL/MOL
REMARK 924 INTRA-LIGAND FREE ENERGY PREDICTED BY IDOCK:   -0.84 KCAL/MOL
REMARK 927      BINDING AFFINITY PREDICTED BY RF-SCORE:    0.00 PKD
ROOT
HETATM    1  O   UNL     1     -12.654  13.859  63.088  1.00  0.00    -0.775 OA 
HETATM    2  C   UNL     1     -11.845  12.942  63.674  1.00  0.00    -0.532 C  
HETATM    3  O   UNL     1     -12.029  11.746  63.534  1.00  0.00    -0.482 OA 
HETATM    4  C   UNL     1     -10.667  13.524  64.438  1.00  0.00    -0.388 C  
ENDROOT
BRANCH   4   5
HETATM    5  S   UNL     1     -11.001  15.223  65.054  1.00  0.00    -0.436 SA 
BRANCH   5   6
HETATM    6  C   UNL     1     -11.228  14.879  66.744  1.00  0.00    -0.338 A  
HETATM    7  N   UNL     1     -12.006  13.893  67.132  1.00  0.00    -0.414 NA 
HETATM    8  N   UNL     1     -12.112  13.954  68.486  1.00  0.00    -0.351 NA 
HETATM    9  C   UNL     1     -11.406  14.985  68.898  1.00  0.00    -0.297 A  
HETATM   10  N   UNL     1     -10.638  15.498  67.851  1.00  0.00    -0.267 NA 
HETATM   11 BR   UNL     1     -11.728  15.722  70.599  1.00  0.00    -0.444 Br 
BRANCH  10  12
HETATM   12  C   UNL     1      -9.613  16.506  67.944  1.00  0.00    -0.233 A  
HETATM   13  C   UNL     1      -9.907  17.802  67.517  1.00  0.00    -0.304 A  
HETATM   14  C   UNL     1      -9.009  18.844  67.733  1.00  0.00    -0.320 A  
HETATM   15  C   UNL     1      -7.805  18.665  68.430  1.00  0.00    -0.344 A  
HETATM   16  C   UNL     1      -6.222  17.090  69.462  1.00  0.00    -0.237 A  
HETATM   17  C   UNL     1      -7.452  17.343  68.809  1.00  0.00    -0.258 A  
HETATM   18  C   UNL     1      -5.816  15.808  69.821  1.00  0.00    -0.146 A  
HETATM   19  C   UNL     1      -8.322  16.241  68.522  1.00  0.00    -0.204 A  
HETATM   20  C   UNL     1      -7.806  14.942  68.792  1.00  0.00    -0.149 A  
HETATM   21  C   UNL     1      -6.598  14.729  69.462  1.00  0.00    -0.153 A  
BRANCH  15  22
HETATM   22  C   UNL     1      -6.946  19.901  68.674  1.00  0.00    -0.353 C  
HETATM   23  C   UNL     1      -5.663  20.049  67.873  1.00  0.00    -0.227 C  
HETATM   24  C   UNL     1      -6.786  21.006  67.658  1.00  0.00    -0.370 C  
ENDBRANCH  15  22
ENDBRANCH  10  12
ENDBRANCH   5   6
ENDBRANCH   4   5
TORSDOF 4
ENDMDL
MODEL       18
REMARK 921   NORMALIZED FREE ENERGY PREDICTED BY IDOCK:   -6.42 KCAL/MOL
REMARK 922        TOTAL FREE ENERGY PREDICTED BY IDOCK:   -8.80 KCAL/MOL
REMARK 923 INTER-LIGAND FREE ENERGY PREDICTED BY IDOCK:   -7.78 KCAL/MOL
REMARK 924 INTRA-LIGAND FREE ENERGY PREDICTED BY IDOCK:   -1.02 KCAL/MOL
REMARK 927      BINDING AFFINITY PREDICTED BY RF-SCORE:    0.00 PKD
ROOT
HETATM    1  O   UNL     1     -13.178  11.930  71.611  1.00  0.00    -0.412 OA 
HETATM    2  C   UNL     1     -13.290  13.262  71.838  1.00  0.00    -0.451 C  
HETATM    3  O   UNL     1     -14.046  13.704  72.685  1.00  0.00    -0.746 OA 
HETATM    4  C   UNL     1     -12.352  14.132  71.017  1.00  0.00    -0.366 C  
ENDROOT
BRANCH   4   5
HETATM    5  S   UNL     1     -11.873  13.341  69.428  1.00  0.00    -0.319 SA 
BRANCH   5   6
HETATM    6  C   UNL     1     -10.629  14.445  68.919  1.00  0.00    -0.247 A  
HETATM    7  N   UNL     1     -10.321  15.495  69.648  1.00  0.00    -0.266 NA 
HETATM    8  N   UNL     1      -9.437  16.248  68.942  1.00  0.00    -0.242 NA 
HETATM    9  C   UNL     1      -9.231  15.649  67.789  1.00  0.00    -0.193 A  
HETATM   10  N   UNL     1      -9.802  14.375  67.793  1.00  0.00    -0.219 NA 
HETATM   11 BR   UNL     1      -8.519  16.620  66.342  1.00  0.00    -0.362 Br 
BRANCH  10  12
HETATM   12  C   UNL     1      -9.645  13.353  66.790  1.00  0.00    -0.262 A  
HETATM   13  C   UNL     1      -8.671  12.371  66.981  1.00  0.00    -0.207 A  
HETATM   14  C   UNL     1      -8.588  11.275  66.126  1.00  0.00    -0.156 A  
HETATM   15  C   UNL     1      -9.496  11.070  65.078  1.00  0.00    -0.269 A  
HETATM   16  C   UNL     1     -11.355  11.969  63.740  1.00  0.00    -0.526 A  
HETATM   17  C   UNL     1     -10.449  12.091  64.821  1.00  0.00    -0.335 A  
HETATM   18  C   UNL     1     -12.282  12.959  63.426  1.00  0.00    -0.574 A  
HETATM   19  C   UNL     1     -10.500  13.269  65.635  1.00  0.00    -0.286 A  
HETATM   20  C   UNL     1     -11.375  14.303  65.197  1.00  0.00    -0.345 A  
HETATM   21  C   UNL     1     -12.275  14.139  64.141  1.00  0.00    -0.423 A  
BRANCH  15  22
HETATM   22  C   UNL     1      -9.349   9.789  64.263  1.00  0.00    -0.253 C  
HETATM   23  C   UNL     1      -8.408   9.805  63.071  1.00  0.00    -0.166 C  
HETATM   24  C   UNL     1      -8.090   8.958  64.257  1.00  0.00    -0.158 C  
ENDBRANCH  15  22
ENDBRANCH  10  12
ENDBRANCH   5   6
ENDBRANCH   4   5
TORSDOF 4
ENDMDL
MODEL       19
REMARK 921   NORMALIZED FREE ENERGY PREDICTED BY IDOCK:   -6.41 KCAL/MOL
REMARK 922        TOTAL FREE ENERGY PREDICTED BY IDOCK:   -8.79 KCAL/MOL
REMARK 923 INTER-LIGAND FREE ENERGY PREDICTED BY IDOCK:   -7.84 KCAL/MOL
REMARK 924 INTRA-LIGAND FREE ENERGY PREDICTED BY IDOCK:   -0.95 KCAL/MOL
REMARK 927      BINDING AFFINITY PREDICTED BY RF-SCORE:    0.00 PKD
ROOT
HETATM    1  O   UNL     1     -13.992  16.101  73.191  1.00  0.00    -0.501 OA 
HETATM    2  C   UNL     1     -12.884  15.409  73.553  1.00  0.00    -0.552 C  
HETATM    3  O   UNL     1     -12.164  15.787  74.460  1.00  0.00    -0.606 OA 
HETATM    4  C   UNL     1     -12.668  14.107  72.800  1.00  0.00    -0.268 C  
ENDROOT
BRANCH   4   5
HETATM    5  S   UNL     1     -13.430  14.129  71.127  1.00  0.00    -0.159 SA 
BRANCH   5   6
HETATM    6  C   UNL     1     -12.405  12.974  70.327  1.00  0.00    -0.241 A  
HETATM    7  N   UNL     1     -12.450  11.700  70.645  1.00  0.00    -0.322 NA 
HETATM    8  N   UNL     1     -11.448  11.068  69.977  1.00  0.00    -0.306 NA 
HETATM    9  C   UNL     1     -10.803  11.972  69.272  1.00  0.00    -0.076 A  
HETATM   10  N   UNL     1     -11.497  13.184  69.284  1.00  0.00    -0.287 NA 
HETATM   11 BR   UNL     1      -9.062  11.613  68.655  1.00  0.00    -0.045 Br 
BRANCH  10  12
HETATM   12  C   UNL     1     -11.207  14.354  68.495  1.00  0.00    -0.265 A  
HETATM   13  C   UNL     1     -10.571  15.435  69.108  1.00  0.00    -0.248 A  
HETATM   14  C   UNL     1     -10.127  16.519  68.356  1.00  0.00    -0.255 A  
HETATM   15  C   UNL     1     -10.241  16.561  66.959  1.00  0.00    -0.288 A  
HETATM   16  C   UNL     1     -11.148  15.524  64.921  1.00  0.00    -0.428 A  
HETATM   17  C   UNL     1     -10.949  15.507  66.322  1.00  0.00    -0.242 A  
HETATM   18  C   UNL     1     -11.866  14.533  64.257  1.00  0.00    -0.368 A  
HETATM   19  C   UNL     1     -11.489  14.422  67.085  1.00  0.00    -0.379 A  
HETATM   20  C   UNL     1     -12.320  13.506  66.380  1.00  0.00    -0.413 A  
HETATM   21  C   UNL     1     -12.475  13.536  64.991  1.00  0.00    -0.462 A  
BRANCH  15  22
HETATM   22  C   UNL     1      -9.642  17.767  66.242  1.00  0.00    -0.256 C  
HETATM   23  C   UNL     1     -10.501  19.011  66.098  1.00  0.00    -0.541 C  
HETATM   24  C   UNL     1      -9.279  19.048  66.951  1.00  0.00    -0.332 C  
ENDBRANCH  15  22
ENDBRANCH  10  12
ENDBRANCH   5   6
ENDBRANCH   4   5
TORSDOF 4
ENDMDL
MODEL       20
REMARK 921   NORMALIZED FREE ENERGY PREDICTED BY IDOCK:   -6.41 KCAL/MOL
REMARK 922        TOTAL FREE ENERGY PREDICTED BY IDOCK:   -8.78 KCAL/MOL
REMARK 923 INTER-LIGAND FREE ENERGY PREDICTED BY IDOCK:   -7.63 KCAL/MOL
REMARK 924 INTRA-LIGAND FREE ENERGY PREDICTED BY IDOCK:   -1.16 KCAL/MOL
REMARK 927      BINDING AFFINITY PREDICTED BY RF-SCORE:    0.00 PKD
ROOT
HETATM    1  O   UNL     1      -6.257  16.173  69.945  1.00  0.00    -0.186 OA 
HETATM    2  C   UNL     1      -5.733  17.392  69.668  1.00  0.00    -0.230 C  
HETATM    3  O   UNL     1      -5.608  18.244  70.530  1.00  0.00    -0.241 OA 
HETATM    4  C   UNL     1      -5.251  17.571  68.238  1.00  0.00    -0.146 C  
ENDROOT
BRANCH   4   5
HETATM    5  S   UNL     1      -6.144  16.483  67.056  1.00  0.00    -0.076 SA 
BRANCH   5   6
HETATM    6  C   UNL     1      -7.402  17.573  66.552  1.00  0.00    -0.270 A  
HETATM    7  N   UNL     1      -7.143  18.566  65.731  1.00  0.00    -0.443 NA 
HETATM    8  N   UNL     1      -8.264  19.331  65.635  1.00  0.00    -0.327 NA 
HETATM    9  C   UNL     1      -9.182  18.795  66.410  1.00  0.00    -0.307 A  
HETATM   10  N   UNL     1      -8.765  17.544  66.866  1.00  0.00    -0.243 NA 
HETATM   11 BR   UNL     1     -10.653  19.827  66.970  1.00  0.00    -0.541 Br 
BRANCH  10  12
HETATM   12  C   UNL     1      -9.554  16.578  67.588  1.00  0.00    -0.235 A  
HETATM   13  C   UNL     1      -9.532  16.605  68.983  1.00  0.00    -0.236 A  
HETATM   14  C   UNL     1     -10.396  15.803  69.724  1.00  0.00    -0.307 A  
HETATM   15  C   UNL     1     -11.359  14.981  69.121  1.00  0.00    -0.311 A  
HETATM   16  C   UNL     1     -12.261  14.025  67.041  1.00  0.00    -0.387 A  
HETATM   17  C   UNL     1     -11.352  14.884  67.704  1.00  0.00    -0.348 A  
HETATM   18  C   UNL     1     -12.267  13.870  65.658  1.00  0.00    -0.477 A  
HETATM   19  C   UNL     1     -10.415  15.635  66.924  1.00  0.00    -0.307 A  
HETATM   20  C   UNL     1     -10.377  15.345  65.531  1.00  0.00    -0.412 A  
HETATM   21  C   UNL     1     -11.306  14.511  64.903  1.00  0.00    -0.394 A  
BRANCH  15  22
HETATM   22  C   UNL     1     -12.302  14.213  70.042  1.00  0.00    -0.403 C  
HETATM   23  C   UNL     1     -12.171  14.430  71.540  1.00  0.00    -0.406 C  
HETATM   24  C   UNL     1     -13.404  14.878  70.831  1.00  0.00    -0.393 C  
ENDBRANCH  15  22
ENDBRANCH  10  12
ENDBRANCH   5   6
ENDBRANCH   4   5
TORSDOF 4
ENDMDL
MODEL       21
REMARK 921   NORMALIZED FREE ENERGY PREDICTED BY IDOCK:   -6.38 KCAL/MOL
REMARK 922        TOTAL FREE ENERGY PREDICTED BY IDOCK:   -8.75 KCAL/MOL
REMARK 923 INTER-LIGAND FREE ENERGY PREDICTED BY IDOCK:   -8.42 KCAL/MOL
REMARK 924 INTRA-LIGAND FREE ENERGY PREDICTED BY IDOCK:   -0.33 KCAL/MOL
REMARK 927      BINDING AFFINITY PREDICTED BY RF-SCORE:    0.00 PKD
ROOT
HETATM    1  O   UNL     1     -11.697  16.721  72.718  1.00  0.00    -0.427 OA 
HETATM    2  C   UNL     1     -12.702  16.058  73.341  1.00  0.00    -0.558 C  
HETATM    3  O   UNL     1     -12.770  15.996  74.556  1.00  0.00    -0.683 OA 
HETATM    4  C   UNL     1     -13.759  15.480  72.414  1.00  0.00    -0.559 C  
ENDROOT
BRANCH   4   5
HETATM    5  S   UNL     1     -13.098  15.115  70.738  1.00  0.00    -0.367 SA 
BRANCH   5   6
HETATM    6  C   UNL     1     -12.879  13.395  70.882  1.00  0.00    -0.205 A  
HETATM    7  N   UNL     1     -13.359  12.740  71.915  1.00  0.00    -0.463 NA 
HETATM    8  N   UNL     1     -12.913  11.458  71.839  1.00  0.00    -0.433 NA 
HETATM    9  C   UNL     1     -12.158  11.358  70.767  1.00  0.00    -0.332 A  
HETATM   10  N   UNL     1     -12.264  12.512  69.988  1.00  0.00    -0.240 NA 
HETATM   11 BR   UNL     1     -10.938   9.934  70.607  1.00  0.00    -0.411 Br 
BRANCH  10  12
HETATM   12  C   UNL     1     -11.733  12.715  68.664  1.00  0.00    -0.325 A  
HETATM   13  C   UNL     1     -12.127  11.848  67.644  1.00  0.00     0.089 A  
HETATM   14  C   UNL     1     -11.770  12.097  66.321  1.00  0.00    -0.389 A  
HETATM   15  C   UNL     1     -11.056  13.241  65.939  1.00  0.00    -0.301 A  
HETATM   16  C   UNL     1      -9.805  15.237  66.648  1.00  0.00    -0.263 A  
HETATM   17  C   UNL     1     -10.582  14.099  66.967  1.00  0.00    -0.276 A  
HETATM   18  C   UNL     1      -9.288  16.086  67.623  1.00  0.00    -0.214 A  
HETATM   19  C   UNL     1     -10.865  13.817  68.343  1.00  0.00    -0.268 A  
HETATM   20  C   UNL     1     -10.210  14.639  69.303  1.00  0.00    -0.156 A  
HETATM   21  C   UNL     1      -9.469  15.772  68.954  1.00  0.00    -0.229 A  
BRANCH  15  22
HETATM   22  C   UNL     1     -10.798  13.442  64.449  1.00  0.00    -0.422 C  
HETATM   23  C   UNL     1     -10.640  12.206  63.579  1.00  0.00    -0.501 C  
HETATM   24  C   UNL     1     -11.814  13.105  63.385  1.00  0.00    -0.490 C  
ENDBRANCH  15  22
ENDBRANCH  10  12
ENDBRANCH   5   6
ENDBRANCH   4   5
TORSDOF 4
ENDMDL
MODEL       22
REMARK 921   NORMALIZED FREE ENERGY PREDICTED BY IDOCK:   -6.38 KCAL/MOL
REMARK 922        TOTAL FREE ENERGY PREDICTED BY IDOCK:   -8.75 KCAL/MOL
REMARK 923 INTER-LIGAND FREE ENERGY PREDICTED BY IDOCK:   -7.77 KCAL/MOL
REMARK 924 INTRA-LIGAND FREE ENERGY PREDICTED BY IDOCK:   -0.98 KCAL/MOL
REMARK 927      BINDING AFFINITY PREDICTED BY RF-SCORE:    0.00 PKD
ROOT
HETATM    1  O   UNL     1      -9.119  16.614  65.931  1.00  0.00    -0.480 OA 
HETATM    2  C   UNL     1     -10.057  17.497  66.352  1.00  0.00    -0.345 C  
HETATM    3  O   UNL     1     -10.358  18.473  65.689  1.00  0.00    -0.594 OA 
HETATM    4  C   UNL     1     -10.742  17.129  67.658  1.00  0.00    -0.302 C  
ENDROOT
BRANCH   4   5
HETATM    5  S   UNL     1      -9.683  16.079  68.734  1.00  0.00    -0.237 SA 
BRANCH   5   6
HETATM    6  C   UNL     1     -10.903  15.046  69.420  1.00  0.00    -0.260 A  
HETATM    7  N   UNL     1     -11.719  15.492  70.349  1.00  0.00    -0.307 NA 
HETATM    8  N   UNL     1     -12.453  14.440  70.799  1.00  0.00    -0.329 NA 
HETATM    9  C   UNL     1     -12.062  13.368  70.144  1.00  0.00    -0.344 A  
HETATM   10  N   UNL     1     -11.216  13.723  69.091  1.00  0.00    -0.259 NA 
HETATM   11 BR   UNL     1     -12.432  11.658  70.837  1.00  0.00    -0.373 Br 
BRANCH  10  12
HETATM   12  C   UNL     1     -10.724  12.859  68.047  1.00  0.00    -0.228 A  
HETATM   13  C   UNL     1      -9.809  11.860  68.381  1.00  0.00    -0.201 A  
HETATM   14  C   UNL     1      -9.428  10.902  67.445  1.00  0.00    -0.170 A  
HETATM   15  C   UNL     1      -9.975  10.855  66.155  1.00  0.00    -0.282 A  
HETATM   16  C   UNL     1     -11.391  11.942  64.462  1.00  0.00    -0.382 A  
HETATM   17  C   UNL     1     -10.853  11.903  65.770  1.00  0.00    -0.341 A  
HETATM   18  C   UNL     1     -12.226  12.968  64.028  1.00  0.00    -0.489 A  
HETATM   19  C   UNL     1     -11.194  12.947  66.690  1.00  0.00    -0.342 A  
HETATM   20  C   UNL     1     -11.944  14.035  66.160  1.00  0.00    -0.440 A  
HETATM   21  C   UNL     1     -12.482  14.030  64.871  1.00  0.00    -0.419 A  
BRANCH  15  22
HETATM   22  C   UNL     1      -9.537   9.708  65.249  1.00  0.00    -0.347 C  
HETATM   23  C   UNL     1      -8.378   9.951  64.298  1.00  0.00    -0.167 C  
HETATM   24  C   UNL     1      -8.227   8.980  65.419  1.00  0.00    -0.131 C  
ENDBRANCH  15  22
ENDBRANCH  10  12
ENDBRANCH   5   6
ENDBRANCH   4   5
TORSDOF 4
ENDMDL
MODEL       23
REMARK 921   NORMALIZED FREE ENERGY PREDICTED BY IDOCK:   -6.32 KCAL/MOL
REMARK 922        TOTAL FREE ENERGY PREDICTED BY IDOCK:   -8.68 KCAL/MOL
REMARK 923 INTER-LIGAND FREE ENERGY PREDICTED BY IDOCK:   -7.81 KCAL/MOL
REMARK 924 INTRA-LIGAND FREE ENERGY PREDICTED BY IDOCK:   -0.87 KCAL/MOL
REMARK 927      BINDING AFFINITY PREDICTED BY RF-SCORE:    0.00 PKD
ROOT
HETATM    1  O   UNL     1     -10.409  10.625  64.608  1.00  0.00    -0.345 OA 
HETATM    2  C   UNL     1     -10.430  11.570  63.637  1.00  0.00    -0.427 C  
HETATM    3  O   UNL     1      -9.567  11.624  62.779  1.00  0.00    -0.339 OA 
HETATM    4  C   UNL     1     -11.642  12.487  63.663  1.00  0.00    -0.504 C  
ENDROOT
BRANCH   4   5
HETATM    5  S   UNL     1     -12.363  12.649  65.346  1.00  0.00    -0.325 SA 
BRANCH   5   6
HETATM    6  C   UNL     1     -10.985  13.293  66.190  1.00  0.00    -0.279 A  
HETATM    7  N   UNL     1     -10.239  14.228  65.647  1.00  0.00    -0.330 NA 
HETATM    8  N   UNL     1      -9.164  14.426  66.455  1.00  0.00    -0.265 NA 
HETATM    9  C   UNL     1      -9.269  13.598  67.473  1.00  0.00    -0.218 A  
HETATM   10  N   UNL     1     -10.525  12.989  67.476  1.00  0.00    -0.226 NA 
HETATM   11 BR   UNL     1      -7.750  13.181  68.502  1.00  0.00    -0.084 Br 
BRANCH  10  12
HETATM   12  C   UNL     1     -11.081  12.159  68.515  1.00  0.00    -0.252 A  
HETATM   13  C   UNL     1     -10.757  10.802  68.534  1.00  0.00    -0.245 A  
HETATM   14  C   UNL     1     -11.137   9.994  69.603  1.00  0.00    -0.300 A  
HETATM   15  C   UNL     1     -11.804  10.502  70.726  1.00  0.00    -0.465 A  
HETATM   16  C   UNL     1     -12.936  12.417  71.776  1.00  0.00    -0.422 A  
HETATM   17  C   UNL     1     -12.207  11.863  70.697  1.00  0.00    -0.424 A  
HETATM   18  C   UNL     1     -13.384  13.735  71.776  1.00  0.00    -0.463 A  
HETATM   19  C   UNL     1     -11.902  12.693  69.570  1.00  0.00    -0.376 A  
HETATM   20  C   UNL     1     -12.490  13.989  69.562  1.00  0.00    -0.159 A  
HETATM   21  C   UNL     1     -13.183  14.515  70.656  1.00  0.00    -0.228 A  
BRANCH  15  22
HETATM   22  C   UNL     1     -12.093   9.532  71.868  1.00  0.00    -0.409 C  
HETATM   23  C   UNL     1     -12.211   8.054  71.537  1.00  0.00    -0.328 C  
HETATM   24  C   UNL     1     -11.079   8.538  72.379  1.00  0.00    -0.397 C  
ENDBRANCH  15  22
ENDBRANCH  10  12
ENDBRANCH   5   6
ENDBRANCH   4   5
TORSDOF 4
ENDMDL
MODEL       24
REMARK 921   NORMALIZED FREE ENERGY PREDICTED BY IDOCK:   -6.31 KCAL/MOL
REMARK 922        TOTAL FREE ENERGY PREDICTED BY IDOCK:   -8.66 KCAL/MOL
REMARK 923 INTER-LIGAND FREE ENERGY PREDICTED BY IDOCK:   -8.22 KCAL/MOL
REMARK 924 INTRA-LIGAND FREE ENERGY PREDICTED BY IDOCK:   -0.44 KCAL/MOL
REMARK 927      BINDING AFFINITY PREDICTED BY RF-SCORE:    0.00 PKD
ROOT
HETATM    1  O   UNL     1     -12.598  14.668  73.536  1.00  0.00    -0.464 OA 
HETATM    2  C   UNL     1     -13.490  14.320  72.578  1.00  0.00    -0.515 C  
HETATM    3  O   UNL     1     -14.411  13.557  72.809  1.00  0.00    -0.640 OA 
HETATM    4  C   UNL     1     -13.295  15.014  71.239  1.00  0.00    -0.438 C  
ENDROOT
BRANCH   4   5
HETATM    5  S   UNL     1     -11.550  15.520  70.960  1.00  0.00    -0.422 SA 
BRANCH   5   6
HETATM    6  C   UNL     1     -11.413  15.162  69.264  1.00  0.00    -0.311 A  
HETATM    7  N   UNL     1     -12.283  14.377  68.668  1.00  0.00    -0.219 NA 
HETATM    8  N   UNL     1     -11.847  14.158  67.399  1.00  0.00    -0.396 NA 
HETATM    9  C   UNL     1     -10.711  14.804  67.248  1.00  0.00    -0.294 A  
HETATM   10  N   UNL     1     -10.480  15.644  68.339  1.00  0.00    -0.237 NA 
HETATM   11 BR   UNL     1      -9.539  14.325  65.856  1.00  0.00    -0.164 Br 
BRANCH  10  12
HETATM   12  C   UNL     1      -9.441  16.635  68.463  1.00  0.00    -0.239 A  
HETATM   13  C   UNL     1      -8.266  16.292  69.135  1.00  0.00    -0.215 A  
HETATM   14  C   UNL     1      -7.174  17.156  69.143  1.00  0.00    -0.197 A  
HETATM   15  C   UNL     1      -7.172  18.370  68.442  1.00  0.00    -0.281 A  
HETATM   16  C   UNL     1      -8.457  20.014  67.139  1.00  0.00    -0.390 A  
HETATM   17  C   UNL     1      -8.379  18.771  67.812  1.00  0.00    -0.293 A  
HETATM   18  C   UNL     1      -9.628  20.466  66.538  1.00  0.00    -0.431 A  
HETATM   19  C   UNL     1      -9.544  17.938  67.862  1.00  0.00    -0.286 A  
HETATM   20  C   UNL     1     -10.746  18.500  67.346  1.00  0.00    -0.424 A  
HETATM   21  C   UNL     1     -10.782  19.720  66.664  1.00  0.00    -0.518 A  
BRANCH  15  22
HETATM   22  C   UNL     1      -5.885  19.189  68.461  1.00  0.00    -0.227 C  
HETATM   23  C   UNL     1      -5.994  20.686  68.688  1.00  0.00    -0.379 C  
HETATM   24  C   UNL     1      -5.335  19.827  69.713  1.00  0.00    -0.241 C  
ENDBRANCH  15  22
ENDBRANCH  10  12
ENDBRANCH   5   6
ENDBRANCH   4   5
TORSDOF 4
ENDMDL
MODEL       25
REMARK 921   NORMALIZED FREE ENERGY PREDICTED BY IDOCK:   -6.26 KCAL/MOL
REMARK 922        TOTAL FREE ENERGY PREDICTED BY IDOCK:   -8.60 KCAL/MOL
REMARK 923 INTER-LIGAND FREE ENERGY PREDICTED BY IDOCK:   -7.86 KCAL/MOL
REMARK 924 INTRA-LIGAND FREE ENERGY PREDICTED BY IDOCK:   -0.75 KCAL/MOL
REMARK 927      BINDING AFFINITY PREDICTED BY RF-SCORE:    0.00 PKD
ROOT
HETATM    1  O   UNL     1     -12.151  15.981  73.238  1.00  0.00    -0.461 OA 
HETATM    2  C   UNL     1     -13.074  15.369  72.456  1.00  0.00    -0.422 C  
HETATM    3  O   UNL     1     -14.022  14.773  72.935  1.00  0.00    -0.483 OA 
HETATM    4  C   UNL     1     -12.872  15.557  70.962  1.00  0.00    -0.482 C  
ENDROOT
BRANCH   4   5
HETATM    5  S   UNL     1     -11.112  15.857  70.524  1.00  0.00    -0.348 SA 
BRANCH   5   6
HETATM    6  C   UNL     1     -11.120  15.281  68.882  1.00  0.00    -0.266 A  
HETATM    7  N   UNL     1     -11.008  16.117  67.875  1.00  0.00    -0.334 NA 
HETATM    8  N   UNL     1     -11.196  15.414  66.726  1.00  0.00    -0.256 NA 
HETATM    9  C   UNL     1     -11.431  14.162  67.056  1.00  0.00    -0.352 A  
HETATM   10  N   UNL     1     -11.187  13.964  68.417  1.00  0.00    -0.250 NA 
HETATM   11 BR   UNL     1     -12.263  13.008  65.824  1.00  0.00    -0.478 Br 
BRANCH  10  12
HETATM   12  C   UNL     1     -11.163  12.704  69.117  1.00  0.00    -0.243 A  
HETATM   13  C   UNL     1     -12.126  12.465  70.098  1.00  0.00    -0.366 A  
HETATM   14  C   UNL     1     -12.244  11.209  70.688  1.00  0.00    -0.492 A  
HETATM   15  C   UNL     1     -11.455  10.118  70.296  1.00  0.00    -0.381 A  
HETATM   16  C   UNL     1      -9.554   9.309  68.961  1.00  0.00    -0.159 A  
HETATM   17  C   UNL     1     -10.421  10.357  69.351  1.00  0.00    -0.261 A  
HETATM   18  C   UNL     1      -8.504   9.503  68.067  1.00  0.00    -0.119 A  
HETATM   19  C   UNL     1     -10.225  11.662  68.793  1.00  0.00    -0.190 A  
HETATM   20  C   UNL     1      -9.065  11.836  67.987  1.00  0.00    -0.180 A  
HETATM   21  C   UNL     1      -8.244  10.774  67.599  1.00  0.00    -0.115 A  
BRANCH  15  22
HETATM   22  C   UNL     1     -11.736   8.774  70.959  1.00  0.00    -0.329 C  
HETATM   23  C   UNL     1     -11.082   8.489  72.300  1.00  0.00    -0.430 C  
HETATM   24  C   UNL     1     -12.564   8.633  72.213  1.00  0.00    -0.457 C  
ENDBRANCH  15  22
ENDBRANCH  10  12
ENDBRANCH   5   6
ENDBRANCH   4   5
TORSDOF 4
ENDMDL
MODEL       26
REMARK 921   NORMALIZED FREE ENERGY PREDICTED BY IDOCK:   -6.23 KCAL/MOL
REMARK 922        TOTAL FREE ENERGY PREDICTED BY IDOCK:   -8.57 KCAL/MOL
REMARK 923 INTER-LIGAND FREE ENERGY PREDICTED BY IDOCK:   -7.14 KCAL/MOL
REMARK 924 INTRA-LIGAND FREE ENERGY PREDICTED BY IDOCK:   -1.43 KCAL/MOL
REMARK 927      BINDING AFFINITY PREDICTED BY RF-SCORE:    0.00 PKD
ROOT
HETATM    1  O   UNL     1     -10.732  18.177  67.467  1.00  0.00    -0.412 OA 
HETATM    2  C   UNL     1      -9.926  19.129  67.997  1.00  0.00    -0.376 C  
HETATM    3  O   UNL     1     -10.371  20.038  68.675  1.00  0.00    -0.437 OA 
HETATM    4  C   UNL     1      -8.441  18.923  67.746  1.00  0.00    -0.284 C  
ENDROOT
BRANCH   4   5
HETATM    5  S   UNL     1      -8.116  17.961  66.213  1.00  0.00    -0.193 SA 
BRANCH   5   6
HETATM    6  C   UNL     1      -7.158  16.671  66.879  1.00  0.00    -0.229 A  
HETATM    7  N   UNL     1      -5.852  16.656  66.730  1.00  0.00    -0.326 NA 
HETATM    8  N   UNL     1      -5.391  15.472  67.213  1.00  0.00    -0.329 NA 
HETATM    9  C   UNL     1      -6.426  14.781  67.638  1.00  0.00    -0.139 A  
HETATM   10  N   UNL     1      -7.572  15.579  67.648  1.00  0.00    -0.145 NA 
HETATM   11 BR   UNL     1      -6.281  12.919  67.866  1.00  0.00    -0.141 Br 
BRANCH  10  12
HETATM   12  C   UNL     1      -8.857  15.241  68.206  1.00  0.00    -0.171 A  
HETATM   13  C   UNL     1      -9.117  15.572  69.537  1.00  0.00    -0.260 A  
HETATM   14  C   UNL     1     -10.392  15.413  70.074  1.00  0.00    -0.288 A  
HETATM   15  C   UNL     1     -11.480  14.973  69.307  1.00  0.00    -0.326 A  
HETATM   16  C   UNL     1     -12.270  14.053  67.166  1.00  0.00    -0.356 A  
HETATM   17  C   UNL     1     -11.224  14.562  67.971  1.00  0.00    -0.308 A  
HETATM   18  C   UNL     1     -12.060  13.604  65.865  1.00  0.00    -0.476 A  
HETATM   19  C   UNL     1      -9.902  14.637  67.423  1.00  0.00    -0.222 A  
HETATM   20  C   UNL     1      -9.717  14.049  66.140  1.00  0.00    -0.300 A  
HETATM   21  C   UNL     1     -10.777  13.578  65.360  1.00  0.00    -0.308 A  
BRANCH  15  22
HETATM   22  C   UNL     1     -12.843  14.918  69.989  1.00  0.00    -0.113 C  
HETATM   23  C   UNL     1     -12.987  14.055  71.230  1.00  0.00    -0.418 C  
HETATM   24  C   UNL     1     -13.113  15.537  71.338  1.00  0.00    -0.580 C  
ENDBRANCH  15  22
ENDBRANCH  10  12
ENDBRANCH   5   6
ENDBRANCH   4   5
TORSDOF 4
ENDMDL
MODEL       27
REMARK 921   NORMALIZED FREE ENERGY PREDICTED BY IDOCK:   -6.20 KCAL/MOL
REMARK 922        TOTAL FREE ENERGY PREDICTED BY IDOCK:   -8.54 KCAL/MOL
REMARK 923 INTER-LIGAND FREE ENERGY PREDICTED BY IDOCK:   -7.32 KCAL/MOL
REMARK 924 INTRA-LIGAND FREE ENERGY PREDICTED BY IDOCK:   -1.21 KCAL/MOL
REMARK 927      BINDING AFFINITY PREDICTED BY RF-SCORE:    0.00 PKD
ROOT
HETATM    1  O   UNL     1     -13.330  11.988  64.138  1.00  0.00    -0.725 OA 
HETATM    2  C   UNL     1     -12.033  12.251  63.847  1.00  0.00    -0.491 C  
HETATM    3  O   UNL     1     -11.340  11.455  63.240  1.00  0.00    -0.269 OA 
HETATM    4  C   UNL     1     -11.551  13.631  64.264  1.00  0.00    -0.382 C  
ENDROOT
BRANCH   4   5
HETATM    5  S   UNL     1     -12.499  14.304  65.688  1.00  0.00    -0.370 SA 
BRANCH   5   6
HETATM    6  C   UNL     1     -11.187  14.612  66.788  1.00  0.00    -0.344 A  
HETATM    7  N   UNL     1     -10.766  15.838  67.009  1.00  0.00    -0.317 NA 
HETATM    8  N   UNL     1      -9.651  15.763  67.782  1.00  0.00    -0.213 NA 
HETATM    9  C   UNL     1      -9.404  14.490  68.009  1.00  0.00    -0.201 A  
HETATM   10  N   UNL     1     -10.473  13.703  67.577  1.00  0.00    -0.240 NA 
HETATM   11 BR   UNL     1      -7.688  13.952  68.562  1.00  0.00    -0.134 Br 
BRANCH  10  12
HETATM   12  C   UNL     1     -10.657  12.292  67.806  1.00  0.00    -0.219 A  
HETATM   13  C   UNL     1     -10.113  11.389  66.891  1.00  0.00    -0.245 A  
HETATM   14  C   UNL     1     -10.124  10.021  67.150  1.00  0.00    -0.265 A  
HETATM   15  C   UNL     1     -10.622   9.487  68.348  1.00  0.00    -0.261 A  
HETATM   16  C   UNL     1     -11.819   9.893  70.458  1.00  0.00    -0.350 A  
HETATM   17  C   UNL     1     -11.245  10.380  69.260  1.00  0.00    -0.304 A  
HETATM   18  C   UNL     1     -12.472  10.724  71.365  1.00  0.00    -0.478 A  
HETATM   19  C   UNL     1     -11.321  11.782  68.976  1.00  0.00    -0.338 A  
HETATM   20  C   UNL     1     -12.107  12.565  69.868  1.00  0.00    -0.322 A  
HETATM   21  C   UNL     1     -12.639  12.058  71.057  1.00  0.00    -0.370 A  
BRANCH  15  22
HETATM   22  C   UNL     1     -10.503   7.980  68.547  1.00  0.00    -0.200 C  
HETATM   23  C   UNL     1      -9.335   7.263  67.892  1.00  0.00    -0.131 C  
HETATM   24  C   UNL     1      -9.416   7.344  69.379  1.00  0.00    -0.155 C  
ENDBRANCH  15  22
ENDBRANCH  10  12
ENDBRANCH   5   6
ENDBRANCH   4   5
TORSDOF 4
ENDMDL
MODEL       28
REMARK 921   NORMALIZED FREE ENERGY PREDICTED BY IDOCK:   -6.15 KCAL/MOL
REMARK 922        TOTAL FREE ENERGY PREDICTED BY IDOCK:   -8.47 KCAL/MOL
REMARK 923 INTER-LIGAND FREE ENERGY PREDICTED BY IDOCK:   -7.18 KCAL/MOL
REMARK 924 INTRA-LIGAND FREE ENERGY PREDICTED BY IDOCK:   -1.29 KCAL/MOL
REMARK 927      BINDING AFFINITY PREDICTED BY RF-SCORE:    0.00 PKD
ROOT
HETATM    1  O   UNL     1      -6.686  13.455  69.650  1.00  0.00    -0.059 OA 
HETATM    2  C   UNL     1      -7.244  14.233  68.691  1.00  0.00    -0.125 C  
HETATM    3  O   UNL     1      -7.442  15.422  68.869  1.00  0.00    -0.129 OA 
HETATM    4  C   UNL     1      -7.521  13.527  67.374  1.00  0.00    -0.122 C  
ENDROOT
BRANCH   4   5
HETATM    5  S   UNL     1      -7.783  11.720  67.589  1.00  0.00    -0.148 SA 
BRANCH   5   6
HETATM    6  C   UNL     1      -9.153  11.500  66.540  1.00  0.00    -0.194 A  
HETATM    7  N   UNL     1      -9.049  10.797  65.435  1.00  0.00    -0.189 NA 
HETATM    8  N   UNL     1     -10.217  10.920  64.750  1.00  0.00    -0.314 NA 
HETATM    9  C   UNL     1     -11.009  11.708  65.446  1.00  0.00    -0.270 A  
HETATM   10  N   UNL     1     -10.468  11.946  66.710  1.00  0.00    -0.216 NA 
HETATM   11 BR   UNL     1     -12.467  12.550  64.606  1.00  0.00    -0.480 Br 
BRANCH  10  12
HETATM   12  C   UNL     1     -11.112  12.611  67.815  1.00  0.00    -0.247 A  
HETATM   13  C   UNL     1     -11.739  11.834  68.791  1.00  0.00    -0.389 A  
HETATM   14  C   UNL     1     -12.233  12.417  69.955  1.00  0.00    -0.264 A  
HETATM   15  C   UNL     1     -12.081  13.783  70.234  1.00  0.00    -0.425 A  
HETATM   16  C   UNL     1     -11.385  15.999  69.425  1.00  0.00    -0.355 A  
HETATM   17  C   UNL     1     -11.511  14.604  69.225  1.00  0.00    -0.322 A  
HETATM   18  C   UNL     1     -10.867  16.849  68.451  1.00  0.00    -0.347 A  
HETATM   19  C   UNL     1     -11.072  14.040  67.983  1.00  0.00    -0.282 A  
HETATM   20  C   UNL     1     -10.670  14.964  66.977  1.00  0.00    -0.307 A  
HETATM   21  C   UNL     1     -10.533  16.334  67.216  1.00  0.00    -0.300 A  
BRANCH  15  22
HETATM   22  C   UNL     1     -12.592  14.285  71.581  1.00  0.00    -0.431 C  
HETATM   23  C   UNL     1     -14.012  14.819  71.651  1.00  0.00    -0.559 C  
HETATM   24  C   UNL     1     -13.654  13.567  72.376  1.00  0.00    -0.709 C  
ENDBRANCH  15  22
ENDBRANCH  10  12
ENDBRANCH   5   6
ENDBRANCH   4   5
TORSDOF 4
ENDMDL
MODEL       29
REMARK 921   NORMALIZED FREE ENERGY PREDICTED BY IDOCK:   -6.15 KCAL/MOL
REMARK 922        TOTAL FREE ENERGY PREDICTED BY IDOCK:   -8.47 KCAL/MOL
REMARK 923 INTER-LIGAND FREE ENERGY PREDICTED BY IDOCK:   -7.93 KCAL/MOL
REMARK 924 INTRA-LIGAND FREE ENERGY PREDICTED BY IDOCK:   -0.54 KCAL/MOL
REMARK 927      BINDING AFFINITY PREDICTED BY RF-SCORE:    0.00 PKD
ROOT
HETATM    1  O   UNL     1     -11.833  16.497  72.916  1.00  0.00    -0.519 OA 
HETATM    2  C   UNL     1     -12.907  15.911  72.333  1.00  0.00    -0.437 C  
HETATM    3  O   UNL     1     -13.923  15.673  72.961  1.00  0.00    -0.484 OA 
HETATM    4  C   UNL     1     -12.767  15.656  70.842  1.00  0.00    -0.445 C  
ENDROOT
BRANCH   4   5
HETATM    5  S   UNL     1     -11.013  15.455  70.327  1.00  0.00    -0.320 SA 
BRANCH   5   6
HETATM    6  C   UNL     1     -11.251  14.979  68.671  1.00  0.00    -0.278 A  
HETATM    7  N   UNL     1     -12.281  14.241  68.323  1.00  0.00    -0.237 NA 
HETATM    8  N   UNL     1     -12.130  13.902  67.015  1.00  0.00    -0.429 NA 
HETATM    9  C   UNL     1     -11.002  14.431  66.592  1.00  0.00    -0.318 A  
HETATM   10  N   UNL     1     -10.490  15.314  67.545  1.00  0.00    -0.260 NA 
HETATM   11 BR   UNL     1     -10.176  13.759  65.040  1.00  0.00    -0.330 Br 
BRANCH  10  12
HETATM   12  C   UNL     1      -9.375  16.211  67.382  1.00  0.00    -0.217 A  
HETATM   13  C   UNL     1      -8.099  15.670  67.214  1.00  0.00    -0.224 A  
HETATM   14  C   UNL     1      -7.017  16.486  66.894  1.00  0.00    -0.258 A  
HETATM   15  C   UNL     1      -7.155  17.864  66.671  1.00  0.00    -0.254 A  
HETATM   16  C   UNL     1      -8.616  19.841  66.758  1.00  0.00    -0.375 A  
HETATM   17  C   UNL     1      -8.428  18.446  66.908  1.00  0.00    -0.272 A  
HETATM   18  C   UNL     1      -9.835  20.463  67.013  1.00  0.00    -0.594 A  
HETATM   19  C   UNL     1      -9.538  17.640  67.320  1.00  0.00    -0.271 A  
HETATM   20  C   UNL     1     -10.723  18.337  67.691  1.00  0.00    -0.373 A  
HETATM   21  C   UNL     1     -10.883  19.713  67.505  1.00  0.00    -0.463 A  
BRANCH  15  22
HETATM   22  C   UNL     1      -5.909  18.634  66.246  1.00  0.00    -0.187 C  
HETATM   23  C   UNL     1      -5.248  18.254  64.932  1.00  0.00    -0.122 C  
HETATM   24  C   UNL     1      -5.892  19.591  65.080  1.00  0.00    -0.263 C  
ENDBRANCH  15  22
ENDBRANCH  10  12
ENDBRANCH   5   6
ENDBRANCH   4   5
TORSDOF 4
ENDMDL
MODEL       30
REMARK 921   NORMALIZED FREE ENERGY PREDICTED BY IDOCK:   -6.14 KCAL/MOL
REMARK 922        TOTAL FREE ENERGY PREDICTED BY IDOCK:   -8.46 KCAL/MOL
REMARK 923 INTER-LIGAND FREE ENERGY PREDICTED BY IDOCK:   -7.46 KCAL/MOL
REMARK 924 INTRA-LIGAND FREE ENERGY PREDICTED BY IDOCK:   -1.00 KCAL/MOL
REMARK 927      BINDING AFFINITY PREDICTED BY RF-SCORE:    0.00 PKD
ROOT
HETATM    1  O   UNL     1     -10.527   8.497  70.025  1.00  0.00    -0.213 OA 
HETATM    2  C   UNL     1      -9.506   9.383  70.123  1.00  0.00    -0.240 C  
HETATM    3  O   UNL     1      -8.625   9.254  70.955  1.00  0.00    -0.207 OA 
HETATM    4  C   UNL     1      -9.510  10.482  69.073  1.00  0.00    -0.201 C  
ENDROOT
BRANCH   4   5
HETATM    5  S   UNL     1     -11.199  10.842  68.442  1.00  0.00    -0.309 SA 
BRANCH   5   6
HETATM    6  C   UNL     1     -11.725  11.974  69.654  1.00  0.00    -0.335 A  
HETATM    7  N   UNL     1     -12.328  11.560  70.746  1.00  0.00    -0.391 NA 
HETATM    8  N   UNL     1     -12.754  12.656  71.428  1.00  0.00    -0.315 NA 
HETATM    9  C   UNL     1     -12.414  13.719  70.732  1.00  0.00    -0.370 A  
HETATM   10  N   UNL     1     -11.562  13.363  69.685  1.00  0.00    -0.284 NA 
HETATM   11 BR   UNL     1     -13.278  15.361  71.046  1.00  0.00    -0.521 Br 
BRANCH  10  12
HETATM   12  C   UNL     1     -10.841  14.256  68.814  1.00  0.00    -0.253 A  
HETATM   13  C   UNL     1      -9.742  14.949  69.325  1.00  0.00    -0.147 A  
HETATM   14  C   UNL     1      -8.919  15.696  68.487  1.00  0.00    -0.192 A  
HETATM   15  C   UNL     1      -9.111  15.750  67.099  1.00  0.00    -0.228 A  
HETATM   16  C   UNL     1     -10.543  15.182  65.181  1.00  0.00    -0.447 A  
HETATM   17  C   UNL     1     -10.263  15.113  66.567  1.00  0.00    -0.283 A  
HETATM   18  C   UNL     1     -11.678  14.605  64.619  1.00  0.00    -0.431 A  
HETATM   19  C   UNL     1     -11.172  14.408  67.421  1.00  0.00    -0.337 A  
HETATM   20  C   UNL     1     -12.377  13.948  66.820  1.00  0.00    -0.370 A  
HETATM   21  C   UNL     1     -12.610  14.009  65.443  1.00  0.00    -0.529 A  
BRANCH  15  22
HETATM   22  C   UNL     1      -8.093  16.536  66.280  1.00  0.00    -0.341 C  
HETATM   23  C   UNL     1      -8.089  18.050  66.409  1.00  0.00    -0.292 C  
HETATM   24  C   UNL     1      -6.923  17.260  66.899  1.00  0.00    -0.229 C  
ENDBRANCH  15  22
ENDBRANCH  10  12
ENDBRANCH   5   6
ENDBRANCH   4   5
TORSDOF 4
ENDMDL
MODEL       31
REMARK 921   NORMALIZED FREE ENERGY PREDICTED BY IDOCK:   -6.13 KCAL/MOL
REMARK 922        TOTAL FREE ENERGY PREDICTED BY IDOCK:   -8.44 KCAL/MOL
REMARK 923 INTER-LIGAND FREE ENERGY PREDICTED BY IDOCK:   -7.40 KCAL/MOL
REMARK 924 INTRA-LIGAND FREE ENERGY PREDICTED BY IDOCK:   -1.04 KCAL/MOL
REMARK 927      BINDING AFFINITY PREDICTED BY RF-SCORE:    0.00 PKD
ROOT
HETATM    1  O   UNL     1     -14.235  15.476  71.306  1.00  0.00    -0.544 OA 
HETATM    2  C   UNL     1     -13.661  14.344  71.780  1.00  0.00    -0.421 C  
HETATM    3  O   UNL     1     -14.215  13.647  72.612  1.00  0.00    -0.735 OA 
HETATM    4  C   UNL     1     -12.332  13.983  71.138  1.00  0.00    -0.365 C  
ENDROOT
BRANCH   4   5
HETATM    5  S   UNL     1     -11.444  15.456  70.488  1.00  0.00    -0.362 SA 
BRANCH   5   6
HETATM    6  C   UNL     1     -11.546  15.127  68.783  1.00  0.00    -0.349 A  
HETATM    7  N   UNL     1     -12.496  14.356  68.302  1.00  0.00     0.049 NA 
HETATM    8  N   UNL     1     -12.242  14.157  66.981  1.00  0.00    -0.406 NA 
HETATM    9  C   UNL     1     -11.133  14.800  66.684  1.00  0.00    -0.333 A  
HETATM   10  N   UNL     1     -10.748  15.620  67.746  1.00  0.00    -0.290 NA 
HETATM   11 BR   UNL     1     -10.169  14.340  65.135  1.00  0.00    -0.369 Br 
BRANCH  10  12
HETATM   12  C   UNL     1      -9.695  16.604  67.741  1.00  0.00    -0.240 A  
HETATM   13  C   UNL     1      -9.931  17.835  67.126  1.00  0.00    -0.322 A  
HETATM   14  C   UNL     1      -9.009  18.873  67.233  1.00  0.00    -0.298 A  
HETATM   15  C   UNL     1      -7.840  18.762  67.999  1.00  0.00    -0.297 A  
HETATM   16  C   UNL     1      -6.350  17.307  69.309  1.00  0.00    -0.239 A  
HETATM   17  C   UNL     1      -7.544  17.497  68.574  1.00  0.00    -0.266 A  
HETATM   18  C   UNL     1      -5.999  16.077  69.860  1.00  0.00    -0.169 A  
HETATM   19  C   UNL     1      -8.437  16.389  68.406  1.00  0.00    -0.204 A  
HETATM   20  C   UNL     1      -7.974  15.128  68.877  1.00  0.00    -0.178 A  
HETATM   21  C   UNL     1      -6.800  14.980  69.622  1.00  0.00    -0.183 A  
BRANCH  15  22
HETATM   22  C   UNL     1      -6.951  19.997  68.105  1.00  0.00    -0.330 C  
HETATM   23  C   UNL     1      -5.884  20.202  67.044  1.00  0.00    -0.192 C  
HETATM   24  C   UNL     1      -7.030  21.152  67.138  1.00  0.00    -0.359 C  
ENDBRANCH  15  22
ENDBRANCH  10  12
ENDBRANCH   5   6
ENDBRANCH   4   5
TORSDOF 4
ENDMDL
MODEL       32
REMARK 921   NORMALIZED FREE ENERGY PREDICTED BY IDOCK:   -6.11 KCAL/MOL
REMARK 922        TOTAL FREE ENERGY PREDICTED BY IDOCK:   -8.42 KCAL/MOL
REMARK 923 INTER-LIGAND FREE ENERGY PREDICTED BY IDOCK:   -7.38 KCAL/MOL
REMARK 924 INTRA-LIGAND FREE ENERGY PREDICTED BY IDOCK:   -1.04 KCAL/MOL
REMARK 927      BINDING AFFINITY PREDICTED BY RF-SCORE:    0.00 PKD
ROOT
HETATM    1  O   UNL     1     -12.998  12.432  64.804  1.00  0.00    -0.786 OA 
HETATM    2  C   UNL     1     -12.087  13.004  63.980  1.00  0.00    -0.450 C  
HETATM    3  O   UNL     1     -12.423  13.735  63.066  1.00  0.00    -0.712 OA 
HETATM    4  C   UNL     1     -10.636  12.725  64.337  1.00  0.00    -0.379 C  
ENDROOT
BRANCH   4   5
HETATM    5  S   UNL     1     -10.429  11.139  65.243  1.00  0.00    -0.241 SA 
BRANCH   5   6
HETATM    6  C   UNL     1      -9.462  11.692  66.578  1.00  0.00    -0.206 A  
HETATM    7  N   UNL     1      -8.787  12.817  66.500  1.00  0.00    -0.107 NA 
HETATM    8  N   UNL     1      -8.014  12.919  67.614  1.00  0.00    -0.154 NA 
HETATM    9  C   UNL     1      -8.223  11.846  68.346  1.00  0.00    -0.160 A  
HETATM   10  N   UNL     1      -9.301  11.116  67.843  1.00  0.00    -0.157 NA 
HETATM   11 BR   UNL     1      -6.973  11.350  69.663  1.00  0.00     0.051 Br 
BRANCH  10  12
HETATM   12  C   UNL     1      -9.944   9.983  68.461  1.00  0.00    -0.162 A  
HETATM   13  C   UNL     1      -9.535   8.700  68.096  1.00  0.00    -0.152 A  
HETATM   14  C   UNL     1     -10.008   7.581  68.777  1.00  0.00    -0.175 A  
HETATM   15  C   UNL     1     -10.863   7.683  69.884  1.00  0.00    -0.241 A  
HETATM   16  C   UNL     1     -12.261   9.132  71.297  1.00  0.00    -0.395 A  
HETATM   17  C   UNL     1     -11.349   8.972  70.227  1.00  0.00    -0.202 A  
HETATM   18  C   UNL     1     -12.792  10.370  71.648  1.00  0.00    -0.579 A  
HETATM   19  C   UNL     1     -10.942  10.130  69.487  1.00  0.00    -0.295 A  
HETATM   20  C   UNL     1     -11.609  11.347  69.801  1.00  0.00    -0.407 A  
HETATM   21  C   UNL     1     -12.486  11.476  70.882  1.00  0.00    -0.464 A  
BRANCH  15  22
HETATM   22  C   UNL     1     -11.246   6.389  70.595  1.00  0.00    -0.400 C  
HETATM   23  C   UNL     1     -10.349   5.178  70.406  1.00  0.00    -0.326 C  
HETATM   24  C   UNL     1     -10.457   5.820  71.748  1.00  0.00    -0.281 C  
ENDBRANCH  15  22
ENDBRANCH  10  12
ENDBRANCH   5   6
ENDBRANCH   4   5
TORSDOF 4
ENDMDL
MODEL       33
REMARK 921   NORMALIZED FREE ENERGY PREDICTED BY IDOCK:   -6.11 KCAL/MOL
REMARK 922        TOTAL FREE ENERGY PREDICTED BY IDOCK:   -8.42 KCAL/MOL
REMARK 923 INTER-LIGAND FREE ENERGY PREDICTED BY IDOCK:   -7.49 KCAL/MOL
REMARK 924 INTRA-LIGAND FREE ENERGY PREDICTED BY IDOCK:   -0.93 KCAL/MOL
REMARK 927      BINDING AFFINITY PREDICTED BY RF-SCORE:    0.00 PKD
ROOT
HETATM    1  O   UNL     1      -9.954  12.180  63.002  1.00  0.00    -0.352 OA 
HETATM    2  C   UNL     1      -9.905  11.010  63.683  1.00  0.00    -0.351 C  
HETATM    3  O   UNL     1      -9.518   9.981  63.158  1.00  0.00    -0.299 OA 
HETATM    4  C   UNL     1     -10.289  11.106  65.151  1.00  0.00    -0.293 C  
ENDROOT
BRANCH   4   5
HETATM    5  S   UNL     1     -11.434  12.506  65.485  1.00  0.00    -0.366 SA 
BRANCH   5   6
HETATM    6  C   UNL     1     -11.541  12.383  67.217  1.00  0.00    -0.365 A  
HETATM    7  N   UNL     1     -11.900  11.257  67.791  1.00  0.00    -0.638 NA 
HETATM    8  N   UNL     1     -12.043  11.495  69.122  1.00  0.00    -0.325 NA 
HETATM    9  C   UNL     1     -11.780  12.767  69.333  1.00  0.00    -0.319 A  
HETATM   10  N   UNL     1     -11.244  13.349  68.184  1.00  0.00    -0.259 NA 
HETATM   11 BR   UNL     1     -12.381  13.599  70.910  1.00  0.00    -0.417 Br 
BRANCH  10  12
HETATM   12  C   UNL     1     -10.671  14.667  68.068  1.00  0.00    -0.246 A  
HETATM   13  C   UNL     1     -11.522  15.773  68.116  1.00  0.00    -0.302 A  
HETATM   14  C   UNL     1     -11.006  17.065  68.170  1.00  0.00    -0.263 A  
HETATM   15  C   UNL     1      -9.629  17.322  68.235  1.00  0.00    -0.288 A  
HETATM   16  C   UNL     1      -7.344  16.418  68.114  1.00  0.00    -0.151 A  
HETATM   17  C   UNL     1      -8.745  16.217  68.115  1.00  0.00    -0.182 A  
HETATM   18  C   UNL     1      -6.439  15.372  67.962  1.00  0.00    -0.148 A  
HETATM   19  C   UNL     1      -9.252  14.885  67.973  1.00  0.00    -0.185 A  
HETATM   20  C   UNL     1      -8.293  13.870  67.694  1.00  0.00    -0.183 A  
HETATM   21  C   UNL     1      -6.915  14.098  67.726  1.00  0.00    -0.189 A  
BRANCH  15  22
HETATM   22  C   UNL     1      -9.192  18.777  68.374  1.00  0.00    -0.376 C  
HETATM   23  C   UNL     1      -9.274  19.667  67.146  1.00  0.00    -0.419 C  
HETATM   24  C   UNL     1     -10.159  19.934  68.317  1.00  0.00    -0.571 C  
ENDBRANCH  15  22
ENDBRANCH  10  12
ENDBRANCH   5   6
ENDBRANCH   4   5
TORSDOF 4
ENDMDL
MODEL       34
REMARK 921   NORMALIZED FREE ENERGY PREDICTED BY IDOCK:   -6.09 KCAL/MOL
REMARK 922        TOTAL FREE ENERGY PREDICTED BY IDOCK:   -8.39 KCAL/MOL
REMARK 923 INTER-LIGAND FREE ENERGY PREDICTED BY IDOCK:   -7.50 KCAL/MOL
REMARK 924 INTRA-LIGAND FREE ENERGY PREDICTED BY IDOCK:   -0.89 KCAL/MOL
REMARK 927      BINDING AFFINITY PREDICTED BY RF-SCORE:    0.00 PKD
ROOT
HETATM    1  O   UNL     1     -12.549   8.358  71.546  1.00  0.00    -0.303 OA 
HETATM    2  C   UNL     1     -13.452   9.309  71.886  1.00  0.00    -0.430 C  
HETATM    3  O   UNL     1     -14.393   9.064  72.620  1.00  0.00    -0.603 OA 
HETATM    4  C   UNL     1     -13.150  10.699  71.349  1.00  0.00    -0.400 C  
ENDROOT
BRANCH   4   5
HETATM    5  S   UNL     1     -12.157  10.653  69.803  1.00  0.00    -0.231 SA 
BRANCH   5   6
HETATM    6  C   UNL     1     -11.717  12.332  69.692  1.00  0.00    -0.316 A  
HETATM    7  N   UNL     1     -12.038  13.177  70.646  1.00  0.00    -0.325 NA 
HETATM    8  N   UNL     1     -11.705  14.427  70.226  1.00  0.00    -0.288 NA 
HETATM    9  C   UNL     1     -11.198  14.322  69.017  1.00  0.00    -0.266 A  
HETATM   10  N   UNL     1     -10.980  12.981  68.695  1.00  0.00    -0.256 NA 
HETATM   11 BR   UNL     1     -11.125  15.833  67.897  1.00  0.00    -0.301 Br 
BRANCH  10  12
HETATM   12  C   UNL     1     -10.283  12.470  67.542  1.00  0.00    -0.217 A  
HETATM   13  C   UNL     1      -8.979  12.000  67.702  1.00  0.00    -0.172 A  
HETATM   14  C   UNL     1      -8.323  11.351  66.659  1.00  0.00    -0.172 A  
HETATM   15  C   UNL     1      -8.945  11.088  65.430  1.00  0.00    -0.192 A  
HETATM   16  C   UNL     1     -10.900  11.439  63.979  1.00  0.00    -0.450 A  
HETATM   17  C   UNL     1     -10.245  11.620  65.220  1.00  0.00    -0.316 A  
HETATM   18  C   UNL     1     -12.158  11.972  63.714  1.00  0.00    -0.599 A  
HETATM   19  C   UNL     1     -10.907  12.365  66.250  1.00  0.00    -0.299 A  
HETATM   20  C   UNL     1     -12.130  12.995  65.886  1.00  0.00    -0.503 A  
HETATM   21  C   UNL     1     -12.764  12.773  64.660  1.00  0.00    -0.439 A  
BRANCH  15  22
HETATM   22  C   UNL     1      -8.149  10.297  64.396  1.00  0.00    -0.149 C  
HETATM   23  C   UNL     1      -6.968   9.475  64.881  1.00  0.00    -0.106 C  
HETATM   24  C   UNL     1      -8.168   8.790  64.321  1.00  0.00    -0.164 C  
ENDBRANCH  15  22
ENDBRANCH  10  12
ENDBRANCH   5   6
ENDBRANCH   4   5
TORSDOF 4
ENDMDL
MODEL       35
REMARK 921   NORMALIZED FREE ENERGY PREDICTED BY IDOCK:   -6.08 KCAL/MOL
REMARK 922        TOTAL FREE ENERGY PREDICTED BY IDOCK:   -8.39 KCAL/MOL
REMARK 923 INTER-LIGAND FREE ENERGY PREDICTED BY IDOCK:   -7.38 KCAL/MOL
REMARK 924 INTRA-LIGAND FREE ENERGY PREDICTED BY IDOCK:   -1.01 KCAL/MOL
REMARK 927      BINDING AFFINITY PREDICTED BY RF-SCORE:    0.00 PKD
ROOT
HETATM    1  O   UNL     1      -6.600  10.632  70.565  1.00  0.00    -0.293 OA 
HETATM    2  C   UNL     1      -7.557   9.701  70.333  1.00  0.00    -0.163 C  
HETATM    3  O   UNL     1      -7.590   8.651  70.950  1.00  0.00    -0.070 OA 
HETATM    4  C   UNL     1      -8.609  10.105  69.313  1.00  0.00    -0.174 C  
ENDROOT
BRANCH   4   5
HETATM    5  S   UNL     1      -7.975  11.332  68.100  1.00  0.00    -0.138 SA 
BRANCH   5   6
HETATM    6  C   UNL     1      -9.269  11.285  66.938  1.00  0.00    -0.175 A  
HETATM    7  N   UNL     1      -9.153  10.590  65.829  1.00  0.00    -0.171 NA 
HETATM    8  N   UNL     1     -10.239  10.856  65.055  1.00  0.00    -0.289 NA 
HETATM    9  C   UNL     1     -10.992  11.719  65.702  1.00  0.00    -0.295 A  
HETATM   10  N   UNL     1     -10.535  11.876  67.012  1.00  0.00    -0.219 NA 
HETATM   11 BR   UNL     1     -12.271  12.734  64.767  1.00  0.00    -0.545 Br 
BRANCH  10  12
HETATM   12  C   UNL     1     -11.189  12.595  68.076  1.00  0.00    -0.265 A  
HETATM   13  C   UNL     1     -11.884  11.870  69.046  1.00  0.00    -0.368 A  
HETATM   14  C   UNL     1     -12.394  12.501  70.177  1.00  0.00    -0.210 A  
HETATM   15  C   UNL     1     -12.194  13.866  70.429  1.00  0.00    -0.438 A  
HETATM   16  C   UNL     1     -11.375  16.030  69.594  1.00  0.00    -0.332 A  
HETATM   17  C   UNL     1     -11.553  14.637  69.423  1.00  0.00    -0.342 A  
HETATM   18  C   UNL     1     -10.785  16.833  68.622  1.00  0.00    -0.352 A  
HETATM   19  C   UNL     1     -11.094  14.025  68.212  1.00  0.00    -0.275 A  
HETATM   20  C   UNL     1     -10.617  14.905  67.200  1.00  0.00    -0.285 A  
HETATM   21  C   UNL     1     -10.429  16.274  67.412  1.00  0.00    -0.304 A  
BRANCH  15  22
HETATM   22  C   UNL     1     -12.732  14.422  71.743  1.00  0.00    -0.427 C  
HETATM   23  C   UNL     1     -14.126  15.025  71.746  1.00  0.00    -0.621 C  
HETATM   24  C   UNL     1     -13.857  13.774  72.512  1.00  0.00    -0.626 C  
ENDBRANCH  15  22
ENDBRANCH  10  12
ENDBRANCH   5   6
ENDBRANCH   4   5
TORSDOF 4
ENDMDL
MODEL       36
REMARK 921   NORMALIZED FREE ENERGY PREDICTED BY IDOCK:   -6.04 KCAL/MOL
REMARK 922        TOTAL FREE ENERGY PREDICTED BY IDOCK:   -8.33 KCAL/MOL
REMARK 923 INTER-LIGAND FREE ENERGY PREDICTED BY IDOCK:   -7.09 KCAL/MOL
REMARK 924 INTRA-LIGAND FREE ENERGY PREDICTED BY IDOCK:   -1.25 KCAL/MOL
REMARK 927      BINDING AFFINITY PREDICTED BY RF-SCORE:    0.00 PKD
ROOT
HETATM    1  O   UNL     1      -9.793  18.392  65.927  1.00  0.00    -0.517 OA 
HETATM    2  C   UNL     1     -10.189  19.103  67.010  1.00  0.00    -0.393 C  
HETATM    3  O   UNL     1     -11.281  19.641  67.057  1.00  0.00    -0.319 OA 
HETATM    4  C   UNL     1      -9.205  19.104  68.169  1.00  0.00    -0.327 C  
ENDROOT
BRANCH   4   5
HETATM    5  S   UNL     1      -7.470  18.849  67.617  1.00  0.00    -0.226 SA 
BRANCH   5   6
HETATM    6  C   UNL     1      -7.022  17.539  68.670  1.00  0.00    -0.232 A  
HETATM    7  N   UNL     1      -6.094  17.699  69.586  1.00  0.00    -0.252 NA 
HETATM    8  N   UNL     1      -5.849  16.485  70.148  1.00  0.00    -0.201 NA 
HETATM    9  C   UNL     1      -6.626  15.604  69.555  1.00  0.00    -0.179 A  
HETATM   10  N   UNL     1      -7.558  16.249  68.740  1.00  0.00    -0.186 NA 
HETATM   11 BR   UNL     1      -6.212  13.771  69.656  1.00  0.00    -0.118 Br 
BRANCH  10  12
HETATM   12  C   UNL     1      -8.682  15.647  68.067  1.00  0.00    -0.167 A  
HETATM   13  C   UNL     1      -8.548  15.297  66.722  1.00  0.00    -0.300 A  
HETATM   14  C   UNL     1      -9.543  14.570  66.074  1.00  0.00    -0.305 A  
HETATM   15  C   UNL     1     -10.688  14.108  66.737  1.00  0.00    -0.286 A  
HETATM   16  C   UNL     1     -12.045  14.126  68.789  1.00  0.00    -0.326 A  
HETATM   17  C   UNL     1     -10.879  14.512  68.085  1.00  0.00    -0.246 A  
HETATM   18  C   UNL     1     -12.293  14.528  70.099  1.00  0.00    -0.398 A  
HETATM   19  C   UNL     1      -9.909  15.332  68.749  1.00  0.00    -0.217 A  
HETATM   20  C   UNL     1     -10.270  15.819  70.037  1.00  0.00    -0.241 A  
HETATM   21  C   UNL     1     -11.417  15.397  70.715  1.00  0.00    -0.385 A  
BRANCH  15  22
HETATM   22  C   UNL     1     -11.664  13.252  65.937  1.00  0.00    -0.403 C  
HETATM   23  C   UNL     1     -12.740  13.960  65.132  1.00  0.00    -0.434 C  
HETATM   24  C   UNL     1     -11.667  13.200  64.429  1.00  0.00    -0.429 C  
ENDBRANCH  15  22
ENDBRANCH  10  12
ENDBRANCH   5   6
ENDBRANCH   4   5
TORSDOF 4
ENDMDL
MODEL       37
REMARK 921   NORMALIZED FREE ENERGY PREDICTED BY IDOCK:   -5.99 KCAL/MOL
REMARK 922        TOTAL FREE ENERGY PREDICTED BY IDOCK:   -8.28 KCAL/MOL
REMARK 923 INTER-LIGAND FREE ENERGY PREDICTED BY IDOCK:   -7.82 KCAL/MOL
REMARK 924 INTRA-LIGAND FREE ENERGY PREDICTED BY IDOCK:   -0.46 KCAL/MOL
REMARK 927      BINDING AFFINITY PREDICTED BY RF-SCORE:    0.00 PKD
ROOT
HETATM    1  O   UNL     1     -10.132  16.020  65.257  1.00  0.00    -0.475 OA 
HETATM    2  C   UNL     1     -11.294  15.748  64.614  1.00  0.00    -0.337 C  
HETATM    3  O   UNL     1     -11.733  16.485  63.750  1.00  0.00    -1.086 OA 
HETATM    4  C   UNL     1     -11.945  14.430  65.000  1.00  0.00    -0.412 C  
ENDROOT
BRANCH   4   5
HETATM    5  S   UNL     1     -11.502  13.901  66.704  1.00  0.00    -0.373 SA 
BRANCH   5   6
HETATM    6  C   UNL     1     -10.548  12.495  66.331  1.00  0.00    -0.247 A  
HETATM    7  N   UNL     1      -9.832  12.439  65.230  1.00  0.00    -0.211 NA 
HETATM    8  N   UNL     1      -9.320  11.184  65.129  1.00  0.00    -0.220 NA 
HETATM    9  C   UNL     1      -9.744  10.492  66.165  1.00  0.00    -0.209 A  
HETATM   10  N   UNL     1     -10.365  11.334  67.090  1.00  0.00    -0.201 NA 
HETATM   11 BR   UNL     1      -9.713   8.611  66.113  1.00  0.00    -0.238 Br 
BRANCH  10  12
HETATM   12  C   UNL     1     -10.801  10.987  68.419  1.00  0.00    -0.220 A  
HETATM   13  C   UNL     1     -12.126  11.243  68.777  1.00  0.00    -0.258 A  
HETATM   14  C   UNL     1     -12.637  10.782  69.988  1.00  0.00    -0.247 A  
HETATM   15  C   UNL     1     -11.881  10.001  70.873  1.00  0.00    -0.459 A  
HETATM   16  C   UNL     1      -9.682   9.059  71.448  1.00  0.00    -0.369 A  
HETATM   17  C   UNL     1     -10.511   9.789  70.563  1.00  0.00    -0.366 A  
HETATM   18  C   UNL     1      -8.327   8.856  71.205  1.00  0.00    -0.232 A  
HETATM   19  C   UNL     1      -9.940  10.325  69.364  1.00  0.00    -0.254 A  
HETATM   20  C   UNL     1      -8.529  10.201  69.226  1.00  0.00    -0.167 A  
HETATM   21  C   UNL     1      -7.743   9.450  70.105  1.00  0.00    -0.140 A  
BRANCH  15  22
HETATM   22  C   UNL     1     -12.580   9.488  72.128  1.00  0.00    -0.411 C  
HETATM   23  C   UNL     1     -13.939   8.828  71.970  1.00  0.00    -0.511 C  
HETATM   24  C   UNL     1     -12.771   8.020  72.422  1.00  0.00    -0.177 C  
ENDBRANCH  15  22
ENDBRANCH  10  12
ENDBRANCH   5   6
ENDBRANCH   4   5
TORSDOF 4
ENDMDL
MODEL       38
REMARK 921   NORMALIZED FREE ENERGY PREDICTED BY IDOCK:   -5.98 KCAL/MOL
REMARK 922        TOTAL FREE ENERGY PREDICTED BY IDOCK:   -8.26 KCAL/MOL
REMARK 923 INTER-LIGAND FREE ENERGY PREDICTED BY IDOCK:   -7.07 KCAL/MOL
REMARK 924 INTRA-LIGAND FREE ENERGY PREDICTED BY IDOCK:   -1.19 KCAL/MOL
REMARK 927      BINDING AFFINITY PREDICTED BY RF-SCORE:    0.00 PKD
ROOT
HETATM    1  O   UNL     1      -6.726   9.118  67.594  1.00  0.00    -0.067 OA 
HETATM    2  C   UNL     1      -7.834   9.299  68.353  1.00  0.00    -0.094 C  
HETATM    3  O   UNL     1      -8.396   8.364  68.895  1.00  0.00    -0.117 OA 
HETATM    4  C   UNL     1      -8.258  10.747  68.531  1.00  0.00    -0.136 C  
ENDROOT
BRANCH   4   5
HETATM    5  S   UNL     1      -7.717  11.813  67.135  1.00  0.00    -0.160 SA 
BRANCH   5   6
HETATM    6  C   UNL     1      -9.066  11.588  66.060  1.00  0.00    -0.198 A  
HETATM    7  N   UNL     1      -9.011  10.708  65.085  1.00  0.00    -0.193 NA 
HETATM    8  N   UNL     1     -10.130  10.855  64.327  1.00  0.00    -0.325 NA 
HETATM    9  C   UNL     1     -10.842  11.831  64.848  1.00  0.00    -0.298 A  
HETATM   10  N   UNL     1     -10.321  12.206  66.087  1.00  0.00    -0.229 NA 
HETATM   11 BR   UNL     1     -12.155  12.691  63.809  1.00  0.00    -0.639 Br 
BRANCH  10  12
HETATM   12  C   UNL     1     -10.915  13.111  67.038  1.00  0.00    -0.269 A  
HETATM   13  C   UNL     1     -11.695  12.582  68.068  1.00  0.00    -0.410 A  
HETATM   14  C   UNL     1     -12.157  13.395  69.100  1.00  0.00    -0.306 A  
HETATM   15  C   UNL     1     -11.824  14.754  69.192  1.00  0.00    -0.340 A  
HETATM   16  C   UNL     1     -10.777  16.708  68.126  1.00  0.00    -0.349 A  
HETATM   17  C   UNL     1     -11.092  15.329  68.119  1.00  0.00    -0.309 A  
HETATM   18  C   UNL     1     -10.094  17.323  67.080  1.00  0.00    -0.297 A  
HETATM   19  C   UNL     1     -10.678  14.530  67.003  1.00  0.00    -0.291 A  
HETATM   20  C   UNL     1     -10.099  15.228  65.907  1.00  0.00    -0.359 A  
HETATM   21  C   UNL     1      -9.777  16.588  65.957  1.00  0.00    -0.331 A  
BRANCH  15  22
HETATM   22  C   UNL     1     -12.323  15.517  70.414  1.00  0.00    -0.451 C  
HETATM   23  C   UNL     1     -12.521  14.745  71.707  1.00  0.00    -0.410 C  
HETATM   24  C   UNL     1     -11.462  15.791  71.622  1.00  0.00    -0.495 C  
ENDBRANCH  15  22
ENDBRANCH  10  12
ENDBRANCH   5   6
ENDBRANCH   4   5
TORSDOF 4
ENDMDL
MODEL       39
REMARK 921   NORMALIZED FREE ENERGY PREDICTED BY IDOCK:   -5.89 KCAL/MOL
REMARK 922        TOTAL FREE ENERGY PREDICTED BY IDOCK:   -8.15 KCAL/MOL
REMARK 923 INTER-LIGAND FREE ENERGY PREDICTED BY IDOCK:   -7.15 KCAL/MOL
REMARK 924 INTRA-LIGAND FREE ENERGY PREDICTED BY IDOCK:   -1.00 KCAL/MOL
REMARK 927      BINDING AFFINITY PREDICTED BY RF-SCORE:    0.00 PKD
ROOT
HETATM    1  O   UNL     1      -6.607  18.764  67.694  1.00  0.00    -0.204 OA 
HETATM    2  C   UNL     1      -7.754  19.330  67.245  1.00  0.00    -0.245 C  
HETATM    3  O   UNL     1      -8.066  20.468  67.546  1.00  0.00    -0.314 OA 
HETATM    4  C   UNL     1      -8.559  18.467  66.287  1.00  0.00    -0.205 C  
ENDROOT
BRANCH   4   5
HETATM    5  S   UNL     1      -8.267  16.671  66.546  1.00  0.00    -0.321 SA 
BRANCH   5   6
HETATM    6  C   UNL     1      -9.738  16.256  67.378  1.00  0.00    -0.234 A  
HETATM    7  N   UNL     1     -10.446  17.176  67.994  1.00  0.00    -0.354 NA 
HETATM    8  N   UNL     1     -11.443  16.550  68.673  1.00  0.00    -0.248 NA 
HETATM    9  C   UNL     1     -11.318  15.257  68.468  1.00  0.00    -0.327 A  
HETATM   10  N   UNL     1     -10.370  15.012  67.473  1.00  0.00    -0.239 NA 
HETATM   11 BR   UNL     1     -12.144  14.038  69.640  1.00  0.00    -0.401 Br 
BRANCH  10  12
HETATM   12  C   UNL     1     -10.079  13.746  66.848  1.00  0.00    -0.260 A  
HETATM   13  C   UNL     1      -9.163  12.891  67.462  1.00  0.00    -0.192 A  
HETATM   14  C   UNL     1      -8.968  11.597  66.987  1.00  0.00    -0.182 A  
HETATM   15  C   UNL     1      -9.709  11.070  65.920  1.00  0.00    -0.267 A  
HETATM   16  C   UNL     1     -11.325  11.486  64.113  1.00  0.00    -0.349 A  
HETATM   17  C   UNL     1     -10.594  11.944  65.235  1.00  0.00    -0.320 A  
HETATM   18  C   UNL     1     -12.176  12.315  63.387  1.00  0.00    -0.630 A  
HETATM   19  C   UNL     1     -10.748  13.305  65.652  1.00  0.00    -0.292 A  
HETATM   20  C   UNL     1     -11.528  14.142  64.804  1.00  0.00    -0.384 A  
HETATM   21  C   UNL     1     -12.258  13.652  63.718  1.00  0.00    -0.413 A  
BRANCH  15  22
HETATM   22  C   UNL     1      -9.461   9.612  65.547  1.00  0.00    -0.330 C  
HETATM   23  C   UNL     1      -8.413   8.842  66.332  1.00  0.00    -0.127 C  
HETATM   24  C   UNL     1      -9.850   8.457  66.437  1.00  0.00    -0.310 C  
ENDBRANCH  15  22
ENDBRANCH  10  12
ENDBRANCH   5   6
ENDBRANCH   4   5
TORSDOF 4
ENDMDL
MODEL       40
REMARK 921   NORMALIZED FREE ENERGY PREDICTED BY IDOCK:   -5.85 KCAL/MOL
REMARK 922        TOTAL FREE ENERGY PREDICTED BY IDOCK:   -8.10 KCAL/MOL
REMARK 923 INTER-LIGAND FREE ENERGY PREDICTED BY IDOCK:   -7.12 KCAL/MOL
REMARK 924 INTRA-LIGAND FREE ENERGY PREDICTED BY IDOCK:   -0.99 KCAL/MOL
REMARK 927      BINDING AFFINITY PREDICTED BY RF-SCORE:    0.00 PKD
ROOT
HETATM    1  O   UNL     1      -6.452  11.362  69.485  1.00  0.00    -0.096 OA 
HETATM    2  C   UNL     1      -7.582  10.630  69.642  1.00  0.00    -0.092 C  
HETATM    3  O   UNL     1      -7.723   9.867  70.580  1.00  0.00    -0.289 OA 
HETATM    4  C   UNL     1      -8.667  10.899  68.612  1.00  0.00    -0.154 C  
ENDROOT
BRANCH   4   5
HETATM    5  S   UNL     1      -7.986  11.507  67.017  1.00  0.00    -0.165 SA 
BRANCH   5   6
HETATM    6  C   UNL     1      -9.459  11.629  66.101  1.00  0.00    -0.224 A  
HETATM    7  N   UNL     1      -9.950  10.585  65.472  1.00  0.00    -0.262 NA 
HETATM    8  N   UNL     1     -11.007  11.005  64.727  1.00  0.00    -0.162 NA 
HETATM    9  C   UNL     1     -11.134  12.302  64.907  1.00  0.00    -0.311 A  
HETATM   10  N   UNL     1     -10.304  12.734  65.943  1.00  0.00    -0.277 NA 
HETATM   11 BR   UNL     1     -12.104  13.330  63.664  1.00  0.00    -0.493 Br 
BRANCH  10  12
HETATM   12  C   UNL     1     -10.286  14.040  66.550  1.00  0.00    -0.279 A  
HETATM   13  C   UNL     1      -9.703  15.097  65.849  1.00  0.00    -0.385 A  
HETATM   14  C   UNL     1      -9.803  16.404  66.319  1.00  0.00    -0.336 A  
HETATM   15  C   UNL     1     -10.528  16.733  67.473  1.00  0.00    -0.319 A  
HETATM   16  C   UNL     1     -11.759  15.933  69.447  1.00  0.00    -0.350 A  
HETATM   17  C   UNL     1     -11.067  15.668  68.241  1.00  0.00    -0.336 A  
HETATM   18  C   UNL     1     -12.273  14.920  70.251  1.00  0.00    -0.389 A  
HETATM   19  C   UNL     1     -10.905  14.307  67.822  1.00  0.00    -0.259 A  
HETATM   20  C   UNL     1     -11.335  13.308  68.740  1.00  0.00    -0.331 A  
HETATM   21  C   UNL     1     -12.038  13.604  69.911  1.00  0.00    -0.406 A  
BRANCH  15  22
HETATM   22  C   UNL     1     -10.631  18.211  67.838  1.00  0.00    -0.389 C  
HETATM   23  C   UNL     1      -9.517  19.138  67.384  1.00  0.00    -0.362 C  
HETATM   24  C   UNL     1     -10.888  19.294  66.820  1.00  0.00    -0.451 C  
ENDBRANCH  15  22
ENDBRANCH  10  12
ENDBRANCH   5   6
ENDBRANCH   4   5
TORSDOF 4
ENDMDL
MODEL       41
REMARK 921   NORMALIZED FREE ENERGY PREDICTED BY IDOCK:   -5.82 KCAL/MOL
REMARK 922        TOTAL FREE ENERGY PREDICTED BY IDOCK:   -8.06 KCAL/MOL
REMARK 923 INTER-LIGAND FREE ENERGY PREDICTED BY IDOCK:   -7.08 KCAL/MOL
REMARK 924 INTRA-LIGAND FREE ENERGY PREDICTED BY IDOCK:   -0.98 KCAL/MOL
REMARK 927      BINDING AFFINITY PREDICTED BY RF-SCORE:    0.00 PKD
ROOT
HETATM    1  O   UNL     1     -12.668   9.907  71.865  1.00  0.00    -0.394 OA 
HETATM    2  C   UNL     1     -11.679   8.982  71.801  1.00  0.00    -0.369 C  
HETATM    3  O   UNL     1     -11.466   8.211  72.719  1.00  0.00    -0.408 OA 
HETATM    4  C   UNL     1     -10.927   8.940  70.481  1.00  0.00    -0.241 C  
ENDROOT
BRANCH   4   5
HETATM    5  S   UNL     1     -10.956  10.556  69.605  1.00  0.00    -0.298 SA 
BRANCH   5   6
HETATM    6  C   UNL     1     -10.432  10.040  68.029  1.00  0.00    -0.218 A  
HETATM    7  N   UNL     1     -10.566   8.788  67.651  1.00  0.00    -0.243 NA 
HETATM    8  N   UNL     1      -9.942   8.646  66.451  1.00  0.00    -0.278 NA 
HETATM    9  C   UNL     1      -9.428   9.812  66.125  1.00  0.00    -0.205 A  
HETATM   10  N   UNL     1      -9.887  10.805  66.993  1.00  0.00    -0.183 NA 
HETATM   11 BR   UNL     1      -8.054   9.905  64.843  1.00  0.00    -0.153 Br 
BRANCH  10  12
HETATM   12  C   UNL     1      -9.691  12.227  66.861  1.00  0.00    -0.212 A  
HETATM   13  C   UNL     1      -8.560  12.804  67.442  1.00  0.00    -0.194 A  
HETATM   14  C   UNL     1      -8.243  14.139  67.208  1.00  0.00    -0.200 A  
HETATM   15  C   UNL     1      -8.996  14.950  66.346  1.00  0.00    -0.254 A  
HETATM   16  C   UNL     1     -11.021  15.193  64.972  1.00  0.00    -0.443 A  
HETATM   17  C   UNL     1     -10.189  14.405  65.801  1.00  0.00    -0.355 A  
HETATM   18  C   UNL     1     -12.218  14.716  64.444  1.00  0.00    -0.473 A  
HETATM   19  C   UNL     1     -10.581  13.059  66.096  1.00  0.00    -0.289 A  
HETATM   20  C   UNL     1     -11.870  12.663  65.640  1.00  0.00    -0.488 A  
HETATM   21  C   UNL     1     -12.656  13.457  64.800  1.00  0.00    -0.370 A  
BRANCH  15  22
HETATM   22  C   UNL     1      -8.498  16.372  66.108  1.00  0.00    -0.329 C  
HETATM   23  C   UNL     1      -8.758  17.409  67.187  1.00  0.00    -0.239 C  
HETATM   24  C   UNL     1      -7.360  16.986  66.885  1.00  0.00    -0.244 C  
ENDBRANCH  15  22
ENDBRANCH  10  12
ENDBRANCH   5   6
ENDBRANCH   4   5
TORSDOF 4
ENDMDL
MODEL       42
REMARK 921   NORMALIZED FREE ENERGY PREDICTED BY IDOCK:   -5.78 KCAL/MOL
REMARK 922        TOTAL FREE ENERGY PREDICTED BY IDOCK:   -8.01 KCAL/MOL
REMARK 923 INTER-LIGAND FREE ENERGY PREDICTED BY IDOCK:   -7.18 KCAL/MOL
REMARK 924 INTRA-LIGAND FREE ENERGY PREDICTED BY IDOCK:   -0.83 KCAL/MOL
REMARK 927      BINDING AFFINITY PREDICTED BY RF-SCORE:    0.00 PKD
ROOT
HETATM    1  O   UNL     1     -10.472  15.635  69.954  1.00  0.00    -0.284 OA 
HETATM    2  C   UNL     1     -10.020  16.476  68.992  1.00  0.00    -0.275 C  
HETATM    3  O   UNL     1     -10.463  17.604  68.871  1.00  0.00    -0.351 OA 
HETATM    4  C   UNL     1      -8.880  15.929  68.149  1.00  0.00    -0.176 C  
ENDROOT
BRANCH   4   5
HETATM    5  S   UNL     1      -8.889  14.092  68.064  1.00  0.00    -0.190 SA 
BRANCH   5   6
HETATM    6  C   UNL     1      -9.729  13.877  66.556  1.00  0.00    -0.294 A  
HETATM    7  N   UNL     1      -9.762  14.837  65.660  1.00  0.00    -0.322 NA 
HETATM    8  N   UNL     1     -10.603  14.450  64.664  1.00  0.00    -0.383 NA 
HETATM    9  C   UNL     1     -11.077  13.264  64.978  1.00  0.00    -0.309 A  
HETATM   10  N   UNL     1     -10.394  12.742  66.078  1.00  0.00    -0.271 NA 
HETATM   11 BR   UNL     1     -12.650  12.637  64.157  1.00  0.00    -0.407 Br 
BRANCH  10  12
HETATM   12  C   UNL     1     -10.502  11.407  66.609  1.00  0.00    -0.243 A  
HETATM   13  C   UNL     1     -10.015  10.342  65.850  1.00  0.00    -0.317 A  
HETATM   14  C   UNL     1      -9.949   9.058  66.384  1.00  0.00    -0.370 A  
HETATM   15  C   UNL     1     -10.308   8.778  67.710  1.00  0.00    -0.297 A  
HETATM   16  C   UNL     1     -11.310   9.594  69.803  1.00  0.00    -0.159 A  
HETATM   17  C   UNL     1     -10.873   9.830  68.478  1.00  0.00    -0.227 A  
HETATM   18  C   UNL     1     -11.903  10.584  70.582  1.00  0.00    -0.458 A  
HETATM   19  C   UNL     1     -11.030  11.141  67.921  1.00  0.00    -0.307 A  
HETATM   20  C   UNL     1     -11.755  12.079  68.709  1.00  0.00    -0.377 A  
HETATM   21  C   UNL     1     -12.149  11.822  70.025  1.00  0.00    -0.387 A  
BRANCH  15  22
HETATM   22  C   UNL     1     -10.113   7.347  68.202  1.00  0.00    -0.210 C  
HETATM   23  C   UNL     1     -11.007   6.265  67.623  1.00  0.00    -0.438 C  
HETATM   24  C   UNL     1      -9.544   6.250  67.336  1.00  0.00    -0.129 C  
ENDBRANCH  15  22
ENDBRANCH  10  12
ENDBRANCH   5   6
ENDBRANCH   4   5
TORSDOF 4
ENDMDL
MODEL       43
REMARK 921   NORMALIZED FREE ENERGY PREDICTED BY IDOCK:   -5.76 KCAL/MOL
REMARK 922        TOTAL FREE ENERGY PREDICTED BY IDOCK:   -7.98 KCAL/MOL
REMARK 923 INTER-LIGAND FREE ENERGY PREDICTED BY IDOCK:   -6.95 KCAL/MOL
REMARK 924 INTRA-LIGAND FREE ENERGY PREDICTED BY IDOCK:   -1.04 KCAL/MOL
REMARK 927      BINDING AFFINITY PREDICTED BY RF-SCORE:    0.00 PKD
ROOT
HETATM    1  O   UNL     1     -11.731  16.056  69.773  1.00  0.00    -0.319 OA 
HETATM    2  C   UNL     1     -12.555  15.230  70.465  1.00  0.00    -0.399 C  
HETATM    3  O   UNL     1     -13.360  15.661  71.271  1.00  0.00    -0.508 OA 
HETATM    4  C   UNL     1     -12.445  13.760  70.095  1.00  0.00    -0.267 C  
ENDROOT
BRANCH   4   5
HETATM    5  S   UNL     1     -10.787  13.326  69.430  1.00  0.00     0.168 SA 
BRANCH   5   6
HETATM    6  C   UNL     1     -11.215  12.992  67.778  1.00  0.00    -0.279 A  
HETATM    7  N   UNL     1     -12.045  12.018  67.481  1.00  0.00    -0.515 NA 
HETATM    8  N   UNL     1     -12.077  11.894  66.128  1.00  0.00    -0.427 NA 
HETATM    9  C   UNL     1     -11.254  12.789  65.624  1.00  0.00    -0.301 A  
HETATM   10  N   UNL     1     -10.827  13.671  66.618  1.00  0.00    -0.282 NA 
HETATM   11 BR   UNL     1     -10.610  12.586  63.868  1.00  0.00    -0.480 Br 
BRANCH  10  12
HETATM   12  C   UNL     1     -10.067  14.881  66.432  1.00  0.00    -0.284 A  
HETATM   13  C   UNL     1     -10.711  16.004  65.910  1.00  0.00    -0.287 A  
HETATM   14  C   UNL     1     -10.065  17.236  65.862  1.00  0.00    -0.226 A  
HETATM   15  C   UNL     1      -8.776  17.429  66.378  1.00  0.00    -0.275 A  
HETATM   16  C   UNL     1      -6.749  16.408  67.326  1.00  0.00    -0.221 A  
HETATM   17  C   UNL     1      -8.075  16.287  66.848  1.00  0.00    -0.270 A  
HETATM   18  C   UNL     1      -6.009  15.312  67.763  1.00  0.00    -0.157 A  
HETATM   19  C   UNL     1      -8.688  14.992  66.829  1.00  0.00    -0.293 A  
HETATM   20  C   UNL     1      -7.849  13.891  67.164  1.00  0.00    -0.036 A  
HETATM   21  C   UNL     1      -6.551  14.048  67.658  1.00  0.00    -0.175 A  
BRANCH  15  22
HETATM   22  C   UNL     1      -8.210  18.845  66.341  1.00  0.00    -0.306 C  
HETATM   23  C   UNL     1      -9.171  20.004  66.542  1.00  0.00    -0.471 C  
HETATM   24  C   UNL     1      -8.118  19.727  67.562  1.00  0.00    -0.337 C  
ENDBRANCH  15  22
ENDBRANCH  10  12
ENDBRANCH   5   6
ENDBRANCH   4   5
TORSDOF 4
ENDMDL
MODEL       44
REMARK 921   NORMALIZED FREE ENERGY PREDICTED BY IDOCK:   -5.69 KCAL/MOL
REMARK 922        TOTAL FREE ENERGY PREDICTED BY IDOCK:   -7.90 KCAL/MOL
REMARK 923 INTER-LIGAND FREE ENERGY PREDICTED BY IDOCK:   -7.09 KCAL/MOL
REMARK 924 INTRA-LIGAND FREE ENERGY PREDICTED BY IDOCK:   -0.80 KCAL/MOL
REMARK 927      BINDING AFFINITY PREDICTED BY RF-SCORE:    0.00 PKD
ROOT
HETATM    1  O   UNL     1     -12.093  16.402  72.487  1.00  0.00    -0.516 OA 
HETATM    2  C   UNL     1     -13.121  15.695  71.957  1.00  0.00    -0.459 C  
HETATM    3  O   UNL     1     -14.200  15.620  72.518  1.00  0.00    -0.557 OA 
HETATM    4  C   UNL     1     -12.843  15.085  70.594  1.00  0.00    -0.363 C  
ENDROOT
BRANCH   4   5
HETATM    5  S   UNL     1     -11.054  14.760  70.323  1.00  0.00    -0.085 SA 
BRANCH   5   6
HETATM    6  C   UNL     1     -11.085  14.362  68.630  1.00  0.00    -0.251 A  
HETATM    7  N   UNL     1     -11.403  15.266  67.731  1.00  0.00    -0.334 NA 
HETATM    8  N   UNL     1     -11.492  14.643  66.526  1.00  0.00    -0.355 NA 
HETATM    9  C   UNL     1     -11.238  13.366  66.714  1.00  0.00    -0.310 A  
HETATM   10  N   UNL     1     -10.760  13.151  68.008  1.00  0.00    -0.227 NA 
HETATM   11 BR   UNL     1     -11.783  12.102  65.431  1.00  0.00    -0.321 Br 
BRANCH  10  12
HETATM   12  C   UNL     1     -10.212  11.927  68.536  1.00  0.00    -0.215 A  
HETATM   13  C   UNL     1      -8.928  11.544  68.144  1.00  0.00    -0.172 A  
HETATM   14  C   UNL     1      -8.294  10.461  68.746  1.00  0.00    -0.134 A  
HETATM   15  C   UNL     1      -8.875   9.742  69.800  1.00  0.00    -0.241 A  
HETATM   16  C   UNL     1     -10.870   9.338  71.183  1.00  0.00    -0.407 A  
HETATM   17  C   UNL     1     -10.208  10.067  70.166  1.00  0.00    -0.297 A  
HETATM   18  C   UNL     1     -12.187   9.597  71.551  1.00  0.00    -0.483 A  
HETATM   19  C   UNL     1     -10.913  11.124  69.503  1.00  0.00    -0.276 A  
HETATM   20  C   UNL     1     -12.292  11.263  69.825  1.00  0.00    -0.277 A  
HETATM   21  C   UNL     1     -12.908  10.544  70.853  1.00  0.00    -0.485 A  
BRANCH  15  22
HETATM   22  C   UNL     1      -8.045   8.628  70.431  1.00  0.00    -0.107 C  
HETATM   23  C   UNL     1      -8.483   7.192  70.199  1.00  0.00    -0.139 C  
HETATM   24  C   UNL     1      -7.195   7.678  69.624  1.00  0.00    -0.079 C  
ENDBRANCH  15  22
ENDBRANCH  10  12
ENDBRANCH   5   6
ENDBRANCH   4   5
TORSDOF 4
ENDMDL
MODEL       45
REMARK 921   NORMALIZED FREE ENERGY PREDICTED BY IDOCK:   -5.68 KCAL/MOL
REMARK 922        TOTAL FREE ENERGY PREDICTED BY IDOCK:   -7.89 KCAL/MOL
REMARK 923 INTER-LIGAND FREE ENERGY PREDICTED BY IDOCK:   -7.24 KCAL/MOL
REMARK 924 INTRA-LIGAND FREE ENERGY PREDICTED BY IDOCK:   -0.65 KCAL/MOL
REMARK 927      BINDING AFFINITY PREDICTED BY RF-SCORE:    0.00 PKD
ROOT
HETATM    1  O   UNL     1     -11.396  15.872  71.314  1.00  0.00    -0.379 OA 
HETATM    2  C   UNL     1     -12.552  15.580  70.669  1.00  0.00    -0.443 C  
HETATM    3  O   UNL     1     -13.638  15.751  71.194  1.00  0.00    -0.576 OA 
HETATM    4  C   UNL     1     -12.382  15.107  69.234  1.00  0.00    -0.093 C  
ENDROOT
BRANCH   4   5
HETATM    5  S   UNL     1     -10.752  14.308  68.948  1.00  0.00    -0.252 SA 
BRANCH   5   6
HETATM    6  C   UNL     1     -11.184  12.651  69.252  1.00  0.00    -0.193 A  
HETATM    7  N   UNL     1     -11.943  12.330  70.276  1.00  0.00    -0.335 NA 
HETATM    8  N   UNL     1     -11.990  10.973  70.352  1.00  0.00    -0.340 NA 
HETATM    9  C   UNL     1     -11.248  10.491  69.378  1.00  0.00    -0.269 A  
HETATM   10  N   UNL     1     -10.871  11.511  68.503  1.00  0.00    -0.202 NA 
HETATM   11 BR   UNL     1     -10.622   8.718  69.466  1.00  0.00    -0.201 Br 
BRANCH  10  12
HETATM   12  C   UNL     1     -10.209  11.360  67.232  1.00  0.00    -0.199 A  
HETATM   13  C   UNL     1      -8.949  10.759  67.201  1.00  0.00    -0.145 A  
HETATM   14  C   UNL     1      -8.341  10.446  65.988  1.00  0.00    -0.149 A  
HETATM   15  C   UNL     1      -8.971  10.661  64.754  1.00  0.00    -0.218 A  
HETATM   16  C   UNL     1     -10.877  11.636  63.542  1.00  0.00    -0.497 A  
HETATM   17  C   UNL     1     -10.220  11.337  64.759  1.00  0.00    -0.347 A  
HETATM   18  C   UNL     1     -12.083  12.328  63.495  1.00  0.00    -0.649 A  
HETATM   19  C   UNL     1     -10.827  11.745  65.991  1.00  0.00    -0.343 A  
HETATM   20  C   UNL     1     -11.990  12.559  65.883  1.00  0.00    -0.472 A  
HETATM   21  C   UNL     1     -12.628  12.813  64.666  1.00  0.00    -0.491 A  
BRANCH  15  22
HETATM   22  C   UNL     1      -8.235  10.200  63.501  1.00  0.00    -0.165 C  
HETATM   23  C   UNL     1      -7.039   9.279  63.673  1.00  0.00    -0.094 C  
HETATM   24  C   UNL     1      -8.272   8.776  63.002  1.00  0.00    -0.188 C  
ENDBRANCH  15  22
ENDBRANCH  10  12
ENDBRANCH   5   6
ENDBRANCH   4   5
TORSDOF 4
ENDMDL
MODEL       46
REMARK 921   NORMALIZED FREE ENERGY PREDICTED BY IDOCK:   -5.67 KCAL/MOL
REMARK 922        TOTAL FREE ENERGY PREDICTED BY IDOCK:   -7.87 KCAL/MOL
REMARK 923 INTER-LIGAND FREE ENERGY PREDICTED BY IDOCK:   -6.85 KCAL/MOL
REMARK 924 INTRA-LIGAND FREE ENERGY PREDICTED BY IDOCK:   -1.03 KCAL/MOL
REMARK 927      BINDING AFFINITY PREDICTED BY RF-SCORE:    0.00 PKD
ROOT
HETATM    1  O   UNL     1     -12.454  13.108  63.278  1.00  0.00    -0.720 OA 
HETATM    2  C   UNL     1     -12.490  14.145  64.151  1.00  0.00    -0.227 C  
HETATM    3  O   UNL     1     -12.589  15.297  63.770  1.00  0.00    -0.733 OA 
HETATM    4  C   UNL     1     -12.479  13.746  65.617  1.00  0.00    -0.503 C  
ENDROOT
BRANCH   4   5
HETATM    5  S   UNL     1     -11.660  12.124  65.897  1.00  0.00    -0.308 SA 
BRANCH   5   6
HETATM    6  C   UNL     1     -10.309  12.644  66.861  1.00  0.00    -0.233 A  
HETATM    7  N   UNL     1      -9.771  13.830  66.682  1.00  0.00    -0.280 NA 
HETATM    8  N   UNL     1      -8.656  13.903  67.457  1.00  0.00    -0.181 NA 
HETATM    9  C   UNL     1      -8.528  12.755  68.085  1.00  0.00    -0.177 A  
HETATM   10  N   UNL     1      -9.672  11.975  67.912  1.00  0.00    -0.189 NA 
HETATM   11 BR   UNL     1      -6.862  12.263  68.809  1.00  0.00    -0.095 Br 
BRANCH  10  12
HETATM   12  C   UNL     1      -9.986  10.737  68.580  1.00  0.00    -0.178 A  
HETATM   13  C   UNL     1     -10.537  10.788  69.861  1.00  0.00    -0.130 A  
HETATM   14  C   UNL     1     -11.003   9.632  70.482  1.00  0.00    -0.374 A  
HETATM   15  C   UNL     1     -10.999   8.384  69.844  1.00  0.00    -0.166 A  
HETATM   16  C   UNL     1     -10.290   7.051  67.902  1.00  0.00    -0.247 A  
HETATM   17  C   UNL     1     -10.378   8.295  68.570  1.00  0.00    -0.230 A  
HETATM   18  C   UNL     1      -9.659   6.908  66.669  1.00  0.00    -0.218 A  
HETATM   19  C   UNL     1      -9.814   9.456  67.947  1.00  0.00    -0.197 A  
HETATM   20  C   UNL     1      -9.071   9.234  66.753  1.00  0.00    -0.170 A  
HETATM   21  C   UNL     1      -9.026   7.996  66.106  1.00  0.00    -0.215 A  
BRANCH  15  22
HETATM   22  C   UNL     1     -11.613   7.209  70.598  1.00  0.00    -0.354 C  
HETATM   23  C   UNL     1     -11.451   7.165  72.107  1.00  0.00    -0.306 C  
HETATM   24  C   UNL     1     -12.806   7.351  71.512  1.00  0.00    -0.416 C  
ENDBRANCH  15  22
ENDBRANCH  10  12
ENDBRANCH   5   6
ENDBRANCH   4   5
TORSDOF 4
ENDMDL
MODEL       47
REMARK 921   NORMALIZED FREE ENERGY PREDICTED BY IDOCK:   -5.65 KCAL/MOL
REMARK 922        TOTAL FREE ENERGY PREDICTED BY IDOCK:   -7.85 KCAL/MOL
REMARK 923 INTER-LIGAND FREE ENERGY PREDICTED BY IDOCK:   -6.70 KCAL/MOL
REMARK 924 INTRA-LIGAND FREE ENERGY PREDICTED BY IDOCK:   -1.15 KCAL/MOL
REMARK 927      BINDING AFFINITY PREDICTED BY RF-SCORE:    0.00 PKD
ROOT
HETATM    1  O   UNL     1      -6.183  12.704  69.120  1.00  0.00    -0.084 OA 
HETATM    2  C   UNL     1      -6.412  13.104  67.845  1.00  0.00    -0.138 C  
HETATM    3  O   UNL     1      -5.800  14.032  67.347  1.00  0.00    -0.352 OA 
HETATM    4  C   UNL     1      -7.420  12.261  67.082  1.00  0.00    -0.113 C  
ENDROOT
BRANCH   4   5
HETATM    5  S   UNL     1      -8.633  11.439  68.193  1.00  0.00    -0.159 SA 
BRANCH   5   6
HETATM    6  C   UNL     1     -10.105  11.827  67.352  1.00  0.00    -0.195 A  
HETATM    7  N   UNL     1     -10.808  10.890  66.757  1.00  0.00    -0.251 NA 
HETATM    8  N   UNL     1     -11.809  11.495  66.064  1.00  0.00    -0.186 NA 
HETATM    9  C   UNL     1     -11.689  12.793  66.238  1.00  0.00    -0.402 A  
HETATM   10  N   UNL     1     -10.743  13.066  67.227  1.00  0.00    -0.248 NA 
HETATM   11 BR   UNL     1     -12.520  13.981  65.038  1.00  0.00    -0.428 Br 
BRANCH  10  12
HETATM   12  C   UNL     1     -10.457  14.348  67.822  1.00  0.00    -0.245 A  
HETATM   13  C   UNL     1      -9.689  15.264  67.101  1.00  0.00    -0.220 A  
HETATM   14  C   UNL     1      -9.521  16.568  67.561  1.00  0.00    -0.224 A  
HETATM   15  C   UNL     1     -10.148  17.042  68.722  1.00  0.00    -0.307 A  
HETATM   16  C   UNL     1     -11.480  16.513  70.721  1.00  0.00    -0.045 A  
HETATM   17  C   UNL     1     -10.875  16.108  69.508  1.00  0.00    -0.329 A  
HETATM   18  C   UNL     1     -12.171  15.627  71.543  1.00  0.00    -0.487 A  
HETATM   19  C   UNL     1     -10.991  14.740  69.100  1.00  0.00    -0.277 A  
HETATM   20  C   UNL     1     -11.594  13.851  70.034  1.00  0.00    -0.282 A  
HETATM   21  C   UNL     1     -12.206  14.288  71.212  1.00  0.00    -0.426 A  
BRANCH  15  22
HETATM   22  C   UNL     1      -9.952  18.512  69.075  1.00  0.00    -0.323 C  
HETATM   23  C   UNL     1      -8.807  19.259  68.412  1.00  0.00    -0.395 C  
HETATM   24  C   UNL     1     -10.216  19.635  68.101  1.00  0.00    -0.580 C  
ENDBRANCH  15  22
ENDBRANCH  10  12
ENDBRANCH   5   6
ENDBRANCH   4   5
TORSDOF 4
ENDMDL
MODEL       48
REMARK 921   NORMALIZED FREE ENERGY PREDICTED BY IDOCK:   -5.64 KCAL/MOL
REMARK 922        TOTAL FREE ENERGY PREDICTED BY IDOCK:   -7.84 KCAL/MOL
REMARK 923 INTER-LIGAND FREE ENERGY PREDICTED BY IDOCK:   -6.81 KCAL/MOL
REMARK 924 INTRA-LIGAND FREE ENERGY PREDICTED BY IDOCK:   -1.03 KCAL/MOL
REMARK 927      BINDING AFFINITY PREDICTED BY RF-SCORE:    0.00 PKD
ROOT
HETATM    1  O   UNL     1     -12.570  12.628  65.337  1.00  0.00    -0.641 OA 
HETATM    2  C   UNL     1     -12.066  12.445  64.093  1.00  0.00    -0.453 C  
HETATM    3  O   UNL     1     -12.571  12.968  63.116  1.00  0.00    -0.649 OA 
HETATM    4  C   UNL     1     -10.796  11.613  64.033  1.00  0.00    -0.392 C  
ENDROOT
BRANCH   4   5
HETATM    5  S   UNL     1     -10.662  10.436  65.440  1.00  0.00     0.293 SA 
BRANCH   5   6
HETATM    6  C   UNL     1      -9.157  10.976  66.126  1.00  0.00    -0.192 A  
HETATM    7  N   UNL     1      -8.023  10.800  65.486  1.00  0.00    -0.113 NA 
HETATM    8  N   UNL     1      -7.013  11.177  66.315  1.00  0.00    -0.096 NA 
HETATM    9  C   UNL     1      -7.551  11.566  67.451  1.00  0.00    -0.135 A  
HETATM   10  N   UNL     1      -8.938  11.663  67.325  1.00  0.00    -0.165 NA 
HETATM   11 BR   UNL     1      -6.498  11.640  69.009  1.00  0.00    -0.090 Br 
BRANCH  10  12
HETATM   12  C   UNL     1      -9.857  12.219  68.286  1.00  0.00    -0.217 A  
HETATM   13  C   UNL     1     -10.189  13.571  68.191  1.00  0.00    -0.249 A  
HETATM   14  C   UNL     1     -11.190  14.116  68.991  1.00  0.00    -0.303 A  
HETATM   15  C   UNL     1     -11.947  13.339  69.880  1.00  0.00    -0.400 A  
HETATM   16  C   UNL     1     -12.266  11.158  70.972  1.00  0.00    -0.438 A  
HETATM   17  C   UNL     1     -11.578  11.977  70.045  1.00  0.00    -0.275 A  
HETATM   18  C   UNL     1     -11.918   9.828  71.195  1.00  0.00    -0.463 A  
HETATM   19  C   UNL     1     -10.495  11.415  69.294  1.00  0.00    -0.104 A  
HETATM   20  C   UNL     1     -10.098  10.095  69.651  1.00  0.00    -0.265 A  
HETATM   21  C   UNL     1     -10.815   9.303  70.552  1.00  0.00    -0.318 A  
BRANCH  15  22
HETATM   22  C   UNL     1     -13.070  14.036  70.640  1.00  0.00    -0.178 C  
HETATM   23  C   UNL     1     -12.869  14.309  72.120  1.00  0.00    -0.424 C  
HETATM   24  C   UNL     1     -12.957  15.448  71.162  1.00  0.00    -0.545 C  
ENDBRANCH  15  22
ENDBRANCH  10  12
ENDBRANCH   5   6
ENDBRANCH   4   5
TORSDOF 4
ENDMDL
MODEL       49
REMARK 921   NORMALIZED FREE ENERGY PREDICTED BY IDOCK:   -5.64 KCAL/MOL
REMARK 922        TOTAL FREE ENERGY PREDICTED BY IDOCK:   -7.84 KCAL/MOL
REMARK 923 INTER-LIGAND FREE ENERGY PREDICTED BY IDOCK:   -6.75 KCAL/MOL
REMARK 924 INTRA-LIGAND FREE ENERGY PREDICTED BY IDOCK:   -1.09 KCAL/MOL
REMARK 927      BINDING AFFINITY PREDICTED BY RF-SCORE:    0.00 PKD
ROOT
HETATM    1  O   UNL     1      -6.849  16.347  69.853  1.00  0.00    -0.103 OA 
HETATM    2  C   UNL     1      -5.966  17.348  69.615  1.00  0.00    -0.248 C  
HETATM    3  O   UNL     1      -5.701  18.180  70.463  1.00  0.00    -0.218 OA 
HETATM    4  C   UNL     1      -5.290  17.295  68.254  1.00  0.00    -0.132 C  
ENDROOT
BRANCH   4   5
HETATM    5  S   UNL     1      -6.316  16.435  66.994  1.00  0.00    -0.071 SA 
BRANCH   5   6
HETATM    6  C   UNL     1      -7.415  17.720  66.590  1.00  0.00    -0.228 A  
HETATM    7  N   UNL     1      -6.973  18.934  66.348  1.00  0.00    -0.212 NA 
HETATM    8  N   UNL     1      -8.051  19.751  66.212  1.00  0.00    -0.329 NA 
HETATM    9  C   UNL     1      -9.132  19.022  66.385  1.00  0.00    -0.329 A  
HETATM   10  N   UNL     1      -8.803  17.666  66.421  1.00  0.00    -0.375 NA 
HETATM   11 BR   UNL     1     -10.766  19.854  66.810  1.00  0.00    -0.331 Br 
BRANCH  10  12
HETATM   12  C   UNL     1      -9.719  16.553  66.422  1.00  0.00    -0.285 A  
HETATM   13  C   UNL     1      -9.932  15.861  65.228  1.00  0.00    -0.121 A  
HETATM   14  C   UNL     1     -10.679  14.686  65.211  1.00  0.00    -0.396 A  
HETATM   15  C   UNL     1     -11.203  14.112  66.378  1.00  0.00    -0.328 A  
HETATM   16  C   UNL     1     -11.618  14.337  68.792  1.00  0.00    -0.357 A  
HETATM   17  C   UNL     1     -11.060  14.836  67.592  1.00  0.00    -0.311 A  
HETATM   18  C   UNL     1     -11.536  15.027  69.998  1.00  0.00    -0.310 A  
HETATM   19  C   UNL     1     -10.368  16.090  67.620  1.00  0.00    -0.284 A  
HETATM   20  C   UNL     1     -10.422  16.814  68.844  1.00  0.00    -0.332 A  
HETATM   21  C   UNL     1     -10.959  16.281  70.019  1.00  0.00    -0.356 A  
BRANCH  15  22
HETATM   22  C   UNL     1     -11.933  12.780  66.238  1.00  0.00    -0.460 C  
HETATM   23  C   UNL     1     -12.196  12.254  64.838  1.00  0.00    -0.410 C  
HETATM   24  C   UNL     1     -11.262  11.523  65.742  1.00  0.00    -0.228 C  
ENDBRANCH  15  22
ENDBRANCH  10  12
ENDBRANCH   5   6
ENDBRANCH   4   5
TORSDOF 4
ENDMDL
MODEL       50
REMARK 921   NORMALIZED FREE ENERGY PREDICTED BY IDOCK:   -5.64 KCAL/MOL
REMARK 922        TOTAL FREE ENERGY PREDICTED BY IDOCK:   -7.84 KCAL/MOL
REMARK 923 INTER-LIGAND FREE ENERGY PREDICTED BY IDOCK:   -6.77 KCAL/MOL
REMARK 924 INTRA-LIGAND FREE ENERGY PREDICTED BY IDOCK:   -1.07 KCAL/MOL
REMARK 927      BINDING AFFINITY PREDICTED BY RF-SCORE:    0.00 PKD
ROOT
HETATM    1  O   UNL     1     -12.895   7.775  71.813  1.00  0.00    -0.319 OA 
HETATM    2  C   UNL     1     -12.693   9.115  71.846  1.00  0.00    -0.389 C  
HETATM    3  O   UNL     1     -13.552   9.881  72.246  1.00  0.00    -0.402 OA 
HETATM    4  C   UNL     1     -11.303   9.563  71.426  1.00  0.00    -0.392 C  
ENDROOT
BRANCH   4   5
HETATM    5  S   UNL     1     -10.502   8.375  70.272  1.00  0.00    -0.222 SA 
BRANCH   5   6
HETATM    6  C   UNL     1      -9.090   9.296  69.844  1.00  0.00    -0.191 A  
HETATM    7  N   UNL     1      -7.937   9.074  70.434  1.00  0.00    -0.111 NA 
HETATM    8  N   UNL     1      -7.064  10.028  70.014  1.00  0.00    -0.129 NA 
HETATM    9  C   UNL     1      -7.705  10.822  69.185  1.00  0.00    -0.138 A  
HETATM   10  N   UNL     1      -8.953  10.286  68.865  1.00  0.00    -0.154 NA 
HETATM   11 BR   UNL     1      -7.028  12.540  68.820  1.00  0.00    -0.084 Br 
BRANCH  10  12
HETATM   12  C   UNL     1      -9.871  10.767  67.863  1.00  0.00    -0.167 A  
HETATM   13  C   UNL     1     -10.907  11.616  68.256  1.00  0.00    -0.260 A  
HETATM   14  C   UNL     1     -11.719  12.233  67.308  1.00  0.00    -0.394 A  
HETATM   15  C   UNL     1     -11.511  12.084  65.929  1.00  0.00    -0.392 A  
HETATM   16  C   UNL     1     -10.292  10.932  64.130  1.00  0.00    -0.432 A  
HETATM   17  C   UNL     1     -10.509  11.170  65.508  1.00  0.00    -0.317 A  
HETATM   18  C   UNL     1      -9.347  10.019  63.669  1.00  0.00    -0.301 A  
HETATM   19  C   UNL     1      -9.717  10.458  66.466  1.00  0.00    -0.241 A  
HETATM   20  C   UNL     1      -8.859   9.446  65.949  1.00  0.00    -0.193 A  
HETATM   21  C   UNL     1      -8.648   9.256  64.581  1.00  0.00    -0.209 A  
BRANCH  15  22
HETATM   22  C   UNL     1     -12.417  12.878  64.993  1.00  0.00    -0.553 C  
HETATM   23  C   UNL     1     -13.012  14.177  65.507  1.00  0.00    -0.303 C  
HETATM   24  C   UNL     1     -12.020  14.205  64.394  1.00  0.00    -0.478 C  
ENDBRANCH  15  22
ENDBRANCH  10  12
ENDBRANCH   5   6
ENDBRANCH   4   5
TORSDOF 4
ENDMDL
MODEL       51
REMARK 921   NORMALIZED FREE ENERGY PREDICTED BY IDOCK:   -5.63 KCAL/MOL
REMARK 922        TOTAL FREE ENERGY PREDICTED BY IDOCK:   -7.83 KCAL/MOL
REMARK 923 INTER-LIGAND FREE ENERGY PREDICTED BY IDOCK:   -7.01 KCAL/MOL
REMARK 924 INTRA-LIGAND FREE ENERGY PREDICTED BY IDOCK:   -0.82 KCAL/MOL
REMARK 927      BINDING AFFINITY PREDICTED BY RF-SCORE:    0.00 PKD
ROOT
HETATM    1  O   UNL     1     -11.369   7.787  73.167  1.00  0.00    -0.374 OA 
HETATM    2  C   UNL     1     -10.708   6.642  72.871  1.00  0.00    -0.255 C  
HETATM    3  O   UNL     1      -9.792   6.235  73.563  1.00  0.00    -0.159 OA 
HETATM    4  C   UNL     1     -11.251   5.882  71.671  1.00  0.00    -0.237 C  
ENDROOT
BRANCH   4   5
HETATM    5  S   UNL     1     -12.101   6.984  70.469  1.00  0.00    -0.142 SA 
BRANCH   5   6
HETATM    6  C   UNL     1     -10.713   7.719  69.722  1.00  0.00    -0.236 A  
HETATM    7  N   UNL     1      -9.785   6.983  69.153  1.00  0.00    -0.156 NA 
HETATM    8  N   UNL     1      -8.763   7.805  68.793  1.00  0.00    -0.129 NA 
HETATM    9  C   UNL     1      -9.083   9.027  69.160  1.00  0.00    -0.140 A  
HETATM   10  N   UNL     1     -10.415   9.078  69.573  1.00  0.00    -0.216 NA 
HETATM   11 BR   UNL     1      -7.741  10.335  69.335  1.00  0.00    -0.159 Br 
BRANCH  10  12
HETATM   12  C   UNL     1     -11.181  10.260  69.880  1.00  0.00    -0.299 A  
HETATM   13  C   UNL     1     -11.683  10.415  71.174  1.00  0.00    -0.387 A  
HETATM   14  C   UNL     1     -12.289  11.606  71.564  1.00  0.00    -0.095 A  
HETATM   15  C   UNL     1     -12.377  12.717  70.713  1.00  0.00    -0.375 A  
HETATM   16  C   UNL     1     -12.056  13.626  68.450  1.00  0.00    -0.312 A  
HETATM   17  C   UNL     1     -11.938  12.559  69.372  1.00  0.00    -0.315 A  
HETATM   18  C   UNL     1     -11.674  13.506  67.116  1.00  0.00    -0.419 A  
HETATM   19  C   UNL     1     -11.389  11.314  68.923  1.00  0.00    -0.340 A  
HETATM   20  C   UNL     1     -11.134  11.203  67.527  1.00  0.00    -0.353 A  
HETATM   21  C   UNL     1     -11.236  12.285  66.648  1.00  0.00    -0.367 A  
BRANCH  15  22
HETATM   22  C   UNL     1     -12.989  13.992  71.285  1.00  0.00    -0.418 C  
HETATM   23  C   UNL     1     -14.154  13.854  72.251  1.00  0.00    -0.632 C  
HETATM   24  C   UNL     1     -12.850  14.393  72.734  1.00  0.00    -0.496 C  
ENDBRANCH  15  22
ENDBRANCH  10  12
ENDBRANCH   5   6
ENDBRANCH   4   5
TORSDOF 4
ENDMDL
MODEL       52
REMARK 921   NORMALIZED FREE ENERGY PREDICTED BY IDOCK:   -5.62 KCAL/MOL
REMARK 922        TOTAL FREE ENERGY PREDICTED BY IDOCK:   -7.82 KCAL/MOL
REMARK 923 INTER-LIGAND FREE ENERGY PREDICTED BY IDOCK:   -7.57 KCAL/MOL
REMARK 924 INTRA-LIGAND FREE ENERGY PREDICTED BY IDOCK:   -0.25 KCAL/MOL
REMARK 927      BINDING AFFINITY PREDICTED BY RF-SCORE:    0.00 PKD
ROOT
HETATM    1  O   UNL     1     -11.759  15.953  72.751  1.00  0.00    -0.447 OA 
HETATM    2  C   UNL     1     -13.022  15.786  72.289  1.00  0.00    -0.447 C  
HETATM    3  O   UNL     1     -13.991  15.934  73.012  1.00  0.00    -0.573 OA 
HETATM    4  C   UNL     1     -13.126  15.484  70.803  1.00  0.00    -0.390 C  
ENDROOT
BRANCH   4   5
HETATM    5  S   UNL     1     -11.617  14.663  70.148  1.00  0.00    -0.279 SA 
BRANCH   5   6
HETATM    6  C   UNL     1     -12.054  13.000  70.411  1.00  0.00    -0.314 A  
HETATM    7  N   UNL     1     -12.963  12.676  71.303  1.00  0.00    -0.283 NA 
HETATM    8  N   UNL     1     -12.989  11.320  71.398  1.00  0.00    -0.415 NA 
HETATM    9  C   UNL     1     -12.085  10.842  70.570  1.00  0.00    -0.371 A  
HETATM   10  N   UNL     1     -11.594  11.858  69.747  1.00  0.00    -0.300 NA 
HETATM   11 BR   UNL     1     -11.441   9.089  70.795  1.00  0.00    -0.327 Br 
BRANCH  10  12
HETATM   12  C   UNL     1     -10.728  11.704  68.606  1.00  0.00    -0.212 A  
HETATM   13  C   UNL     1      -9.547  10.976  68.755  1.00  0.00    -0.194 A  
HETATM   14  C   UNL     1      -8.759  10.663  67.649  1.00  0.00    -0.121 A  
HETATM   15  C   UNL     1      -9.131  11.007  66.342  1.00  0.00    -0.191 A  
HETATM   16  C   UNL     1     -10.684  12.238  64.883  1.00  0.00    -0.335 A  
HETATM   17  C   UNL     1     -10.291  11.810  66.174  1.00  0.00    -0.266 A  
HETATM   18  C   UNL     1     -11.791  13.055  64.673  1.00  0.00    -0.422 A  
HETATM   19  C   UNL     1     -11.071  12.215  67.305  1.00  0.00    -0.341 A  
HETATM   20  C   UNL     1     -12.114  13.151  67.050  1.00  0.00    -0.366 A  
HETATM   21  C   UNL     1     -12.492  13.533  65.760  1.00  0.00    -0.514 A  
BRANCH  15  22
HETATM   22  C   UNL     1      -8.225  10.536  65.209  1.00  0.00    -0.146 C  
HETATM   23  C   UNL     1      -7.538   9.190  65.356  1.00  0.00    -0.097 C  
HETATM   24  C   UNL     1      -8.575   9.382  64.301  1.00  0.00    -0.216 C  
ENDBRANCH  15  22
ENDBRANCH  10  12
ENDBRANCH   5   6
ENDBRANCH   4   5
TORSDOF 4
ENDMDL
MODEL       53
REMARK 921   NORMALIZED FREE ENERGY PREDICTED BY IDOCK:   -5.62 KCAL/MOL
REMARK 922        TOTAL FREE ENERGY PREDICTED BY IDOCK:   -7.81 KCAL/MOL
REMARK 923 INTER-LIGAND FREE ENERGY PREDICTED BY IDOCK:   -6.97 KCAL/MOL
REMARK 924 INTRA-LIGAND FREE ENERGY PREDICTED BY IDOCK:   -0.84 KCAL/MOL
REMARK 927      BINDING AFFINITY PREDICTED BY RF-SCORE:    0.00 PKD
ROOT
HETATM    1  O   UNL     1     -12.674  13.874  63.531  1.00  0.00    -0.797 OA 
HETATM    2  C   UNL     1     -12.738  13.583  64.853  1.00  0.00    -0.287 C  
HETATM    3  O   UNL     1     -13.515  14.155  65.596  1.00  0.00    -0.576 OA 
HETATM    4  C   UNL     1     -11.833  12.448  65.303  1.00  0.00    -0.399 C  
ENDROOT
BRANCH   4   5
HETATM    5  S   UNL     1     -10.357  12.258  64.223  1.00  0.00    -0.358 SA 
BRANCH   5   6
HETATM    6  C   UNL     1      -9.214  11.672  65.396  1.00  0.00    -0.065 A  
HETATM    7  N   UNL     1      -8.566  10.545  65.201  1.00  0.00    -0.179 NA 
HETATM    8  N   UNL     1      -7.867  10.265  66.332  1.00  0.00    -0.114 NA 
HETATM    9  C   UNL     1      -8.111  11.221  67.202  1.00  0.00    -0.150 A  
HETATM   10  N   UNL     1      -8.801  12.269  66.592  1.00  0.00    -0.195 NA 
HETATM   11 BR   UNL     1      -7.782  10.929  69.032  1.00  0.00    -0.122 Br 
BRANCH  10  12
HETATM   12  C   UNL     1      -9.095  13.560  67.162  1.00  0.00    -0.232 A  
HETATM   13  C   UNL     1      -8.380  14.670  66.710  1.00  0.00    -0.078 A  
HETATM   14  C   UNL     1      -8.735  15.956  67.110  1.00  0.00    -0.223 A  
HETATM   15  C   UNL     1      -9.844  16.208  67.929  1.00  0.00    -0.235 A  
HETATM   16  C   UNL     1     -11.634  15.279  69.340  1.00  0.00    -0.347 A  
HETATM   17  C   UNL     1     -10.542  15.090  68.459  1.00  0.00    -0.235 A  
HETATM   18  C   UNL     1     -12.325  14.215  69.912  1.00  0.00    -0.382 A  
HETATM   19  C   UNL     1     -10.143  13.754  68.129  1.00  0.00    -0.245 A  
HETATM   20  C   UNL     1     -10.796  12.707  68.838  1.00  0.00    -0.238 A  
HETATM   21  C   UNL     1     -11.889  12.927  69.682  1.00  0.00    -0.387 A  
BRANCH  15  22
HETATM   22  C   UNL     1     -10.178  17.665  68.230  1.00  0.00    -0.374 C  
HETATM   23  C   UNL     1      -9.295  18.740  67.619  1.00  0.00    -0.320 C  
HETATM   24  C   UNL     1     -10.718  18.617  67.191  1.00  0.00    -0.433 C  
ENDBRANCH  15  22
ENDBRANCH  10  12
ENDBRANCH   5   6
ENDBRANCH   4   5
TORSDOF 4
ENDMDL
MODEL       54
REMARK 921   NORMALIZED FREE ENERGY PREDICTED BY IDOCK:   -5.61 KCAL/MOL
REMARK 922        TOTAL FREE ENERGY PREDICTED BY IDOCK:   -7.80 KCAL/MOL
REMARK 923 INTER-LIGAND FREE ENERGY PREDICTED BY IDOCK:   -6.81 KCAL/MOL
REMARK 924 INTRA-LIGAND FREE ENERGY PREDICTED BY IDOCK:   -0.99 KCAL/MOL
REMARK 927      BINDING AFFINITY PREDICTED BY RF-SCORE:    0.00 PKD
ROOT
HETATM    1  O   UNL     1     -13.561  12.682  72.268  1.00  0.00    -0.547 OA 
HETATM    2  C   UNL     1     -12.989  13.480  71.334  1.00  0.00    -0.339 C  
HETATM    3  O   UNL     1     -13.175  14.683  71.320  1.00  0.00    -0.338 OA 
HETATM    4  C   UNL     1     -12.050  12.768  70.374  1.00  0.00    -0.302 C  
ENDROOT
BRANCH   4   5
HETATM    5  S   UNL     1     -12.473  10.991  70.168  1.00  0.00    -0.227 SA 
BRANCH   5   6
HETATM    6  C   UNL     1     -10.870  10.318  70.104  1.00  0.00    -0.302 A  
HETATM    7  N   UNL     1     -10.406   9.589  71.095  1.00  0.00    -0.299 NA 
HETATM    8  N   UNL     1      -9.096   9.329  70.843  1.00  0.00    -0.243 NA 
HETATM    9  C   UNL     1      -8.781   9.915  69.708  1.00  0.00    -0.212 A  
HETATM   10  N   UNL     1      -9.929  10.391  69.072  1.00  0.00    -0.204 NA 
HETATM   11 BR   UNL     1      -6.976  10.250  69.294  1.00  0.00    -0.085 Br 
BRANCH  10  12
HETATM   12  C   UNL     1     -10.019  10.931  67.739  1.00  0.00    -0.176 A  
HETATM   13  C   UNL     1     -10.403  10.085  66.697  1.00  0.00    -0.281 A  
HETATM   14  C   UNL     1     -10.660  10.593  65.426  1.00  0.00    -0.185 A  
HETATM   15  C   UNL     1     -10.603  11.964  65.140  1.00  0.00    -0.333 A  
HETATM   16  C   UNL     1     -10.010  14.221  65.917  1.00  0.00    -0.340 A  
HETATM   17  C   UNL     1     -10.145  12.835  66.164  1.00  0.00    -0.274 A  
HETATM   18  C   UNL     1      -9.531  15.108  66.878  1.00  0.00    -0.253 A  
HETATM   19  C   UNL     1      -9.794  12.324  67.456  1.00  0.00    -0.193 A  
HETATM   20  C   UNL     1      -9.191  13.247  68.357  1.00  0.00    -0.145 A  
HETATM   21  C   UNL     1      -9.096  14.616  68.091  1.00  0.00    -0.187 A  
BRANCH  15  22
HETATM   22  C   UNL     1     -10.986  12.402  63.730  1.00  0.00    -0.501 C  
HETATM   23  C   UNL     1     -12.268  11.849  63.133  1.00  0.00    -0.340 C  
HETATM   24  C   UNL     1     -12.160  13.304  63.439  1.00  0.00    -0.508 C  
ENDBRANCH  15  22
ENDBRANCH  10  12
ENDBRANCH   5   6
ENDBRANCH   4   5
TORSDOF 4
ENDMDL
MODEL       55
REMARK 921   NORMALIZED FREE ENERGY PREDICTED BY IDOCK:   -5.60 KCAL/MOL
REMARK 922        TOTAL FREE ENERGY PREDICTED BY IDOCK:   -7.79 KCAL/MOL
REMARK 923 INTER-LIGAND FREE ENERGY PREDICTED BY IDOCK:   -6.80 KCAL/MOL
REMARK 924 INTRA-LIGAND FREE ENERGY PREDICTED BY IDOCK:   -0.99 KCAL/MOL
REMARK 927      BINDING AFFINITY PREDICTED BY RF-SCORE:    0.00 PKD
ROOT
HETATM    1  O   UNL     1     -12.576  15.338  63.730  1.00  0.00    -0.733 OA 
HETATM    2  C   UNL     1     -11.453  15.851  64.288  1.00  0.00    -0.191 C  
HETATM    3  O   UNL     1     -11.219  17.046  64.268  1.00  0.00    -1.186 OA 
HETATM    4  C   UNL     1     -10.569  14.837  64.995  1.00  0.00    -0.429 C  
ENDROOT
BRANCH   4   5
HETATM    5  S   UNL     1     -10.760  13.141  64.310  1.00  0.00    -0.372 SA 
BRANCH   5   6
HETATM    6  C   UNL     1     -11.078  12.269  65.781  1.00  0.00    -0.323 A  
HETATM    7  N   UNL     1     -12.158  12.514  66.489  1.00  0.00    -0.585 NA 
HETATM    8  N   UNL     1     -12.069  11.804  67.645  1.00  0.00    -0.558 NA 
HETATM    9  C   UNL     1     -10.929  11.148  67.626  1.00  0.00    -0.269 A  
HETATM   10  N   UNL     1     -10.339  11.234  66.364  1.00  0.00    -0.237 NA 
HETATM   11 BR   UNL     1     -10.193  10.500  69.232  1.00  0.00    -0.240 Br 
BRANCH  10  12
HETATM   12  C   UNL     1      -9.182  10.512  65.898  1.00  0.00    -0.179 A  
HETATM   13  C   UNL     1      -9.373   9.404  65.071  1.00  0.00    -0.258 A  
HETATM   14  C   UNL     1      -8.289   8.772  64.466  1.00  0.00    -0.171 A  
HETATM   15  C   UNL     1      -6.974   9.239  64.606  1.00  0.00    -0.092 A  
HETATM   16  C   UNL     1      -5.436  10.798  65.727  1.00  0.00    -0.135 A  
HETATM   17  C   UNL     1      -6.749  10.320  65.499  1.00  0.00    -0.128 A  
HETATM   18  C   UNL     1      -5.162  11.830  66.620  1.00  0.00    -0.047 A  
HETATM   19  C   UNL     1      -7.839  10.933  66.198  1.00  0.00    -0.144 A  
HETATM   20  C   UNL     1      -7.493  11.893  67.191  1.00  0.00    -0.146 A  
HETATM   21  C   UNL     1      -6.189  12.361  67.372  1.00  0.00    -0.158 A  
BRANCH  15  22
HETATM   22  C   UNL     1      -5.884   8.510  63.827  1.00  0.00    -0.071 C  
HETATM   23  C   UNL     1      -6.299   7.680  62.625  1.00  0.00    -0.067 C  
HETATM   24  C   UNL     1      -5.468   8.902  62.431  1.00  0.00    -0.083 C  
ENDBRANCH  15  22
ENDBRANCH  10  12
ENDBRANCH   5   6
ENDBRANCH   4   5
TORSDOF 4
ENDMDL
MODEL       56
REMARK 921   NORMALIZED FREE ENERGY PREDICTED BY IDOCK:   -5.57 KCAL/MOL
REMARK 922        TOTAL FREE ENERGY PREDICTED BY IDOCK:   -7.76 KCAL/MOL
REMARK 923 INTER-LIGAND FREE ENERGY PREDICTED BY IDOCK:   -6.80 KCAL/MOL
REMARK 924 INTRA-LIGAND FREE ENERGY PREDICTED BY IDOCK:   -0.95 KCAL/MOL
REMARK 927      BINDING AFFINITY PREDICTED BY RF-SCORE:    0.00 PKD
ROOT
HETATM    1  O   UNL     1     -12.465  13.792  66.689  1.00  0.00    -0.386 OA 
HETATM    2  C   UNL     1     -11.712  12.687  66.470  1.00  0.00    -0.400 C  
HETATM    3  O   UNL     1     -12.031  11.598  66.913  1.00  0.00    -0.567 OA 
HETATM    4  C   UNL     1     -10.503  12.904  65.574  1.00  0.00    -0.289 C  
ENDROOT
BRANCH   4   5
HETATM    5  S   UNL     1      -9.891  14.637  65.630  1.00  0.00    -0.271 SA 
BRANCH   5   6
HETATM    6  C   UNL     1      -8.667  14.472  66.854  1.00  0.00    -0.211 A  
HETATM    7  N   UNL     1      -8.430  13.309  67.418  1.00  0.00    -0.195 NA 
HETATM    8  N   UNL     1      -7.543  13.508  68.429  1.00  0.00    -0.127 NA 
HETATM    9  C   UNL     1      -7.264  14.793  68.471  1.00  0.00    -0.115 A  
HETATM   10  N   UNL     1      -7.788  15.441  67.351  1.00  0.00    -0.171 NA 
HETATM   11 BR   UNL     1      -6.524  15.541  70.031  1.00  0.00    -0.050 Br 
BRANCH  10  12
HETATM   12  C   UNL     1      -7.549  16.804  66.949  1.00  0.00    -0.217 A  
HETATM   13  C   UNL     1      -6.324  17.124  66.363  1.00  0.00    -0.217 A  
HETATM   14  C   UNL     1      -6.105  18.385  65.814  1.00  0.00    -0.260 A  
HETATM   15  C   UNL     1      -7.105  19.367  65.769  1.00  0.00    -0.313 A  
HETATM   16  C   UNL     1      -9.360  20.064  66.463  1.00  0.00    -0.494 A  
HETATM   17  C   UNL     1      -8.334  19.090  66.423  1.00  0.00    -0.315 A  
HETATM   18  C   UNL     1     -10.567  19.851  67.123  1.00  0.00    -0.527 A  
HETATM   19  C   UNL     1      -8.552  17.829  67.069  1.00  0.00    -0.248 A  
HETATM   20  C   UNL     1      -9.746  17.710  67.835  1.00  0.00    -0.295 A  
HETATM   21  C   UNL     1     -10.750  18.682  67.832  1.00  0.00    -0.347 A  
BRANCH  15  22
HETATM   22  C   UNL     1      -6.768  20.679  65.067  1.00  0.00    -0.224 C  
HETATM   23  C   UNL     1      -5.329  21.164  65.112  1.00  0.00    -0.227 C  
HETATM   24  C   UNL     1      -5.932  20.750  63.812  1.00  0.00    -0.339 C  
ENDBRANCH  15  22
ENDBRANCH  10  12
ENDBRANCH   5   6
ENDBRANCH   4   5
TORSDOF 4
ENDMDL
MODEL       57
REMARK 921   NORMALIZED FREE ENERGY PREDICTED BY IDOCK:   -5.54 KCAL/MOL
REMARK 922        TOTAL FREE ENERGY PREDICTED BY IDOCK:   -7.72 KCAL/MOL
REMARK 923 INTER-LIGAND FREE ENERGY PREDICTED BY IDOCK:   -6.70 KCAL/MOL
REMARK 924 INTRA-LIGAND FREE ENERGY PREDICTED BY IDOCK:   -1.02 KCAL/MOL
REMARK 927      BINDING AFFINITY PREDICTED BY RF-SCORE:    0.00 PKD
ROOT
HETATM    1  O   UNL     1     -11.761   6.533  69.885  1.00  0.00    -0.406 OA 
HETATM    2  C   UNL     1     -10.759   5.635  69.721  1.00  0.00    -0.331 C  
HETATM    3  O   UNL     1     -10.172   5.153  70.673  1.00  0.00    -0.237 OA 
HETATM    4  C   UNL     1     -10.491   5.230  68.281  1.00  0.00    -0.069 C  
ENDROOT
BRANCH   4   5
HETATM    5  S   UNL     1     -10.980   6.535  67.083  1.00  0.00    -0.356 SA 
BRANCH   5   6
HETATM    6  C   UNL     1      -9.405   7.035  66.541  1.00  0.00    -0.159 A  
HETATM    7  N   UNL     1      -8.456   6.152  66.321  1.00  0.00    -0.126 NA 
HETATM    8  N   UNL     1      -7.308   6.831  66.058  1.00  0.00    -0.074 NA 
HETATM    9  C   UNL     1      -7.575   8.117  66.134  1.00  0.00    -0.089 A  
HETATM   10  N   UNL     1      -8.952   8.323  66.232  1.00  0.00    -0.172 NA 
HETATM   11 BR   UNL     1      -6.175   9.352  66.372  1.00  0.00    -0.065 Br 
BRANCH  10  12
HETATM   12  C   UNL     1      -9.646   9.584  66.161  1.00  0.00    -0.239 A  
HETATM   13  C   UNL     1      -9.813  10.186  64.913  1.00  0.00    -0.390 A  
HETATM   14  C   UNL     1     -10.611  11.318  64.771  1.00  0.00    -0.376 A  
HETATM   15  C   UNL     1     -11.325  11.873  65.843  1.00  0.00    -0.365 A  
HETATM   16  C   UNL     1     -11.759  11.875  68.264  1.00  0.00    -0.385 A  
HETATM   17  C   UNL     1     -11.113  11.321  67.134  1.00  0.00    -0.364 A  
HETATM   18  C   UNL     1     -11.554  11.391  69.554  1.00  0.00    -0.399 A  
HETATM   19  C   UNL     1     -10.229  10.208  67.319  1.00  0.00    -0.273 A  
HETATM   20  C   UNL     1      -9.957   9.835  68.665  1.00  0.00    -0.181 A  
HETATM   21  C   UNL     1     -10.632  10.386  69.757  1.00  0.00    -0.302 A  
BRANCH  15  22
HETATM   22  C   UNL     1     -12.229  13.064  65.542  1.00  0.00    -0.521 C  
HETATM   23  C   UNL     1     -11.647  14.459  65.690  1.00  0.00    -0.347 C  
HETATM   24  C   UNL     1     -12.040  13.958  64.342  1.00  0.00    -0.477 C  
ENDBRANCH  15  22
ENDBRANCH  10  12
ENDBRANCH   5   6
ENDBRANCH   4   5
TORSDOF 4
ENDMDL
MODEL       58
REMARK 921   NORMALIZED FREE ENERGY PREDICTED BY IDOCK:   -5.53 KCAL/MOL
REMARK 922        TOTAL FREE ENERGY PREDICTED BY IDOCK:   -7.70 KCAL/MOL
REMARK 923 INTER-LIGAND FREE ENERGY PREDICTED BY IDOCK:   -6.63 KCAL/MOL
REMARK 924 INTRA-LIGAND FREE ENERGY PREDICTED BY IDOCK:   -1.07 KCAL/MOL
REMARK 927      BINDING AFFINITY PREDICTED BY RF-SCORE:    0.00 PKD
ROOT
HETATM    1  O   UNL     1     -13.702  15.331  72.211  1.00  0.00    -0.419 OA 
HETATM    2  C   UNL     1     -12.408  15.324  72.617  1.00  0.00    -0.386 C  
HETATM    3  O   UNL     1     -12.109  15.374  73.796  1.00  0.00    -0.491 OA 
HETATM    4  C   UNL     1     -11.389  15.168  71.501  1.00  0.00    -0.330 C  
ENDROOT
BRANCH   4   5
HETATM    5  S   UNL     1     -12.013  15.792  69.888  1.00  0.00    -0.285 SA 
BRANCH   5   6
HETATM    6  C   UNL     1     -10.506  16.262  69.157  1.00  0.00    -0.280 A  
HETATM    7  N   UNL     1      -9.961  17.427  69.428  1.00  0.00    -0.102 NA 
HETATM    8  N   UNL     1      -8.885  17.584  68.611  1.00  0.00    -0.275 NA 
HETATM    9  C   UNL     1      -8.802  16.515  67.848  1.00  0.00    -0.193 A  
HETATM   10  N   UNL     1      -9.686  15.531  68.291  1.00  0.00    -0.200 NA 
HETATM   11 BR   UNL     1      -7.809  16.580  66.250  1.00  0.00    -0.142 Br 
BRANCH  10  12
HETATM   12  C   UNL     1      -9.766  14.168  67.830  1.00  0.00    -0.223 A  
HETATM   13  C   UNL     1      -9.047  13.186  68.515  1.00  0.00    -0.053 A  
HETATM   14  C   UNL     1      -9.216  11.838  68.209  1.00  0.00    -0.188 A  
HETATM   15  C   UNL     1     -10.142  11.395  67.254  1.00  0.00    -0.218 A  
HETATM   16  C   UNL     1     -11.734  11.993  65.477  1.00  0.00    -0.315 A  
HETATM   17  C   UNL     1     -10.831  12.378  66.496  1.00  0.00    -0.284 A  
HETATM   18  C   UNL     1     -12.405  12.920  64.683  1.00  0.00    -0.501 A  
HETATM   19  C   UNL     1     -10.611  13.774  66.734  1.00  0.00    -0.273 A  
HETATM   20  C   UNL     1     -11.219  14.675  65.815  1.00  0.00    -0.336 A  
HETATM   21  C   UNL     1     -12.127  14.263  64.835  1.00  0.00    -0.442 A  
BRANCH  15  22
HETATM   22  C   UNL     1     -10.293   9.888  67.070  1.00  0.00    -0.303 C  
HETATM   23  C   UNL     1      -9.127   9.000  67.468  1.00  0.00    -0.145 C  
HETATM   24  C   UNL     1     -10.409   8.925  68.226  1.00  0.00    -0.250 C  
ENDBRANCH  15  22
ENDBRANCH  10  12
ENDBRANCH   5   6
ENDBRANCH   4   5
TORSDOF 4
ENDMDL
MODEL       59
REMARK 921   NORMALIZED FREE ENERGY PREDICTED BY IDOCK:   -5.49 KCAL/MOL
REMARK 922        TOTAL FREE ENERGY PREDICTED BY IDOCK:   -7.66 KCAL/MOL
REMARK 923 INTER-LIGAND FREE ENERGY PREDICTED BY IDOCK:   -6.68 KCAL/MOL
REMARK 924 INTRA-LIGAND FREE ENERGY PREDICTED BY IDOCK:   -0.97 KCAL/MOL
REMARK 927      BINDING AFFINITY PREDICTED BY RF-SCORE:    0.00 PKD
ROOT
HETATM    1  O   UNL     1      -7.084   7.398  68.763  1.00  0.00    -0.076 OA 
HETATM    2  C   UNL     1      -7.679   6.437  69.511  1.00  0.00    -0.100 C  
HETATM    3  O   UNL     1      -7.837   5.305  69.088  1.00  0.00    -0.083 OA 
HETATM    4  C   UNL     1      -8.051   6.862  70.922  1.00  0.00    -0.114 C  
ENDROOT
BRANCH   4   5
HETATM    5  S   UNL     1      -8.344   8.672  71.055  1.00  0.00    -0.176 SA 
BRANCH   5   6
HETATM    6  C   UNL     1      -9.997   8.658  71.596  1.00  0.00    -0.282 A  
HETATM    7  N   UNL     1     -10.329   8.084  72.731  1.00  0.00    -0.323 NA 
HETATM    8  N   UNL     1     -11.686   8.093  72.822  1.00  0.00    -0.364 NA 
HETATM    9  C   UNL     1     -12.157   8.663  71.734  1.00  0.00    -0.340 A  
HETATM   10  N   UNL     1     -11.120   9.241  70.999  1.00  0.00    -0.296 NA 
HETATM   11 BR   UNL     1     -13.949   8.385  71.231  1.00  0.00    -0.185 Br 
BRANCH  10  12
HETATM   12  C   UNL     1     -11.248  10.098  69.848  1.00  0.00    -0.287 A  
HETATM   13  C   UNL     1     -11.735  11.394  70.029  1.00  0.00    -0.416 A  
HETATM   14  C   UNL     1     -11.727  12.310  68.980  1.00  0.00    -0.376 A  
HETATM   15  C   UNL     1     -11.187  12.006  67.722  1.00  0.00    -0.331 A  
HETATM   16  C   UNL     1     -10.252  10.290  66.227  1.00  0.00    -0.287 A  
HETATM   17  C   UNL     1     -10.752  10.673  67.494  1.00  0.00    -0.321 A  
HETATM   18  C   UNL     1      -9.849   8.988  65.945  1.00  0.00    -0.257 A  
HETATM   19  C   UNL     1     -10.829   9.689  68.533  1.00  0.00    -0.202 A  
HETATM   20  C   UNL     1     -10.527   8.350  68.158  1.00  0.00    -0.228 A  
HETATM   21  C   UNL     1     -10.010   8.010  66.905  1.00  0.00    -0.338 A  
BRANCH  15  22
HETATM   22  C   UNL     1     -11.162  13.121  66.682  1.00  0.00    -0.335 C  
HETATM   23  C   UNL     1     -12.297  13.183  65.674  1.00  0.00    -0.519 C  
HETATM   24  C   UNL     1     -12.140  14.270  66.684  1.00  0.00    -0.448 C  
ENDBRANCH  15  22
ENDBRANCH  10  12
ENDBRANCH   5   6
ENDBRANCH   4   5
TORSDOF 4
ENDMDL
MODEL       60
REMARK 921   NORMALIZED FREE ENERGY PREDICTED BY IDOCK:   -5.49 KCAL/MOL
REMARK 922        TOTAL FREE ENERGY PREDICTED BY IDOCK:   -7.65 KCAL/MOL
REMARK 923 INTER-LIGAND FREE ENERGY PREDICTED BY IDOCK:   -6.64 KCAL/MOL
REMARK 924 INTRA-LIGAND FREE ENERGY PREDICTED BY IDOCK:   -1.01 KCAL/MOL
REMARK 927      BINDING AFFINITY PREDICTED BY RF-SCORE:    0.00 PKD
ROOT
HETATM    1  O   UNL     1     -13.054  12.050  63.757  1.00  0.00    -0.730 OA 
HETATM    2  C   UNL     1     -12.267  13.153  63.777  1.00  0.00    -0.456 C  
HETATM    3  O   UNL     1     -12.575  14.169  63.180  1.00  0.00    -0.686 OA 
HETATM    4  C   UNL     1     -11.032  13.043  64.656  1.00  0.00    -0.342 C  
ENDROOT
BRANCH   4   5
HETATM    5  S   UNL     1     -10.465  11.305  64.853  1.00  0.00    -0.310 SA 
BRANCH   5   6
HETATM    6  C   UNL     1     -11.003  11.008  66.480  1.00  0.00    -0.166 A  
HETATM    7  N   UNL     1     -11.825  11.839  67.080  1.00  0.00    -0.620 NA 
HETATM    8  N   UNL     1     -11.950  11.440  68.374  1.00  0.00    -0.590 NA 
HETATM    9  C   UNL     1     -11.192  10.379  68.542  1.00  0.00    -0.251 A  
HETATM   10  N   UNL     1     -10.718   9.919  67.312  1.00  0.00    -0.260 NA 
HETATM   11 BR   UNL     1     -10.670   9.864  70.276  1.00  0.00    -0.386 Br 
BRANCH  10  12
HETATM   12  C   UNL     1     -10.007   8.691  67.062  1.00  0.00    -0.249 A  
HETATM   13  C   UNL     1     -10.725   7.494  67.036  1.00  0.00    -0.367 A  
HETATM   14  C   UNL     1     -10.114   6.306  66.642  1.00  0.00    -0.214 A  
HETATM   15  C   UNL     1      -8.784   6.256  66.203  1.00  0.00    -0.148 A  
HETATM   16  C   UNL     1      -6.649   7.444  65.917  1.00  0.00    -0.045 A  
HETATM   17  C   UNL     1      -8.014   7.446  66.290  1.00  0.00    -0.109 A  
HETATM   18  C   UNL     1      -5.845   8.577  66.019  1.00  0.00    -0.047 A  
HETATM   19  C   UNL     1      -8.598   8.663  66.772  1.00  0.00    -0.126 A  
HETATM   20  C   UNL     1      -7.706   9.753  66.978  1.00  0.00    -0.095 A  
HETATM   21  C   UNL     1      -6.368   9.726  66.574  1.00  0.00    -0.069 A  
BRANCH  15  22
HETATM   22  C   UNL     1      -8.255   4.910  65.720  1.00  0.00    -0.113 C  
HETATM   23  C   UNL     1      -8.773   3.654  66.399  1.00  0.00    -0.121 C  
HETATM   24  C   UNL     1      -9.105   3.914  64.969  1.00  0.00    -0.142 C  
ENDBRANCH  15  22
ENDBRANCH  10  12
ENDBRANCH   5   6
ENDBRANCH   4   5
TORSDOF 4
ENDMDL
MODEL       61
REMARK 921   NORMALIZED FREE ENERGY PREDICTED BY IDOCK:   -5.44 KCAL/MOL
REMARK 922        TOTAL FREE ENERGY PREDICTED BY IDOCK:   -7.59 KCAL/MOL
REMARK 923 INTER-LIGAND FREE ENERGY PREDICTED BY IDOCK:   -6.54 KCAL/MOL
REMARK 924 INTRA-LIGAND FREE ENERGY PREDICTED BY IDOCK:   -1.05 KCAL/MOL
REMARK 927      BINDING AFFINITY PREDICTED BY RF-SCORE:    0.00 PKD
ROOT
HETATM    1  O   UNL     1     -10.641   4.939  68.879  1.00  0.00    -0.013 OA 
HETATM    2  C   UNL     1     -10.816   6.077  69.594  1.00  0.00    -0.369 C  
HETATM    3  O   UNL     1     -11.163   6.051  70.762  1.00  0.00    -0.303 OA 
HETATM    4  C   UNL     1     -10.471   7.358  68.853  1.00  0.00    -0.203 C  
ENDROOT
BRANCH   4   5
HETATM    5  S   UNL     1     -10.655   7.186  67.032  1.00  0.00    -0.324 SA 
BRANCH   5   6
HETATM    6  C   UNL     1      -9.267   8.096  66.513  1.00  0.00    -0.188 A  
HETATM    7  N   UNL     1      -8.220   7.492  65.997  1.00  0.00    -0.122 NA 
HETATM    8  N   UNL     1      -7.243   8.423  65.827  1.00  0.00    -0.071 NA 
HETATM    9  C   UNL     1      -7.709   9.576  66.255  1.00  0.00    -0.101 A  
HETATM   10  N   UNL     1      -9.077   9.483  66.513  1.00  0.00    -0.146 NA 
HETATM   11 BR   UNL     1      -6.516  10.965  66.692  1.00  0.00    -0.131 Br 
BRANCH  10  12
HETATM   12  C   UNL     1      -9.975  10.565  66.828  1.00  0.00    -0.204 A  
HETATM   13  C   UNL     1     -10.167  10.909  68.167  1.00  0.00    -0.197 A  
HETATM   14  C   UNL     1     -10.894  12.045  68.513  1.00  0.00    -0.267 A  
HETATM   15  C   UNL     1     -11.418  12.922  67.553  1.00  0.00    -0.386 A  
HETATM   16  C   UNL     1     -11.857  13.370  65.174  1.00  0.00    -0.375 A  
HETATM   17  C   UNL     1     -11.297  12.555  66.186  1.00  0.00    -0.388 A  
HETATM   18  C   UNL     1     -11.796  13.033  63.825  1.00  0.00    -0.566 A  
HETATM   19  C   UNL     1     -10.626  11.346  65.809  1.00  0.00    -0.315 A  
HETATM   20  C   UNL     1     -10.702  10.984  64.435  1.00  0.00    -0.340 A  
HETATM   21  C   UNL     1     -11.240  11.825  63.456  1.00  0.00    -0.494 A  
BRANCH  15  22
HETATM   22  C   UNL     1     -12.125  14.175  68.059  1.00  0.00    -0.303 C  
HETATM   23  C   UNL     1     -11.833  14.637  69.477  1.00  0.00    -0.374 C  
HETATM   24  C   UNL     1     -11.406  15.476  68.320  1.00  0.00    -0.360 C  
ENDBRANCH  15  22
ENDBRANCH  10  12
ENDBRANCH   5   6
ENDBRANCH   4   5
TORSDOF 4
ENDMDL
MODEL       62
REMARK 921   NORMALIZED FREE ENERGY PREDICTED BY IDOCK:   -5.42 KCAL/MOL
REMARK 922        TOTAL FREE ENERGY PREDICTED BY IDOCK:   -7.57 KCAL/MOL
REMARK 923 INTER-LIGAND FREE ENERGY PREDICTED BY IDOCK:   -6.73 KCAL/MOL
REMARK 924 INTRA-LIGAND FREE ENERGY PREDICTED BY IDOCK:   -0.85 KCAL/MOL
REMARK 927      BINDING AFFINITY PREDICTED BY RF-SCORE:    0.00 PKD
ROOT
HETATM    1  O   UNL     1     -10.996  16.536  69.713  1.00  0.00    -0.344 OA 
HETATM    2  C   UNL     1     -11.929  15.581  69.943  1.00  0.00    -0.362 C  
HETATM    3  O   UNL     1     -12.718  15.668  70.867  1.00  0.00    -0.451 OA 
HETATM    4  C   UNL     1     -11.959  14.455  68.922  1.00  0.00    -0.302 C  
ENDROOT
BRANCH   4   5
HETATM    5  S   UNL     1     -10.328  14.202  68.111  1.00  0.00    -0.245 SA 
BRANCH   5   6
HETATM    6  C   UNL     1     -10.861  13.880  66.487  1.00  0.00    -0.295 A  
HETATM    7  N   UNL     1     -11.213  14.861  65.686  1.00  0.00    -0.346 NA 
HETATM    8  N   UNL     1     -11.720  14.311  64.551  1.00  0.00    -0.416 NA 
HETATM    9  C   UNL     1     -11.680  13.003  64.685  1.00  0.00    -0.361 A  
HETATM   10  N   UNL     1     -10.943  12.653  65.818  1.00  0.00    -0.274 NA 
HETATM   11 BR   UNL     1     -12.764  11.914  63.599  1.00  0.00    -0.337 Br 
BRANCH  10  12
HETATM   12  C   UNL     1     -10.528  11.329  66.206  1.00  0.00    -0.258 A  
HETATM   13  C   UNL     1     -11.074  10.767  67.361  1.00  0.00    -0.363 A  
HETATM   14  C   UNL     1     -10.830   9.436  67.689  1.00  0.00    -0.222 A  
HETATM   15  C   UNL     1     -10.081   8.585  66.864  1.00  0.00    -0.364 A  
HETATM   16  C   UNL     1      -8.640   8.358  64.883  1.00  0.00    -0.108 A  
HETATM   17  C   UNL     1      -9.457   9.153  65.722  1.00  0.00    -0.322 A  
HETATM   18  C   UNL     1      -7.979   8.878  63.774  1.00  0.00    -0.154 A  
HETATM   19  C   UNL     1      -9.624  10.541  65.410  1.00  0.00    -0.291 A  
HETATM   20  C   UNL     1      -8.828  11.050  64.345  1.00  0.00     0.007 A  
HETATM   21  C   UNL     1      -8.052  10.231  63.519  1.00  0.00    -0.152 A  
BRANCH  15  22
HETATM   22  C   UNL     1      -9.954   7.126  67.292  1.00  0.00    -0.243 C  
HETATM   23  C   UNL     1     -10.148   6.794  68.762  1.00  0.00    -0.165 C  
HETATM   24  C   UNL     1     -11.128   6.299  67.753  1.00  0.00    -0.361 C  
ENDBRANCH  15  22
ENDBRANCH  10  12
ENDBRANCH   5   6
ENDBRANCH   4   5
TORSDOF 4
ENDMDL
MODEL       63
REMARK 921   NORMALIZED FREE ENERGY PREDICTED BY IDOCK:   -5.42 KCAL/MOL
REMARK 922        TOTAL FREE ENERGY PREDICTED BY IDOCK:   -7.57 KCAL/MOL
REMARK 923 INTER-LIGAND FREE ENERGY PREDICTED BY IDOCK:   -6.57 KCAL/MOL
REMARK 924 INTRA-LIGAND FREE ENERGY PREDICTED BY IDOCK:   -1.00 KCAL/MOL
REMARK 927      BINDING AFFINITY PREDICTED BY RF-SCORE:    0.00 PKD
ROOT
HETATM    1  O   UNL     1      -6.299  17.694  68.786  1.00  0.00    -0.183 OA 
HETATM    2  C   UNL     1      -7.333  18.570  68.781  1.00  0.00    -0.290 C  
HETATM    3  O   UNL     1      -7.202  19.715  69.174  1.00  0.00    -0.354 OA 
HETATM    4  C   UNL     1      -8.623  18.034  68.181  1.00  0.00    -0.273 C  
ENDROOT
BRANCH   4   5
HETATM    5  S   UNL     1      -8.754  16.205  68.320  1.00  0.00    -0.186 SA 
BRANCH   5   6
HETATM    6  C   UNL     1      -9.527  15.855  66.801  1.00  0.00    -0.235 A  
HETATM    7  N   UNL     1      -9.590  16.763  65.852  1.00  0.00    -0.509 NA 
HETATM    8  N   UNL     1     -10.370  16.269  64.855  1.00  0.00    -0.529 NA 
HETATM    9  C   UNL     1     -10.780  15.073  65.219  1.00  0.00    -0.389 A  
HETATM   10  N   UNL     1     -10.103  14.657  66.367  1.00  0.00    -0.268 NA 
HETATM   11 BR   UNL     1     -12.282  14.303  64.388  1.00  0.00    -0.418 Br 
BRANCH  10  12
HETATM   12  C   UNL     1     -10.144  13.348  66.969  1.00  0.00    -0.247 A  
HETATM   13  C   UNL     1      -9.330  12.343  66.443  1.00  0.00    -0.219 A  
HETATM   14  C   UNL     1      -9.214  11.113  67.085  1.00  0.00    -0.165 A  
HETATM   15  C   UNL     1      -9.851  10.839  68.303  1.00  0.00    -0.177 A  
HETATM   16  C   UNL     1     -11.458  11.576  70.014  1.00  0.00    -0.304 A  
HETATM   17  C   UNL     1     -10.740  11.819  68.819  1.00  0.00    -0.255 A  
HETATM   18  C   UNL     1     -12.367  12.490  70.539  1.00  0.00    -0.345 A  
HETATM   19  C   UNL     1     -10.942  13.060  68.131  1.00  0.00    -0.269 A  
HETATM   20  C   UNL     1     -11.972  13.902  68.637  1.00  0.00    -0.401 A  
HETATM   21  C   UNL     1     -12.644  13.645  69.835  1.00  0.00    -0.116 A  
BRANCH  15  22
HETATM   22  C   UNL     1      -9.579   9.483  68.948  1.00  0.00    -0.156 C  
HETATM   23  C   UNL     1     -10.542   8.346  68.654  1.00  0.00    -0.149 C  
HETATM   24  C   UNL     1      -9.136   8.273  68.163  1.00  0.00    -0.134 C  
ENDBRANCH  15  22
ENDBRANCH  10  12
ENDBRANCH   5   6
ENDBRANCH   4   5
TORSDOF 4
ENDMDL
MODEL       64
REMARK 921   NORMALIZED FREE ENERGY PREDICTED BY IDOCK:   -5.42 KCAL/MOL
REMARK 922        TOTAL FREE ENERGY PREDICTED BY IDOCK:   -7.57 KCAL/MOL
REMARK 923 INTER-LIGAND FREE ENERGY PREDICTED BY IDOCK:   -7.11 KCAL/MOL
REMARK 924 INTRA-LIGAND FREE ENERGY PREDICTED BY IDOCK:   -0.45 KCAL/MOL
REMARK 927      BINDING AFFINITY PREDICTED BY RF-SCORE:    0.00 PKD
ROOT
HETATM    1  O   UNL     1     -11.821  16.363  72.376  1.00  0.00    -0.533 OA 
HETATM    2  C   UNL     1     -13.070  15.844  72.460  1.00  0.00    -0.456 C  
HETATM    3  O   UNL     1     -13.843  16.177  73.341  1.00  0.00    -0.558 OA 
HETATM    4  C   UNL     1     -13.443  14.891  71.337  1.00  0.00    -0.426 C  
ENDROOT
BRANCH   4   5
HETATM    5  S   UNL     1     -11.975  14.064  70.601  1.00  0.00    -0.269 SA 
BRANCH   5   6
HETATM    6  C   UNL     1     -12.401  12.404  70.895  1.00  0.00    -0.262 A  
HETATM    7  N   UNL     1     -13.182  12.076  71.899  1.00  0.00    -0.450 NA 
HETATM    8  N   UNL     1     -13.218  10.719  71.974  1.00  0.00    -0.455 NA 
HETATM    9  C   UNL     1     -12.448  10.243  71.019  1.00  0.00    -0.384 A  
HETATM   10  N   UNL     1     -12.059  11.267  70.154  1.00  0.00    -0.345 NA 
HETATM   11 BR   UNL     1     -11.809   8.476  71.122  1.00  0.00    -0.310 Br 
BRANCH  10  12
HETATM   12  C   UNL     1     -11.363  11.122  68.900  1.00  0.00    -0.278 A  
HETATM   13  C   UNL     1     -12.026  11.473  67.722  1.00  0.00    -0.100 A  
HETATM   14  C   UNL     1     -11.348  11.504  66.506  1.00  0.00    -0.263 A  
HETATM   15  C   UNL     1      -9.973  11.245  66.407  1.00  0.00    -0.252 A  
HETATM   16  C   UNL     1      -7.920  10.483  67.528  1.00  0.00    -0.107 A  
HETATM   17  C   UNL     1      -9.295  10.816  67.578  1.00  0.00    -0.158 A  
HETATM   18  C   UNL     1      -7.222  10.024  68.642  1.00  0.00    -0.080 A  
HETATM   19  C   UNL     1      -9.991  10.695  68.825  1.00  0.00    -0.201 A  
HETATM   20  C   UNL     1      -9.267  10.102  69.898  1.00  0.00    -0.119 A  
HETATM   21  C   UNL     1      -7.902   9.809  69.822  1.00  0.00    -0.159 A  
BRANCH  15  22
HETATM   22  C   UNL     1      -9.330  11.391  65.032  1.00  0.00    -0.158 C  
HETATM   23  C   UNL     1      -9.710  10.390  63.955  1.00  0.00    -0.367 C  
HETATM   24  C   UNL     1     -10.098  11.822  63.806  1.00  0.00    -0.421 C  
ENDBRANCH  15  22
ENDBRANCH  10  12
ENDBRANCH   5   6
ENDBRANCH   4   5
TORSDOF 4
ENDMDL
MODEL       65
REMARK 921   NORMALIZED FREE ENERGY PREDICTED BY IDOCK:   -5.40 KCAL/MOL
REMARK 922        TOTAL FREE ENERGY PREDICTED BY IDOCK:   -7.55 KCAL/MOL
REMARK 923 INTER-LIGAND FREE ENERGY PREDICTED BY IDOCK:   -6.46 KCAL/MOL
REMARK 924 INTRA-LIGAND FREE ENERGY PREDICTED BY IDOCK:   -1.09 KCAL/MOL
REMARK 927      BINDING AFFINITY PREDICTED BY RF-SCORE:    0.00 PKD
ROOT
HETATM    1  O   UNL     1      -6.589  14.677  70.222  1.00  0.00    -0.182 OA 
HETATM    2  C   UNL     1      -6.196  14.094  69.063  1.00  0.00    -0.094 C  
HETATM    3  O   UNL     1      -5.144  13.487  68.978  1.00  0.00    -0.067 OA 
HETATM    4  C   UNL     1      -7.198  14.194  67.925  1.00  0.00    -0.158 C  
ENDROOT
BRANCH   4   5
HETATM    5  S   UNL     1      -8.293  15.663  68.081  1.00  0.00    -0.148 SA 
BRANCH   5   6
HETATM    6  C   UNL     1      -9.411  15.329  66.791  1.00  0.00    -0.245 A  
HETATM    7  N   UNL     1      -9.418  16.060  65.699  1.00  0.00    -0.414 NA 
HETATM    8  N   UNL     1     -10.480  15.672  64.944  1.00  0.00    -0.474 NA 
HETATM    9  C   UNL     1     -11.109  14.717  65.596  1.00  0.00    -0.342 A  
HETATM   10  N   UNL     1     -10.354  14.300  66.694  1.00  0.00    -0.275 NA 
HETATM   11 BR   UNL     1     -12.892  14.303  65.161  1.00  0.00    -0.107 Br 
BRANCH  10  12
HETATM   12  C   UNL     1     -10.618  13.167  67.545  1.00  0.00    -0.235 A  
HETATM   13  C   UNL     1     -11.239  13.385  68.776  1.00  0.00    -0.315 A  
HETATM   14  C   UNL     1     -11.659  12.314  69.560  1.00  0.00    -0.366 A  
HETATM   15  C   UNL     1     -11.536  10.982  69.140  1.00  0.00    -0.389 A  
HETATM   16  C   UNL     1     -10.636   9.407  67.477  1.00  0.00    -0.333 A  
HETATM   17  C   UNL     1     -10.844  10.734  67.925  1.00  0.00    -0.313 A  
HETATM   18  C   UNL     1      -9.932   9.113  66.313  1.00  0.00    -0.352 A  
HETATM   19  C   UNL     1     -10.327  11.817  67.142  1.00  0.00    -0.242 A  
HETATM   20  C   UNL     1      -9.508  11.460  66.033  1.00  0.00    -0.245 A  
HETATM   21  C   UNL     1      -9.345  10.140  65.603  1.00  0.00    -0.250 A  
BRANCH  15  22
HETATM   22  C   UNL     1     -12.109   9.902  70.052  1.00  0.00    -0.017 C  
HETATM   23  C   UNL     1     -11.674   9.892  71.507  1.00  0.00    -0.414 C  
HETATM   24  C   UNL     1     -13.091  10.198  71.159  1.00  0.00    -0.480 C  
ENDBRANCH  15  22
ENDBRANCH  10  12
ENDBRANCH   5   6
ENDBRANCH   4   5
TORSDOF 4
ENDMDL
MODEL       66
REMARK 921   NORMALIZED FREE ENERGY PREDICTED BY IDOCK:   -5.39 KCAL/MOL
REMARK 922        TOTAL FREE ENERGY PREDICTED BY IDOCK:   -7.53 KCAL/MOL
REMARK 923 INTER-LIGAND FREE ENERGY PREDICTED BY IDOCK:   -6.96 KCAL/MOL
REMARK 924 INTRA-LIGAND FREE ENERGY PREDICTED BY IDOCK:   -0.57 KCAL/MOL
REMARK 927      BINDING AFFINITY PREDICTED BY RF-SCORE:    0.00 PKD
ROOT
HETATM    1  O   UNL     1     -10.863  12.145  63.152  1.00  0.00    -0.366 OA 
HETATM    2  C   UNL     1     -12.039  12.170  63.826  1.00  0.00    -0.525 C  
HETATM    3  O   UNL     1     -13.108  12.071  63.249  1.00  0.00    -0.701 OA 
HETATM    4  C   UNL     1     -11.909  12.250  65.338  1.00  0.00    -0.360 C  
ENDROOT
BRANCH   4   5
HETATM    5  S   UNL     1     -10.343  13.056  65.865  1.00  0.00    -0.291 SA 
BRANCH   5   6
HETATM    6  C   UNL     1     -10.943  14.024  67.179  1.00  0.00    -0.296 A  
HETATM    7  N   UNL     1     -11.343  15.260  66.978  1.00  0.00    -0.282 NA 
HETATM    8  N   UNL     1     -11.613  15.814  68.189  1.00  0.00    -0.311 NA 
HETATM    9  C   UNL     1     -11.361  14.908  69.110  1.00  0.00    -0.292 A  
HETATM   10  N   UNL     1     -11.130  13.665  68.519  1.00  0.00    -0.262 NA 
HETATM   11 BR   UNL     1     -11.088  15.437  70.895  1.00  0.00    -0.334 Br 
BRANCH  10  12
HETATM   12  C   UNL     1     -10.993  12.398  69.192  1.00  0.00    -0.152 A  
HETATM   13  C   UNL     1     -12.077  11.908  69.923  1.00  0.00    -0.344 A  
HETATM   14  C   UNL     1     -12.052  10.622  70.456  1.00  0.00    -0.448 A  
HETATM   15  C   UNL     1     -10.981   9.742  70.245  1.00  0.00    -0.352 A  
HETATM   16  C   UNL     1      -8.702   9.422  69.375  1.00  0.00    -0.157 A  
HETATM   17  C   UNL     1      -9.838  10.244  69.567  1.00  0.00    -0.244 A  
HETATM   18  C   UNL     1      -7.546   9.880  68.749  1.00  0.00    -0.081 A  
HETATM   19  C   UNL     1      -9.807  11.592  69.082  1.00  0.00     0.085 A  
HETATM   20  C   UNL     1      -8.561  12.049  68.567  1.00  0.00    -0.093 A  
HETATM   21  C   UNL     1      -7.466  11.203  68.367  1.00  0.00    -0.102 A  
BRANCH  15  22
HETATM   22  C   UNL     1     -11.109   8.332  70.812  1.00  0.00    -0.280 C  
HETATM   23  C   UNL     1     -11.304   8.180  72.310  1.00  0.00    -0.429 C  
HETATM   24  C   UNL     1     -12.398   7.787  71.376  1.00  0.00    -0.346 C  
ENDBRANCH  15  22
ENDBRANCH  10  12
ENDBRANCH   5   6
ENDBRANCH   4   5
TORSDOF 4
ENDMDL
MODEL       67
REMARK 921   NORMALIZED FREE ENERGY PREDICTED BY IDOCK:   -5.37 KCAL/MOL
REMARK 922        TOTAL FREE ENERGY PREDICTED BY IDOCK:   -7.51 KCAL/MOL
REMARK 923 INTER-LIGAND FREE ENERGY PREDICTED BY IDOCK:   -6.57 KCAL/MOL
REMARK 924 INTRA-LIGAND FREE ENERGY PREDICTED BY IDOCK:   -0.94 KCAL/MOL
REMARK 927      BINDING AFFINITY PREDICTED BY RF-SCORE:    0.00 PKD
ROOT
HETATM    1  O   UNL     1     -13.516   7.980  71.852  1.00  0.00    -0.331 OA 
HETATM    2  C   UNL     1     -12.421   7.191  71.722  1.00  0.00    -0.350 C  
HETATM    3  O   UNL     1     -12.352   6.101  72.260  1.00  0.00    -0.271 OA 
HETATM    4  C   UNL     1     -11.344   7.739  70.800  1.00  0.00    -0.279 C  
ENDROOT
BRANCH   4   5
HETATM    5  S   UNL     1     -11.373   9.574  70.700  1.00  0.00    -0.322 SA 
BRANCH   5   6
HETATM    6  C   UNL     1      -9.710   9.867  70.284  1.00  0.00    -0.154 A  
HETATM    7  N   UNL     1      -8.736   9.364  71.009  1.00  0.00    -0.279 NA 
HETATM    8  N   UNL     1      -7.564   9.875  70.545  1.00  0.00    -0.290 NA 
HETATM    9  C   UNL     1      -7.847  10.691  69.553  1.00  0.00    -0.083 A  
HETATM   10  N   UNL     1      -9.190  10.572  69.193  1.00  0.00    -0.185 NA 
HETATM   11 BR   UNL     1      -6.590  11.985  69.016  1.00  0.00    -0.098 Br 
BRANCH  10  12
HETATM   12  C   UNL     1      -9.835  11.164  68.048  1.00  0.00    -0.174 A  
HETATM   13  C   UNL     1     -10.017  10.385  66.904  1.00  0.00    -0.254 A  
HETATM   14  C   UNL     1     -10.774  10.857  65.835  1.00  0.00    -0.193 A  
HETATM   15  C   UNL     1     -11.431  12.095  65.869  1.00  0.00    -0.418 A  
HETATM   16  C   UNL     1     -11.790  14.219  67.056  1.00  0.00    -0.455 A  
HETATM   17  C   UNL     1     -11.202  12.934  66.992  1.00  0.00    -0.329 A  
HETATM   18  C   UNL     1     -11.565  15.091  68.118  1.00  0.00    -0.360 A  
HETATM   19  C   UNL     1     -10.358  12.505  68.067  1.00  0.00    -0.226 A  
HETATM   20  C   UNL     1     -10.058  13.477  69.062  1.00  0.00     0.076 A  
HETATM   21  C   UNL     1     -10.677  14.730  69.110  1.00  0.00    -0.258 A  
BRANCH  15  22
HETATM   22  C   UNL     1     -12.297  12.463  64.668  1.00  0.00    -0.518 C  
HETATM   23  C   UNL     1     -11.693  13.358  63.600  1.00  0.00    -0.376 C  
HETATM   24  C   UNL     1     -12.035  11.944  63.276  1.00  0.00    -0.441 C  
ENDBRANCH  15  22
ENDBRANCH  10  12
ENDBRANCH   5   6
ENDBRANCH   4   5
TORSDOF 4
ENDMDL
MODEL       68
REMARK 921   NORMALIZED FREE ENERGY PREDICTED BY IDOCK:   -5.35 KCAL/MOL
REMARK 922        TOTAL FREE ENERGY PREDICTED BY IDOCK:   -7.49 KCAL/MOL
REMARK 923 INTER-LIGAND FREE ENERGY PREDICTED BY IDOCK:   -7.16 KCAL/MOL
REMARK 924 INTRA-LIGAND FREE ENERGY PREDICTED BY IDOCK:   -0.32 KCAL/MOL
REMARK 927      BINDING AFFINITY PREDICTED BY RF-SCORE:    0.00 PKD
ROOT
HETATM    1  O   UNL     1     -10.463  14.245  64.484  1.00  0.00    -0.381 OA 
HETATM    2  C   UNL     1     -11.808  14.115  64.389  1.00  0.00    -0.428 C  
HETATM    3  O   UNL     1     -12.494  14.961  63.842  1.00  0.00    -0.806 OA 
HETATM    4  C   UNL     1     -12.367  12.813  64.940  1.00  0.00    -0.490 C  
ENDROOT
BRANCH   4   5
HETATM    5  S   UNL     1     -11.301  12.093  66.253  1.00  0.00    -0.364 SA 
BRANCH   5   6
HETATM    6  C   UNL     1     -11.792  13.081  67.598  1.00  0.00    -0.351 A  
HETATM    7  N   UNL     1     -12.277  14.287  67.406  1.00  0.00    -0.326 NA 
HETATM    8  N   UNL     1     -12.431  14.873  68.623  1.00  0.00     0.088 NA 
HETATM    9  C   UNL     1     -12.024  14.017  69.535  1.00  0.00    -0.339 A  
HETATM   10  N   UNL     1     -11.799  12.765  68.961  1.00  0.00    -0.305 NA 
HETATM   11 BR   UNL     1     -11.569  14.626  71.257  1.00  0.00    -0.153 Br 
BRANCH  10  12
HETATM   12  C   UNL     1     -11.517  11.533  69.654  1.00  0.00    -0.301 A  
HETATM   13  C   UNL     1     -12.493  11.000  70.498  1.00  0.00    -0.432 A  
HETATM   14  C   UNL     1     -12.333   9.737  71.062  1.00  0.00    -0.422 A  
HETATM   15  C   UNL     1     -11.230   8.921  70.774  1.00  0.00    -0.321 A  
HETATM   16  C   UNL     1      -9.026   8.716  69.701  1.00  0.00    -0.145 A  
HETATM   17  C   UNL     1     -10.191   9.470  69.977  1.00  0.00    -0.281 A  
HETATM   18  C   UNL     1      -7.966   9.225  68.955  1.00  0.00    -0.097 A  
HETATM   19  C   UNL     1     -10.294  10.800  69.454  1.00  0.00    -0.207 A  
HETATM   20  C   UNL     1      -9.135  11.317  68.810  1.00  0.00    -0.122 A  
HETATM   21  C   UNL     1      -8.010  10.537  68.530  1.00  0.00    -0.118 A  
BRANCH  15  22
HETATM   22  C   UNL     1     -11.211   7.525  71.390  1.00  0.00    -0.267 C  
HETATM   23  C   UNL     1     -11.184   7.413  72.904  1.00  0.00    -0.368 C  
HETATM   24  C   UNL     1     -12.380   6.944  72.147  1.00  0.00    -0.227 C  
ENDBRANCH  15  22
ENDBRANCH  10  12
ENDBRANCH   5   6
ENDBRANCH   4   5
TORSDOF 4
ENDMDL
MODEL       69
REMARK 921   NORMALIZED FREE ENERGY PREDICTED BY IDOCK:   -5.35 KCAL/MOL
REMARK 922        TOTAL FREE ENERGY PREDICTED BY IDOCK:   -7.48 KCAL/MOL
REMARK 923 INTER-LIGAND FREE ENERGY PREDICTED BY IDOCK:   -7.13 KCAL/MOL
REMARK 924 INTRA-LIGAND FREE ENERGY PREDICTED BY IDOCK:   -0.35 KCAL/MOL
REMARK 927      BINDING AFFINITY PREDICTED BY RF-SCORE:    0.00 PKD
ROOT
HETATM    1  O   UNL     1     -13.655  12.787  72.400  1.00  0.00    -0.565 OA 
HETATM    2  C   UNL     1     -13.021  13.708  71.635  1.00  0.00    -0.362 C  
HETATM    3  O   UNL     1     -13.236  14.900  71.761  1.00  0.00    -0.308 OA 
HETATM    4  C   UNL     1     -11.980  13.142  70.683  1.00  0.00    -0.162 C  
ENDROOT
BRANCH   4   5
HETATM    5  S   UNL     1     -12.336  11.402  70.208  1.00  0.00    -0.271 SA 
BRANCH   5   6
HETATM    6  C   UNL     1     -10.837  11.005  69.421  1.00  0.00    -0.231 A  
HETATM    7  N   UNL     1     -10.311   9.806  69.539  1.00  0.00    -0.214 NA 
HETATM    8  N   UNL     1      -9.084   9.829  68.953  1.00  0.00    -0.142 NA 
HETATM    9  C   UNL     1      -8.879  11.046  68.498  1.00  0.00    -0.159 A  
HETATM   10  N   UNL     1     -10.052  11.799  68.577  1.00  0.00    -0.210 NA 
HETATM   11 BR   UNL     1      -7.128  11.623  68.120  1.00  0.00    -0.084 Br 
BRANCH  10  12
HETATM   12  C   UNL     1     -10.278  13.110  68.024  1.00  0.00    -0.233 A  
HETATM   13  C   UNL     1      -9.825  14.224  68.733  1.00  0.00    -0.189 A  
HETATM   14  C   UNL     1      -9.875  15.496  68.169  1.00  0.00    -0.216 A  
HETATM   15  C   UNL     1     -10.322  15.718  66.858  1.00  0.00    -0.295 A  
HETATM   16  C   UNL     1     -11.374  14.785  64.840  1.00  0.00    -0.411 A  
HETATM   17  C   UNL     1     -10.854  14.612  66.145  1.00  0.00    -0.321 A  
HETATM   18  C   UNL     1     -11.938  13.738  64.116  1.00  0.00    -0.473 A  
HETATM   19  C   UNL     1     -10.891  13.307  66.737  1.00  0.00    -0.289 A  
HETATM   20  C   UNL     1     -11.591  12.304  66.010  1.00  0.00    -0.451 A  
HETATM   21  C   UNL     1     -12.071  12.501  64.712  1.00  0.00    -0.497 A  
BRANCH  15  22
HETATM   22  C   UNL     1     -10.251  17.146  66.326  1.00  0.00    -0.340 C  
HETATM   23  C   UNL     1     -10.455  18.285  67.309  1.00  0.00    -0.419 C  
HETATM   24  C   UNL     1      -9.126  18.094  66.662  1.00  0.00    -0.290 C  
ENDBRANCH  15  22
ENDBRANCH  10  12
ENDBRANCH   5   6
ENDBRANCH   4   5
TORSDOF 4
ENDMDL
MODEL       70
REMARK 921   NORMALIZED FREE ENERGY PREDICTED BY IDOCK:   -5.31 KCAL/MOL
REMARK 922        TOTAL FREE ENERGY PREDICTED BY IDOCK:   -7.43 KCAL/MOL
REMARK 923 INTER-LIGAND FREE ENERGY PREDICTED BY IDOCK:   -6.31 KCAL/MOL
REMARK 924 INTRA-LIGAND FREE ENERGY PREDICTED BY IDOCK:   -1.12 KCAL/MOL
REMARK 927      BINDING AFFINITY PREDICTED BY RF-SCORE:    0.00 PKD
ROOT
HETATM    1  O   UNL     1     -11.311   6.084  70.003  1.00  0.00    -0.384 OA 
HETATM    2  C   UNL     1     -10.484   5.226  69.357  1.00  0.00    -0.214 C  
HETATM    3  O   UNL     1     -10.008   4.254  69.916  1.00  0.00    -0.221 OA 
HETATM    4  C   UNL     1     -10.270   5.531  67.883  1.00  0.00    -0.181 C  
ENDROOT
BRANCH   4   5
HETATM    5  S   UNL     1     -10.497   7.314  67.496  1.00  0.00    -0.282 SA 
BRANCH   5   6
HETATM    6  C   UNL     1      -8.953   7.922  68.019  1.00  0.00    -0.127 A  
HETATM    7  N   UNL     1      -7.863   7.201  67.880  1.00  0.00    -0.112 NA 
HETATM    8  N   UNL     1      -6.848   7.856  68.504  1.00  0.00    -0.065 NA 
HETATM    9  C   UNL     1      -7.341   8.960  69.023  1.00  0.00    -0.073 A  
HETATM   10  N   UNL     1      -8.644   9.171  68.568  1.00  0.00    -0.128 NA 
HETATM   11 BR   UNL     1      -6.411   9.847  70.398  1.00  0.00    -0.127 Br 
BRANCH  10  12
HETATM   12  C   UNL     1      -9.450  10.349  68.768  1.00  0.00    -0.175 A  
HETATM   13  C   UNL     1      -9.244  11.451  67.938  1.00  0.00    -0.164 A  
HETATM   14  C   UNL     1     -10.101  12.548  67.985  1.00  0.00    -0.220 A  
HETATM   15  C   UNL     1     -11.232  12.582  68.814  1.00  0.00    -0.318 A  
HETATM   16  C   UNL     1     -12.510  11.509  70.621  1.00  0.00    -0.405 A  
HETATM   17  C   UNL     1     -11.420  11.504  69.719  1.00  0.00    -0.362 A  
HETATM   18  C   UNL     1     -12.715  10.493  71.551  1.00  0.00    -0.558 A  
HETATM   19  C   UNL     1     -10.504  10.403  69.748  1.00  0.00    -0.284 A  
HETATM   20  C   UNL     1     -10.684   9.458  70.797  1.00  0.00    -0.373 A  
HETATM   21  C   UNL     1     -11.786   9.479  71.656  1.00  0.00    -0.468 A  
BRANCH  15  22
HETATM   22  C   UNL     1     -12.138  13.805  68.714  1.00  0.00    -0.344 C  
HETATM   23  C   UNL     1     -11.925  14.934  69.708  1.00  0.00    -0.366 C  
HETATM   24  C   UNL     1     -11.646  15.158  68.261  1.00  0.00    -0.357 C  
ENDBRANCH  15  22
ENDBRANCH  10  12
ENDBRANCH   5   6
ENDBRANCH   4   5
TORSDOF 4
ENDMDL
MODEL       71
REMARK 921   NORMALIZED FREE ENERGY PREDICTED BY IDOCK:   -5.28 KCAL/MOL
REMARK 922        TOTAL FREE ENERGY PREDICTED BY IDOCK:   -7.40 KCAL/MOL
REMARK 923 INTER-LIGAND FREE ENERGY PREDICTED BY IDOCK:   -6.45 KCAL/MOL
REMARK 924 INTRA-LIGAND FREE ENERGY PREDICTED BY IDOCK:   -0.95 KCAL/MOL
REMARK 927      BINDING AFFINITY PREDICTED BY RF-SCORE:    0.00 PKD
ROOT
HETATM    1  O   UNL     1     -11.144  18.165  64.948  1.00  0.00    -0.673 OA 
HETATM    2  C   UNL     1     -10.595  19.106  65.755  1.00  0.00    -0.341 C  
HETATM    3  O   UNL     1     -10.889  20.283  65.655  1.00  0.00    -0.228 OA 
HETATM    4  C   UNL     1      -9.661  18.564  66.825  1.00  0.00    -0.333 C  
ENDROOT
BRANCH   4   5
HETATM    5  S   UNL     1      -8.886  16.970  66.338  1.00  0.00    -0.268 SA 
BRANCH   5   6
HETATM    6  C   UNL     1      -8.059  16.586  67.820  1.00  0.00    -0.161 A  
HETATM    7  N   UNL     1      -7.066  17.331  68.249  1.00  0.00    -0.189 NA 
HETATM    8  N   UNL     1      -6.521  16.716  69.332  1.00  0.00    -0.212 NA 
HETATM    9  C   UNL     1      -7.186  15.600  69.536  1.00  0.00    -0.198 A  
HETATM   10  N   UNL     1      -8.324  15.557  68.730  1.00  0.00    -0.172 NA 
HETATM   11 BR   UNL     1      -6.418  14.228  70.571  1.00  0.00     0.070 Br 
BRANCH  10  12
HETATM   12  C   UNL     1      -9.390  14.589  68.788  1.00  0.00    -0.177 A  
HETATM   13  C   UNL     1      -9.260  13.405  68.061  1.00  0.00    -0.209 A  
HETATM   14  C   UNL     1     -10.184  12.373  68.210  1.00  0.00    -0.230 A  
HETATM   15  C   UNL     1     -11.245  12.442  69.124  1.00  0.00    -0.295 A  
HETATM   16  C   UNL     1     -12.527  13.815  70.713  1.00  0.00    -0.441 A  
HETATM   17  C   UNL     1     -11.439  13.664  69.821  1.00  0.00    -0.256 A  
HETATM   18  C   UNL     1     -12.779  15.005  71.390  1.00  0.00    -0.414 A  
HETATM   19  C   UNL     1     -10.550  14.770  69.621  1.00  0.00    -0.167 A  
HETATM   20  C   UNL     1     -10.923  15.999  70.235  1.00  0.00    -0.360 A  
HETATM   21  C   UNL     1     -11.990  16.107  71.131  1.00  0.00    -0.357 A  
BRANCH  15  22
HETATM   22  C   UNL     1     -12.140  11.214  69.253  1.00  0.00    -0.377 C  
HETATM   23  C   UNL     1     -11.478   9.847  69.271  1.00  0.00    -0.046 C  
HETATM   24  C   UNL     1     -12.175  10.348  70.489  1.00  0.00    -0.412 C  
ENDBRANCH  15  22
ENDBRANCH  10  12
ENDBRANCH   5   6
ENDBRANCH   4   5
TORSDOF 4
ENDMDL
MODEL       72
REMARK 921   NORMALIZED FREE ENERGY PREDICTED BY IDOCK:   -5.28 KCAL/MOL
REMARK 922        TOTAL FREE ENERGY PREDICTED BY IDOCK:   -7.40 KCAL/MOL
REMARK 923 INTER-LIGAND FREE ENERGY PREDICTED BY IDOCK:   -6.36 KCAL/MOL
REMARK 924 INTRA-LIGAND FREE ENERGY PREDICTED BY IDOCK:   -1.04 KCAL/MOL
REMARK 927      BINDING AFFINITY PREDICTED BY RF-SCORE:    0.00 PKD
ROOT
HETATM    1  O   UNL     1     -11.713   8.121  70.464  1.00  0.00    -0.201 OA 
HETATM    2  C   UNL     1     -11.036   6.999  70.812  1.00  0.00    -0.273 C  
HETATM    3  O   UNL     1     -10.650   6.814  71.953  1.00  0.00    -0.207 OA 
HETATM    4  C   UNL     1     -10.876   5.977  69.699  1.00  0.00    -0.369 C  
ENDROOT
BRANCH   4   5
HETATM    5  S   UNL     1     -10.907   6.748  68.030  1.00  0.00    -0.215 SA 
BRANCH   5   6
HETATM    6  C   UNL     1      -9.420   7.648  68.099  1.00  0.00    -0.145 A  
HETATM    7  N   UNL     1      -8.331   7.113  68.604  1.00  0.00    -0.125 NA 
HETATM    8  N   UNL     1      -7.380   8.082  68.667  1.00  0.00    -0.087 NA 
HETATM    9  C   UNL     1      -7.912   9.196  68.210  1.00  0.00    -0.103 A  
HETATM   10  N   UNL     1      -9.155   8.940  67.630  1.00  0.00    -0.134 NA 
HETATM   11 BR   UNL     1      -7.123  10.852  68.630  1.00  0.00    -0.087 Br 
BRANCH  10  12
HETATM   12  C   UNL     1      -9.963   9.861  66.872  1.00  0.00    -0.212 A  
HETATM   13  C   UNL     1     -10.916  10.627  67.546  1.00  0.00    -0.371 A  
HETATM   14  C   UNL     1     -11.607  11.642  66.889  1.00  0.00    -0.246 A  
HETATM   15  C   UNL     1     -11.349  11.983  65.554  1.00  0.00    -0.381 A  
HETATM   16  C   UNL     1     -10.179  11.430  63.461  1.00  0.00    -0.461 A  
HETATM   17  C   UNL     1     -10.436  11.172  64.829  1.00  0.00    -0.388 A  
HETATM   18  C   UNL     1      -9.321  10.640  62.700  1.00  0.00    -0.332 A  
HETATM   19  C   UNL     1      -9.776  10.068  65.460  1.00  0.00    -0.355 A  
HETATM   20  C   UNL     1      -9.012   9.219  64.611  1.00  0.00    -0.202 A  
HETATM   21  C   UNL     1      -8.757   9.518  63.269  1.00  0.00    -0.238 A  
BRANCH  15  22
HETATM   22  C   UNL     1     -12.113  13.168  64.972  1.00  0.00    -0.458 C  
HETATM   23  C   UNL     1     -12.720  14.170  65.939  1.00  0.00    -0.387 C  
HETATM   24  C   UNL     1     -11.606  14.588  65.040  1.00  0.00    -0.382 C  
ENDBRANCH  15  22
ENDBRANCH  10  12
ENDBRANCH   5   6
ENDBRANCH   4   5
TORSDOF 4
ENDMDL
MODEL       73
REMARK 921   NORMALIZED FREE ENERGY PREDICTED BY IDOCK:   -5.26 KCAL/MOL
REMARK 922        TOTAL FREE ENERGY PREDICTED BY IDOCK:   -7.38 KCAL/MOL
REMARK 923 INTER-LIGAND FREE ENERGY PREDICTED BY IDOCK:   -6.38 KCAL/MOL
REMARK 924 INTRA-LIGAND FREE ENERGY PREDICTED BY IDOCK:   -1.00 KCAL/MOL
REMARK 927      BINDING AFFINITY PREDICTED BY RF-SCORE:    0.00 PKD
ROOT
HETATM    1  O   UNL     1     -12.539  13.586  63.396  1.00  0.00    -0.740 OA 
HETATM    2  C   UNL     1     -12.711  13.661  64.739  1.00  0.00    -0.219 C  
HETATM    3  O   UNL     1     -13.415  14.517  65.246  1.00  0.00    -0.376 OA 
HETATM    4  C   UNL     1     -12.030  12.560  65.534  1.00  0.00    -0.442 C  
ENDROOT
BRANCH   4   5
HETATM    5  S   UNL     1     -10.559  11.877  64.668  1.00  0.00    -0.325 SA 
BRANCH   5   6
HETATM    6  C   UNL     1      -9.952  10.826  65.913  1.00  0.00    -0.250 A  
HETATM    7  N   UNL     1      -9.919   9.524  65.739  1.00  0.00    -0.295 NA 
HETATM    8  N   UNL     1      -9.545   8.954  66.916  1.00  0.00    -0.174 NA 
HETATM    9  C   UNL     1      -9.369   9.921  67.791  1.00  0.00    -0.140 A  
HETATM   10  N   UNL     1      -9.407  11.164  67.157  1.00  0.00    -0.164 NA 
HETATM   11 BR   UNL     1      -9.384   9.532  69.632  1.00  0.00    -0.231 Br 
BRANCH  10  12
HETATM   12  C   UNL     1      -9.085  12.442  67.739  1.00  0.00    -0.193 A  
HETATM   13  C   UNL     1      -7.856  13.028  67.433  1.00  0.00    -0.166 A  
HETATM   14  C   UNL     1      -7.566  14.328  67.838  1.00  0.00    -0.159 A  
HETATM   15  C   UNL     1      -8.496  15.128  68.516  1.00  0.00    -0.160 A  
HETATM   16  C   UNL     1     -10.681  15.269  69.638  1.00  0.00    -0.289 A  
HETATM   17  C   UNL     1      -9.726  14.530  68.901  1.00  0.00    -0.169 A  
HETATM   18  C   UNL     1     -11.883  14.715  70.069  1.00  0.00    -0.363 A  
HETATM   19  C   UNL     1     -10.013  13.166  68.568  1.00  0.00    -0.182 A  
HETATM   20  C   UNL     1     -11.193  12.612  69.140  1.00  0.00    -0.300 A  
HETATM   21  C   UNL     1     -12.128  13.377  69.841  1.00  0.00    -0.389 A  
BRANCH  15  22
HETATM   22  C   UNL     1      -8.088  16.563  68.833  1.00  0.00    -0.240 C  
HETATM   23  C   UNL     1      -6.684  16.806  69.358  1.00  0.00    -0.226 C  
HETATM   24  C   UNL     1      -7.075  17.329  68.018  1.00  0.00    -0.184 C  
ENDBRANCH  15  22
ENDBRANCH  10  12
ENDBRANCH   5   6
ENDBRANCH   4   5
TORSDOF 4
ENDMDL
MODEL       74
REMARK 921   NORMALIZED FREE ENERGY PREDICTED BY IDOCK:   -5.26 KCAL/MOL
REMARK 922        TOTAL FREE ENERGY PREDICTED BY IDOCK:   -7.37 KCAL/MOL
REMARK 923 INTER-LIGAND FREE ENERGY PREDICTED BY IDOCK:   -6.38 KCAL/MOL
REMARK 924 INTRA-LIGAND FREE ENERGY PREDICTED BY IDOCK:   -0.99 KCAL/MOL
REMARK 927      BINDING AFFINITY PREDICTED BY RF-SCORE:    0.00 PKD
ROOT
HETATM    1  O   UNL     1      -8.273   7.973  63.133  1.00  0.00    -0.142 OA 
HETATM    2  C   UNL     1      -7.712   7.625  64.316  1.00  0.00    -0.131 C  
HETATM    3  O   UNL     1      -7.087   6.587  64.445  1.00  0.00    -0.057 OA 
HETATM    4  C   UNL     1      -7.856   8.657  65.422  1.00  0.00    -0.101 C  
ENDROOT
BRANCH   4   5
HETATM    5  S   UNL     1      -9.340   9.719  65.200  1.00  0.00    -0.268 SA 
BRANCH   5   6
HETATM    6  C   UNL     1      -9.869   9.826  66.853  1.00  0.00    -0.201 A  
HETATM    7  N   UNL     1     -10.040   8.742  67.577  1.00  0.00    -0.205 NA 
HETATM    8  N   UNL     1     -10.594   9.115  68.761  1.00  0.00    -0.208 NA 
HETATM    9  C   UNL     1     -10.763  10.419  68.733  1.00  0.00    -0.225 A  
HETATM   10  N   UNL     1     -10.123  10.968  67.620  1.00  0.00    -0.179 NA 
HETATM   11 BR   UNL     1     -11.973  11.234  69.922  1.00  0.00    -0.458 Br 
BRANCH  10  12
HETATM   12  C   UNL     1      -9.933  12.368  67.335  1.00  0.00    -0.202 A  
HETATM   13  C   UNL     1      -8.892  13.046  67.972  1.00  0.00    -0.191 A  
HETATM   14  C   UNL     1      -8.567  14.351  67.612  1.00  0.00    -0.189 A  
HETATM   15  C   UNL     1      -9.217  15.026  66.569  1.00  0.00    -0.320 A  
HETATM   16  C   UNL     1     -11.058  15.037  64.937  1.00  0.00    -0.425 A  
HETATM   17  C   UNL     1     -10.325  14.383  65.955  1.00  0.00    -0.319 A  
HETATM   18  C   UNL     1     -12.173  14.463  64.332  1.00  0.00    -0.481 A  
HETATM   19  C   UNL     1     -10.732  13.072  66.367  1.00  0.00    -0.295 A  
HETATM   20  C   UNL     1     -11.948  12.585  65.811  1.00  0.00    -0.482 A  
HETATM   21  C   UNL     1     -12.634  13.245  64.788  1.00  0.00    -0.398 A  
BRANCH  15  22
HETATM   22  C   UNL     1      -8.714  16.421  66.216  1.00  0.00    -0.369 C  
HETATM   23  C   UNL     1      -8.465  17.399  67.351  1.00  0.00    -0.215 C  
HETATM   24  C   UNL     1      -7.320  16.899  66.538  1.00  0.00    -0.317 C  
ENDBRANCH  15  22
ENDBRANCH  10  12
ENDBRANCH   5   6
ENDBRANCH   4   5
TORSDOF 4
ENDMDL
MODEL       75
REMARK 921   NORMALIZED FREE ENERGY PREDICTED BY IDOCK:   -5.25 KCAL/MOL
REMARK 922        TOTAL FREE ENERGY PREDICTED BY IDOCK:   -7.36 KCAL/MOL
REMARK 923 INTER-LIGAND FREE ENERGY PREDICTED BY IDOCK:   -6.62 KCAL/MOL
REMARK 924 INTRA-LIGAND FREE ENERGY PREDICTED BY IDOCK:   -0.74 KCAL/MOL
REMARK 927      BINDING AFFINITY PREDICTED BY RF-SCORE:    0.00 PKD
ROOT
HETATM    1  O   UNL     1     -13.265  13.970  72.975  1.00  0.00    -0.588 OA 
HETATM    2  C   UNL     1     -13.580  15.068  72.247  1.00  0.00    -0.443 C  
HETATM    3  O   UNL     1     -14.398  15.881  72.638  1.00  0.00    -0.476 OA 
HETATM    4  C   UNL     1     -12.781  15.236  70.964  1.00  0.00    -0.424 C  
ENDROOT
BRANCH   4   5
HETATM    5  S   UNL     1     -12.179  13.632  70.298  1.00  0.00    -0.332 SA 
BRANCH   5   6
HETATM    6  C   UNL     1     -11.523  14.177  68.782  1.00  0.00    -0.299 A  
HETATM    7  N   UNL     1     -11.589  15.443  68.436  1.00  0.00    -0.354 NA 
HETATM    8  N   UNL     1     -11.141  15.549  67.157  1.00  0.00    -0.296 NA 
HETATM    9  C   UNL     1     -10.820  14.343  66.742  1.00  0.00    -0.301 A  
HETATM   10  N   UNL     1     -10.841  13.441  67.807  1.00  0.00    -0.248 NA 
HETATM   11 BR   UNL     1     -10.682  13.991  64.898  1.00  0.00    -0.447 Br 
BRANCH  10  12
HETATM   12  C   UNL     1     -10.384  12.074  67.793  1.00  0.00    -0.197 A  
HETATM   13  C   UNL     1     -11.313  11.056  68.016  1.00  0.00    -0.374 A  
HETATM   14  C   UNL     1     -10.956   9.719  67.854  1.00  0.00    -0.246 A  
HETATM   15  C   UNL     1      -9.684   9.331  67.411  1.00  0.00    -0.208 A  
HETATM   16  C   UNL     1      -7.384  10.008  66.860  1.00  0.00    -0.092 A  
HETATM   17  C   UNL     1      -8.703  10.344  67.248  1.00  0.00    -0.125 A  
HETATM   18  C   UNL     1      -6.380  10.962  66.722  1.00  0.00    -0.097 A  
HETATM   19  C   UNL     1      -9.023  11.720  67.491  1.00  0.00    -0.168 A  
HETATM   20  C   UNL     1      -7.934  12.636  67.461  1.00  0.00    -0.174 A  
HETATM   21  C   UNL     1      -6.648  12.275  67.049  1.00  0.00    -0.046 A  
BRANCH  15  22
HETATM   22  C   UNL     1      -9.442   7.841  67.194  1.00  0.00    -0.198 C  
HETATM   23  C   UNL     1     -10.050   6.866  68.188  1.00  0.00    -0.187 C  
HETATM   24  C   UNL     1     -10.530   6.883  66.777  1.00  0.00    -0.300 C  
ENDBRANCH  15  22
ENDBRANCH  10  12
ENDBRANCH   5   6
ENDBRANCH   4   5
TORSDOF 4
ENDMDL
MODEL       76
REMARK 921   NORMALIZED FREE ENERGY PREDICTED BY IDOCK:   -5.20 KCAL/MOL
REMARK 922        TOTAL FREE ENERGY PREDICTED BY IDOCK:   -7.30 KCAL/MOL
REMARK 923 INTER-LIGAND FREE ENERGY PREDICTED BY IDOCK:   -6.29 KCAL/MOL
REMARK 924 INTRA-LIGAND FREE ENERGY PREDICTED BY IDOCK:   -1.01 KCAL/MOL
REMARK 927      BINDING AFFINITY PREDICTED BY RF-SCORE:    0.00 PKD
ROOT
HETATM    1  O   UNL     1      -9.461   7.733  66.086  1.00  0.00    -0.157 OA 
HETATM    2  C   UNL     1     -10.344   7.918  67.097  1.00  0.00    -0.328 C  
HETATM    3  O   UNL     1     -10.810   6.980  67.718  1.00  0.00    -0.228 OA 
HETATM    4  C   UNL     1     -10.635   9.372  67.433  1.00  0.00    -0.258 C  
ENDROOT
BRANCH   4   5
HETATM    5  S   UNL     1     -10.388  10.488  65.993  1.00  0.00    -0.173 SA 
BRANCH   5   6
HETATM    6  C   UNL     1      -8.968  11.338  66.527  1.00  0.00    -0.184 A  
HETATM    7  N   UNL     1      -7.773  10.986  66.107  1.00  0.00    -0.137 NA 
HETATM    8  N   UNL     1      -6.856  11.716  66.795  1.00  0.00    -0.121 NA 
HETATM    9  C   UNL     1      -7.509  12.492  67.634  1.00  0.00    -0.139 A  
HETATM   10  N   UNL     1      -8.878  12.455  67.366  1.00  0.00    -0.179 NA 
HETATM   11 BR   UNL     1      -6.614  13.236  69.113  1.00  0.00    -0.089 Br 
BRANCH  10  12
HETATM   12  C   UNL     1      -9.896  13.294  67.946  1.00  0.00    -0.234 A  
HETATM   13  C   UNL     1     -10.776  12.734  68.874  1.00  0.00    -0.199 A  
HETATM   14  C   UNL     1     -11.670  13.535  69.579  1.00  0.00    -0.382 A  
HETATM   15  C   UNL     1     -11.698  14.930  69.442  1.00  0.00    -0.349 A  
HETATM   16  C   UNL     1     -10.889  16.910  68.226  1.00  0.00    -0.357 A  
HETATM   17  C   UNL     1     -10.863  15.513  68.452  1.00  0.00    -0.273 A  
HETATM   18  C   UNL     1     -10.116  17.522  67.243  1.00  0.00    -0.327 A  
HETATM   19  C   UNL     1      -9.995  14.699  67.654  1.00  0.00    -0.227 A  
HETATM   20  C   UNL     1      -9.324  15.354  66.582  1.00  0.00    -0.288 A  
HETATM   21  C   UNL     1      -9.352  16.740  66.403  1.00  0.00    -0.305 A  
BRANCH  15  22
HETATM   22  C   UNL     1     -12.667  15.703  70.331  1.00  0.00    -0.325 C  
HETATM   23  C   UNL     1     -13.416  14.936  71.407  1.00  0.00    -0.502 C  
HETATM   24  C   UNL     1     -12.409  15.965  71.795  1.00  0.00    -0.533 C  
ENDBRANCH  15  22
ENDBRANCH  10  12
ENDBRANCH   5   6
ENDBRANCH   4   5
TORSDOF 4
ENDMDL
MODEL       77
REMARK 921   NORMALIZED FREE ENERGY PREDICTED BY IDOCK:   -5.17 KCAL/MOL
REMARK 922        TOTAL FREE ENERGY PREDICTED BY IDOCK:   -7.26 KCAL/MOL
REMARK 923 INTER-LIGAND FREE ENERGY PREDICTED BY IDOCK:   -6.13 KCAL/MOL
REMARK 924 INTRA-LIGAND FREE ENERGY PREDICTED BY IDOCK:   -1.13 KCAL/MOL
REMARK 927      BINDING AFFINITY PREDICTED BY RF-SCORE:    0.00 PKD
ROOT
HETATM    1  O   UNL     1      -6.869  14.596  67.251  1.00  0.00    -0.254 OA 
HETATM    2  C   UNL     1      -6.305  14.762  68.472  1.00  0.00    -0.086 C  
HETATM    3  O   UNL     1      -5.941  15.856  68.864  1.00  0.00    -0.109 OA 
HETATM    4  C   UNL     1      -6.243  13.505  69.324  1.00  0.00    -0.105 C  
ENDROOT
BRANCH   4   5
HETATM    5  S   UNL     1      -6.196  11.972  68.310  1.00  0.00    -0.054 SA 
BRANCH   5   6
HETATM    6  C   UNL     1      -7.395  11.033  69.150  1.00  0.00    -0.121 A  
HETATM    7  N   UNL     1      -7.106  10.428  70.281  1.00  0.00    -0.255 NA 
HETATM    8  N   UNL     1      -8.171   9.657  70.626  1.00  0.00    -0.262 NA 
HETATM    9  C   UNL     1      -9.087   9.797  69.692  1.00  0.00    -0.220 A  
HETATM   10  N   UNL     1      -8.739  10.831  68.821  1.00  0.00    -0.158 NA 
HETATM   11 BR   UNL     1     -10.450   8.512  69.515  1.00  0.00    -0.215 Br 
BRANCH  10  12
HETATM   12  C   UNL     1      -9.560  11.400  67.782  1.00  0.00    -0.172 A  
HETATM   13  C   UNL     1      -9.773  10.662  66.616  1.00  0.00    -0.225 A  
HETATM   14  C   UNL     1     -10.683  11.096  65.656  1.00  0.00    -0.250 A  
HETATM   15  C   UNL     1     -11.465  12.247  65.828  1.00  0.00    -0.417 A  
HETATM   16  C   UNL     1     -11.930  14.256  67.170  1.00  0.00    -0.449 A  
HETATM   17  C   UNL     1     -11.214  13.051  66.971  1.00  0.00    -0.325 A  
HETATM   18  C   UNL     1     -11.693  15.095  68.255  1.00  0.00    -0.336 A  
HETATM   19  C   UNL     1     -10.222  12.670  67.932  1.00  0.00    -0.220 A  
HETATM   20  C   UNL     1      -9.930  13.621  68.950  1.00  0.00    -0.014 A  
HETATM   21  C   UNL     1     -10.674  14.790  69.133  1.00  0.00    -0.258 A  
BRANCH  15  22
HETATM   22  C   UNL     1     -12.485  12.571  64.741  1.00  0.00    -0.532 C  
HETATM   23  C   UNL     1     -12.032  13.422  63.568  1.00  0.00    -0.467 C  
HETATM   24  C   UNL     1     -12.412  11.997  63.347  1.00  0.00    -0.625 C  
ENDBRANCH  15  22
ENDBRANCH  10  12
ENDBRANCH   5   6
ENDBRANCH   4   5
TORSDOF 4
ENDMDL
MODEL       78
REMARK 921   NORMALIZED FREE ENERGY PREDICTED BY IDOCK:   -5.14 KCAL/MOL
REMARK 922        TOTAL FREE ENERGY PREDICTED BY IDOCK:   -7.22 KCAL/MOL
REMARK 923 INTER-LIGAND FREE ENERGY PREDICTED BY IDOCK:   -6.72 KCAL/MOL
REMARK 924 INTRA-LIGAND FREE ENERGY PREDICTED BY IDOCK:   -0.50 KCAL/MOL
REMARK 927      BINDING AFFINITY PREDICTED BY RF-SCORE:    0.00 PKD
ROOT
HETATM    1  O   UNL     1     -12.283  13.738  63.401  1.00  0.00    -0.634 OA 
HETATM    2  C   UNL     1     -12.479  12.500  63.917  1.00  0.00    -0.445 C  
HETATM    3  O   UNL     1     -13.524  11.896  63.749  1.00  0.00    -0.527 OA 
HETATM    4  C   UNL     1     -11.279  11.909  64.638  1.00  0.00    -0.305 C  
ENDROOT
BRANCH   4   5
HETATM    5  S   UNL     1     -10.167  13.203  65.324  1.00  0.00    -0.258 SA 
BRANCH   5   6
HETATM    6  C   UNL     1     -11.077  13.649  66.737  1.00  0.00    -0.307 A  
HETATM    7  N   UNL     1     -11.972  14.610  66.686  1.00  0.00    -0.332 NA 
HETATM    8  N   UNL     1     -12.410  14.839  67.953  1.00  0.00     0.022 NA 
HETATM    9  C   UNL     1     -11.766  14.019  68.755  1.00  0.00    -0.353 A  
HETATM   10  N   UNL     1     -11.047  13.079  68.014  1.00  0.00    -0.248 NA 
HETATM   11 BR   UNL     1     -11.683  14.385  70.599  1.00  0.00    -0.273 Br 
BRANCH  10  12
HETATM   12  C   UNL     1     -10.361  11.918  68.523  1.00  0.00    -0.218 A  
HETATM   13  C   UNL     1      -9.034  11.705  68.145  1.00  0.00    -0.182 A  
HETATM   14  C   UNL     1      -8.281  10.693  68.732  1.00  0.00    -0.142 A  
HETATM   15  C   UNL     1      -8.785   9.881  69.758  1.00  0.00    -0.229 A  
HETATM   16  C   UNL     1     -10.735   9.200  71.095  1.00  0.00    -0.380 A  
HETATM   17  C   UNL     1     -10.153  10.031  70.108  1.00  0.00    -0.266 A  
HETATM   18  C   UNL     1     -12.079   9.286  71.445  1.00  0.00    -0.424 A  
HETATM   19  C   UNL     1     -10.972  11.010  69.457  1.00  0.00    -0.297 A  
HETATM   20  C   UNL     1     -12.363  10.971  69.758  1.00  0.00    -0.331 A  
HETATM   21  C   UNL     1     -12.901  10.155  70.758  1.00  0.00    -0.388 A  
BRANCH  15  22
HETATM   22  C   UNL     1      -7.834   8.861  70.377  1.00  0.00    -0.104 C  
HETATM   23  C   UNL     1      -6.925   8.076  69.447  1.00  0.00    -0.055 C  
HETATM   24  C   UNL     1      -6.337   9.048  70.412  1.00  0.00    -0.044 C  
ENDBRANCH  15  22
ENDBRANCH  10  12
ENDBRANCH   5   6
ENDBRANCH   4   5
TORSDOF 4
ENDMDL
MODEL       79
REMARK 921   NORMALIZED FREE ENERGY PREDICTED BY IDOCK:   -5.14 KCAL/MOL
REMARK 922        TOTAL FREE ENERGY PREDICTED BY IDOCK:   -7.22 KCAL/MOL
REMARK 923 INTER-LIGAND FREE ENERGY PREDICTED BY IDOCK:   -6.36 KCAL/MOL
REMARK 924 INTRA-LIGAND FREE ENERGY PREDICTED BY IDOCK:   -0.86 KCAL/MOL
REMARK 927      BINDING AFFINITY PREDICTED BY RF-SCORE:    0.00 PKD
ROOT
HETATM    1  O   UNL     1     -12.360  13.833  63.689  1.00  0.00    -0.678 OA 
HETATM    2  C   UNL     1     -12.774  13.657  64.968  1.00  0.00    -0.336 C  
HETATM    3  O   UNL     1     -13.689  14.309  65.438  1.00  0.00    -0.311 OA 
HETATM    4  C   UNL     1     -12.065  12.545  65.723  1.00  0.00    -0.378 C  
ENDROOT
BRANCH   4   5
HETATM    5  S   UNL     1     -10.372  12.229  65.081  1.00  0.00    -0.292 SA 
BRANCH   5   6
HETATM    6  C   UNL     1      -9.481  12.285  66.574  1.00  0.00    -0.236 A  
HETATM    7  N   UNL     1      -8.994  13.419  67.026  1.00  0.00    -0.225 NA 
HETATM    8  N   UNL     1      -8.229  13.139  68.115  1.00  0.00    -0.153 NA 
HETATM    9  C   UNL     1      -8.254  11.837  68.299  1.00  0.00    -0.157 A  
HETATM   10  N   UNL     1      -9.211  11.247  67.473  1.00  0.00    -0.157 NA 
HETATM   11 BR   UNL     1      -6.919  11.011  69.338  1.00  0.00    -0.120 Br 
BRANCH  10  12
HETATM   12  C   UNL     1      -9.657   9.877  67.505  1.00  0.00    -0.157 A  
HETATM   13  C   UNL     1      -9.377   9.055  66.412  1.00  0.00    -0.264 A  
HETATM   14  C   UNL     1      -9.643   7.689  66.462  1.00  0.00    -0.254 A  
HETATM   15  C   UNL     1     -10.144   7.064  67.612  1.00  0.00    -0.218 A  
HETATM   16  C   UNL     1     -11.069   7.323  69.877  1.00  0.00    -0.233 A  
HETATM   17  C   UNL     1     -10.503   7.890  68.710  1.00  0.00    -0.198 A  
HETATM   18  C   UNL     1     -11.470   8.095  70.964  1.00  0.00    -0.301 A  
HETATM   19  C   UNL     1     -10.318   9.309  68.651  1.00  0.00    -0.229 A  
HETATM   20  C   UNL     1     -10.859  10.063  69.730  1.00  0.00    -0.308 A  
HETATM   21  C   UNL     1     -11.389   9.470  70.880  1.00  0.00    -0.410 A  
BRANCH  15  22
HETATM   22  C   UNL     1     -10.315   5.549  67.569  1.00  0.00    -0.268 C  
HETATM   23  C   UNL     1     -10.396   4.878  66.208  1.00  0.00    -0.336 C  
HETATM   24  C   UNL     1      -9.230   4.612  67.099  1.00  0.00    -0.140 C  
ENDBRANCH  15  22
ENDBRANCH  10  12
ENDBRANCH   5   6
ENDBRANCH   4   5
TORSDOF 4
ENDMDL
MODEL       80
REMARK 921   NORMALIZED FREE ENERGY PREDICTED BY IDOCK:   -5.12 KCAL/MOL
REMARK 922        TOTAL FREE ENERGY PREDICTED BY IDOCK:   -7.20 KCAL/MOL
REMARK 923 INTER-LIGAND FREE ENERGY PREDICTED BY IDOCK:   -6.34 KCAL/MOL
REMARK 924 INTRA-LIGAND FREE ENERGY PREDICTED BY IDOCK:   -0.86 KCAL/MOL
REMARK 927      BINDING AFFINITY PREDICTED BY RF-SCORE:    0.00 PKD
ROOT
HETATM    1  O   UNL     1     -11.667  13.558  63.717  1.00  0.00    -0.396 OA 
HETATM    2  C   UNL     1     -12.163  12.300  63.629  1.00  0.00    -0.567 C  
HETATM    3  O   UNL     1     -13.341  12.093  63.398  1.00  0.00    -0.570 OA 
HETATM    4  C   UNL     1     -11.129  11.194  63.760  1.00  0.00    -0.077 C  
ENDROOT
BRANCH   4   5
HETATM    5  S   UNL     1      -9.667  11.714  64.745  1.00  0.00    -0.144 SA 
BRANCH   5   6
HETATM    6  C   UNL     1     -10.465  12.209  66.209  1.00  0.00    -0.239 A  
HETATM    7  N   UNL     1     -11.247  11.380  66.864  1.00  0.00    -0.345 NA 
HETATM    8  N   UNL     1     -11.845  12.075  67.867  1.00  0.00    -0.520 NA 
HETATM    9  C   UNL     1     -11.426  13.320  67.798  1.00  0.00    -0.317 A  
HETATM   10  N   UNL     1     -10.374  13.430  66.887  1.00  0.00    -0.255 NA 
HETATM   11 BR   UNL     1     -12.407  14.688  68.640  1.00  0.00     0.111 Br 
BRANCH  10  12
HETATM   12  C   UNL     1      -9.541  14.584  66.661  1.00  0.00    -0.276 A  
HETATM   13  C   UNL     1     -10.086  15.684  65.996  1.00  0.00    -0.355 A  
HETATM   14  C   UNL     1      -9.377  16.878  65.896  1.00  0.00    -0.129 A  
HETATM   15  C   UNL     1      -8.122  17.058  66.496  1.00  0.00    -0.320 A  
HETATM   16  C   UNL     1      -6.227  16.036  67.686  1.00  0.00    -0.184 A  
HETATM   17  C   UNL     1      -7.518  15.932  67.115  1.00  0.00    -0.262 A  
HETATM   18  C   UNL     1      -5.579  14.951  68.271  1.00  0.00    -0.116 A  
HETATM   19  C   UNL     1      -8.193  14.668  67.156  1.00  0.00    -0.227 A  
HETATM   20  C   UNL     1      -7.439  13.566  67.648  1.00  0.00    -0.187 A  
HETATM   21  C   UNL     1      -6.176  13.708  68.229  1.00  0.00    -0.107 A  
BRANCH  15  22
HETATM   22  C   UNL     1      -7.483  18.438  66.384  1.00  0.00    -0.278 C  
HETATM   23  C   UNL     1      -8.370  19.606  65.987  1.00  0.00    -0.294 C  
HETATM   24  C   UNL     1      -7.773  19.559  67.352  1.00  0.00    -0.284 C  
ENDBRANCH  15  22
ENDBRANCH  10  12
ENDBRANCH   5   6
ENDBRANCH   4   5
TORSDOF 4
ENDMDL
MODEL       81
REMARK 921   NORMALIZED FREE ENERGY PREDICTED BY IDOCK:   -5.10 KCAL/MOL
REMARK 922        TOTAL FREE ENERGY PREDICTED BY IDOCK:   -7.17 KCAL/MOL
REMARK 923 INTER-LIGAND FREE ENERGY PREDICTED BY IDOCK:   -6.19 KCAL/MOL
REMARK 924 INTRA-LIGAND FREE ENERGY PREDICTED BY IDOCK:   -0.98 KCAL/MOL
REMARK 927      BINDING AFFINITY PREDICTED BY RF-SCORE:    0.00 PKD
ROOT
HETATM    1  O   UNL     1      -6.868  17.756  67.740  1.00  0.00    -0.177 OA 
HETATM    2  C   UNL     1      -7.957  18.544  67.924  1.00  0.00    -0.255 C  
HETATM    3  O   UNL     1      -7.948  19.470  68.714  1.00  0.00    -0.352 OA 
HETATM    4  C   UNL     1      -9.135  18.227  67.018  1.00  0.00    -0.271 C  
ENDROOT
BRANCH   4   5
HETATM    5  S   UNL     1      -9.150  16.471  66.474  1.00  0.00    -0.300 SA 
BRANCH   5   6
HETATM    6  C   UNL     1     -10.408  15.858  67.507  1.00  0.00    -0.283 A  
HETATM    7  N   UNL     1     -11.118  16.670  68.258  1.00  0.00    -0.346 NA 
HETATM    8  N   UNL     1     -11.911  15.910  69.059  1.00  0.00    -0.374 NA 
HETATM    9  C   UNL     1     -11.660  14.647  68.790  1.00  0.00    -0.317 A  
HETATM   10  N   UNL     1     -10.858  14.542  67.653  1.00  0.00    -0.268 NA 
HETATM   11 BR   UNL     1     -12.133  13.313  70.031  1.00  0.00    -0.339 Br 
BRANCH  10  12
HETATM   12  C   UNL     1     -10.514  13.334  66.945  1.00  0.00    -0.261 A  
HETATM   13  C   UNL     1     -11.329  12.922  65.889  1.00  0.00    -0.348 A  
HETATM   14  C   UNL     1     -10.953  11.857  65.074  1.00  0.00    -0.365 A  
HETATM   15  C   UNL     1      -9.731  11.187  65.231  1.00  0.00    -0.285 A  
HETATM   16  C   UNL     1      -7.705  10.861  66.586  1.00  0.00    -0.146 A  
HETATM   17  C   UNL     1      -8.921  11.541  66.342  1.00  0.00    -0.200 A  
HETATM   18  C   UNL     1      -6.895  11.148  67.682  1.00  0.00    -0.076 A  
HETATM   19  C   UNL     1      -9.327  12.578  67.244  1.00  0.00    -0.190 A  
HETATM   20  C   UNL     1      -8.533  12.745  68.413  1.00  0.00    -0.115 A  
HETATM   21  C   UNL     1      -7.323  12.074  68.611  1.00  0.00    -0.111 A  
BRANCH  15  22
HETATM   22  C   UNL     1      -9.399  10.091  64.224  1.00  0.00    -0.345 C  
HETATM   23  C   UNL     1      -9.562  10.405  62.747  1.00  0.00    -0.311 C  
HETATM   24  C   UNL     1      -8.203  10.153  63.305  1.00  0.00    -0.162 C  
ENDBRANCH  15  22
ENDBRANCH  10  12
ENDBRANCH   5   6
ENDBRANCH   4   5
TORSDOF 4
ENDMDL
MODEL       82
REMARK 921   NORMALIZED FREE ENERGY PREDICTED BY IDOCK:   -5.09 KCAL/MOL
REMARK 922        TOTAL FREE ENERGY PREDICTED BY IDOCK:   -7.16 KCAL/MOL
REMARK 923 INTER-LIGAND FREE ENERGY PREDICTED BY IDOCK:   -6.05 KCAL/MOL
REMARK 924 INTRA-LIGAND FREE ENERGY PREDICTED BY IDOCK:   -1.11 KCAL/MOL
REMARK 927      BINDING AFFINITY PREDICTED BY RF-SCORE:    0.00 PKD
ROOT
HETATM    1  O   UNL     1      -9.388   7.441  70.593  1.00  0.00    -0.160 OA 
HETATM    2  C   UNL     1      -8.975   8.675  70.974  1.00  0.00    -0.196 C  
HETATM    3  O   UNL     1      -8.339   8.847  71.998  1.00  0.00    -0.367 OA 
HETATM    4  C   UNL     1      -9.299   9.789  69.992  1.00  0.00    -0.235 C  
ENDROOT
BRANCH   4   5
HETATM    5  S   UNL     1     -10.776   9.411  68.965  1.00  0.00    -0.144 SA 
BRANCH   5   6
HETATM    6  C   UNL     1     -10.000   9.144  67.431  1.00  0.00    -0.206 A  
HETATM    7  N   UNL     1      -9.786   7.925  66.988  1.00  0.00    -0.188 NA 
HETATM    8  N   UNL     1      -9.040   8.019  65.855  1.00  0.00    -0.146 NA 
HETATM    9  C   UNL     1      -8.803   9.294  65.634  1.00  0.00    -0.180 A  
HETATM   10  N   UNL     1      -9.569  10.086  66.491  1.00  0.00    -0.178 NA 
HETATM   11 BR   UNL     1      -7.384   9.802  64.507  1.00  0.00    -0.140 Br 
BRANCH  10  12
HETATM   12  C   UNL     1      -9.720  11.519  66.441  1.00  0.00    -0.207 A  
HETATM   13  C   UNL     1      -8.914  12.306  67.266  1.00  0.00    -0.187 A  
HETATM   14  C   UNL     1      -8.908  13.692  67.140  1.00  0.00    -0.237 A  
HETATM   15  C   UNL     1      -9.653  14.361  66.158  1.00  0.00    -0.309 A  
HETATM   16  C   UNL     1     -11.355  14.212  64.389  1.00  0.00    -0.310 A  
HETATM   17  C   UNL     1     -10.533  13.587  65.356  1.00  0.00    -0.322 A  
HETATM   18  C   UNL     1     -12.260  13.500  63.605  1.00  0.00    -0.438 A  
HETATM   19  C   UNL     1     -10.621  12.167  65.525  1.00  0.00    -0.314 A  
HETATM   20  C   UNL     1     -11.647  11.506  64.793  1.00  0.00    -0.086 A  
HETATM   21  C   UNL     1     -12.424  12.149  63.826  1.00  0.00    -0.620 A  
BRANCH  15  22
HETATM   22  C   UNL     1      -9.497  15.875  66.069  1.00  0.00    -0.389 C  
HETATM   23  C   UNL     1     -10.420  16.739  66.911  1.00  0.00    -0.269 C  
HETATM   24  C   UNL     1      -8.958  16.715  67.202  1.00  0.00    -0.225 C  
ENDBRANCH  15  22
ENDBRANCH  10  12
ENDBRANCH   5   6
ENDBRANCH   4   5
TORSDOF 4
ENDMDL
MODEL       83
REMARK 921   NORMALIZED FREE ENERGY PREDICTED BY IDOCK:   -5.08 KCAL/MOL
REMARK 922        TOTAL FREE ENERGY PREDICTED BY IDOCK:   -7.15 KCAL/MOL
REMARK 923 INTER-LIGAND FREE ENERGY PREDICTED BY IDOCK:   -6.08 KCAL/MOL
REMARK 924 INTRA-LIGAND FREE ENERGY PREDICTED BY IDOCK:   -1.07 KCAL/MOL
REMARK 927      BINDING AFFINITY PREDICTED BY RF-SCORE:    0.00 PKD
ROOT
HETATM    1  O   UNL     1      -8.838   5.726  65.687  1.00  0.00    -0.153 OA 
HETATM    2  C   UNL     1      -9.465   4.595  66.095  1.00  0.00    -0.169 C  
HETATM    3  O   UNL     1      -9.456   3.581  65.421  1.00  0.00    -0.157 OA 
HETATM    4  C   UNL     1     -10.099   4.677  67.474  1.00  0.00    -0.075 C  
ENDROOT
BRANCH   4   5
HETATM    5  S   UNL     1     -10.560   6.397  67.933  1.00  0.00    -0.291 SA 
BRANCH   5   6
HETATM    6  C   UNL     1      -9.293   6.742  69.073  1.00  0.00    -0.134 A  
HETATM    7  N   UNL     1      -8.340   5.867  69.306  1.00  0.00    -0.112 NA 
HETATM    8  N   UNL     1      -7.587   6.336  70.337  1.00  0.00    -0.094 NA 
HETATM    9  C   UNL     1      -8.103   7.483  70.722  1.00  0.00    -0.108 A  
HETATM   10  N   UNL     1      -9.075   7.908  69.815  1.00  0.00    -0.146 NA 
HETATM   11 BR   UNL     1      -7.700   8.167  72.428  1.00  0.00    -0.169 Br 
BRANCH  10  12
HETATM   12  C   UNL     1      -9.739   9.187  69.793  1.00  0.00    -0.181 A  
HETATM   13  C   UNL     1      -9.252  10.180  68.941  1.00  0.00    -0.172 A  
HETATM   14  C   UNL     1      -9.950  11.372  68.765  1.00  0.00    -0.188 A  
HETATM   15  C   UNL     1     -11.187  11.615  69.379  1.00  0.00    -0.311 A  
HETATM   16  C   UNL     1     -12.879  10.867  71.000  1.00  0.00    -0.472 A  
HETATM   17  C   UNL     1     -11.666  10.651  70.305  1.00  0.00    -0.433 A  
HETATM   18  C   UNL     1     -13.370   9.968  71.943  1.00  0.00    -0.516 A  
HETATM   19  C   UNL     1     -10.923   9.454  70.567  1.00  0.00    -0.332 A  
HETATM   20  C   UNL     1     -11.400   8.633  71.628  1.00  0.00    -0.377 A  
HETATM   21  C   UNL     1     -12.616   8.862  72.276  1.00  0.00    -0.455 A  
BRANCH  15  22
HETATM   22  C   UNL     1     -11.892  12.925  69.042  1.00  0.00    -0.352 C  
HETATM   23  C   UNL     1     -11.041  14.173  68.881  1.00  0.00    -0.288 C  
HETATM   24  C   UNL     1     -11.760  13.609  67.703  1.00  0.00    -0.398 C  
ENDBRANCH  15  22
ENDBRANCH  10  12
ENDBRANCH   5   6
ENDBRANCH   4   5
TORSDOF 4
ENDMDL
MODEL       84
REMARK 921   NORMALIZED FREE ENERGY PREDICTED BY IDOCK:   -5.06 KCAL/MOL
REMARK 922        TOTAL FREE ENERGY PREDICTED BY IDOCK:   -7.13 KCAL/MOL
REMARK 923 INTER-LIGAND FREE ENERGY PREDICTED BY IDOCK:   -5.95 KCAL/MOL
REMARK 924 INTRA-LIGAND FREE ENERGY PREDICTED BY IDOCK:   -1.17 KCAL/MOL
REMARK 927      BINDING AFFINITY PREDICTED BY RF-SCORE:    0.00 PKD
ROOT
HETATM    1  O   UNL     1     -10.083   4.945  70.040  1.00  0.00    -0.244 OA 
HETATM    2  C   UNL     1     -10.160   5.376  68.757  1.00  0.00    -0.185 C  
HETATM    3  O   UNL     1      -9.743   4.704  67.831  1.00  0.00    -0.152 OA 
HETATM    4  C   UNL     1     -10.870   6.707  68.571  1.00  0.00    -0.258 C  
ENDROOT
BRANCH   4   5
HETATM    5  S   UNL     1     -10.768   7.772  70.066  1.00  0.00    -0.237 SA 
BRANCH   5   6
HETATM    6  C   UNL     1      -9.265   8.584  69.739  1.00  0.00    -0.157 A  
HETATM    7  N   UNL     1      -8.154   8.212  70.335  1.00  0.00    -0.105 NA 
HETATM    8  N   UNL     1      -7.185   9.107  70.008  1.00  0.00    -0.059 NA 
HETATM    9  C   UNL     1      -7.726  10.017  69.228  1.00  0.00    -0.117 A  
HETATM   10  N   UNL     1      -9.009   9.626  68.841  1.00  0.00    -0.139 NA 
HETATM   11 BR   UNL     1      -6.883  11.686  69.009  1.00  0.00    -0.108 Br 
BRANCH  10  12
HETATM   12  C   UNL     1      -9.849  10.264  67.859  1.00  0.00    -0.157 A  
HETATM   13  C   UNL     1     -10.832  11.153  68.294  1.00  0.00    -0.258 A  
HETATM   14  C   UNL     1     -11.559  11.913  67.382  1.00  0.00    -0.367 A  
HETATM   15  C   UNL     1     -11.310  11.871  66.003  1.00  0.00    -0.375 A  
HETATM   16  C   UNL     1     -10.113  10.790  64.145  1.00  0.00    -0.418 A  
HETATM   17  C   UNL     1     -10.365  10.922  65.531  1.00  0.00    -0.316 A  
HETATM   18  C   UNL     1      -9.223   9.850  63.633  1.00  0.00    -0.283 A  
HETATM   19  C   UNL     1      -9.665  10.068  66.445  1.00  0.00    -0.266 A  
HETATM   20  C   UNL     1      -8.866   9.042  65.865  1.00  0.00    -0.210 A  
HETATM   21  C   UNL     1      -8.618   8.957  64.492  1.00  0.00    -0.155 A  
BRANCH  15  22
HETATM   22  C   UNL     1     -12.117  12.812  65.115  1.00  0.00    -0.498 C  
HETATM   23  C   UNL     1     -12.721  14.052  65.751  1.00  0.00    -0.487 C  
HETATM   24  C   UNL     1     -11.642  14.192  64.732  1.00  0.00    -0.400 C  
ENDBRANCH  15  22
ENDBRANCH  10  12
ENDBRANCH   5   6
ENDBRANCH   4   5
TORSDOF 4
ENDMDL
MODEL       85
REMARK 921   NORMALIZED FREE ENERGY PREDICTED BY IDOCK:   -5.05 KCAL/MOL
REMARK 922        TOTAL FREE ENERGY PREDICTED BY IDOCK:   -7.11 KCAL/MOL
REMARK 923 INTER-LIGAND FREE ENERGY PREDICTED BY IDOCK:   -6.34 KCAL/MOL
REMARK 924 INTRA-LIGAND FREE ENERGY PREDICTED BY IDOCK:   -0.77 KCAL/MOL
REMARK 927      BINDING AFFINITY PREDICTED BY RF-SCORE:    0.00 PKD
ROOT
HETATM    1  O   UNL     1     -13.092  12.989  64.981  1.00  0.00    -0.761 OA 
HETATM    2  C   UNL     1     -12.253  13.654  64.149  1.00  0.00    -0.399 C  
HETATM    3  O   UNL     1     -12.519  14.767  63.731  1.00  0.00    -0.782 OA 
HETATM    4  C   UNL     1     -10.944  12.940  63.855  1.00  0.00    -0.384 C  
ENDROOT
BRANCH   4   5
HETATM    5  S   UNL     1     -11.091  11.114  64.009  1.00  0.00     0.093 SA 
BRANCH   5   6
HETATM    6  C   UNL     1      -9.414  10.706  64.221  1.00  0.00    -0.274 A  
HETATM    7  N   UNL     1      -8.553  10.863  63.241  1.00  0.00    -0.101 NA 
HETATM    8  N   UNL     1      -7.367  10.329  63.637  1.00  0.00    -0.121 NA 
HETATM    9  C   UNL     1      -7.531   9.844  64.849  1.00  0.00    -0.135 A  
HETATM   10  N   UNL     1      -8.764  10.240  65.370  1.00  0.00    -0.161 NA 
HETATM   11 BR   UNL     1      -6.320   8.568  65.520  1.00  0.00    -0.056 Br 
BRANCH  10  12
HETATM   12  C   UNL     1      -9.231  10.060  66.721  1.00  0.00    -0.148 A  
HETATM   13  C   UNL     1      -9.245  11.162  67.578  1.00  0.00    -0.155 A  
HETATM   14  C   UNL     1      -9.835  11.077  68.836  1.00  0.00    -0.189 A  
HETATM   15  C   UNL     1     -10.486   9.918  69.284  1.00  0.00    -0.240 A  
HETATM   16  C   UNL     1     -11.009   7.548  68.883  1.00  0.00     0.029 A  
HETATM   17  C   UNL     1     -10.422   8.764  68.459  1.00  0.00    -0.212 A  
HETATM   18  C   UNL     1     -10.941   6.382  68.126  1.00  0.00    -0.393 A  
HETATM   19  C   UNL     1      -9.747   8.803  67.196  1.00  0.00    -0.248 A  
HETATM   20  C   UNL     1      -9.594   7.558  66.523  1.00  0.00    -0.239 A  
HETATM   21  C   UNL     1     -10.210   6.380  66.956  1.00  0.00    -0.264 A  
BRANCH  15  22
HETATM   22  C   UNL     1     -11.164   9.978  70.648  1.00  0.00    -0.425 C  
HETATM   23  C   UNL     1     -12.088  11.149  70.937  1.00  0.00    -0.427 C  
HETATM   24  C   UNL     1     -12.647   9.770  70.840  1.00  0.00    -0.350 C  
ENDBRANCH  15  22
ENDBRANCH  10  12
ENDBRANCH   5   6
ENDBRANCH   4   5
TORSDOF 4
ENDMDL
MODEL       86
REMARK 921   NORMALIZED FREE ENERGY PREDICTED BY IDOCK:   -5.05 KCAL/MOL
REMARK 922        TOTAL FREE ENERGY PREDICTED BY IDOCK:   -7.11 KCAL/MOL
REMARK 923 INTER-LIGAND FREE ENERGY PREDICTED BY IDOCK:   -6.38 KCAL/MOL
REMARK 924 INTRA-LIGAND FREE ENERGY PREDICTED BY IDOCK:   -0.73 KCAL/MOL
REMARK 927      BINDING AFFINITY PREDICTED BY RF-SCORE:    0.00 PKD
ROOT
HETATM    1  O   UNL     1      -7.159   8.211  66.546  1.00  0.00    -0.073 OA 
HETATM    2  C   UNL     1      -8.317   7.564  66.825  1.00  0.00    -0.126 C  
HETATM    3  O   UNL     1      -8.963   7.007  65.955  1.00  0.00    -0.158 OA 
HETATM    4  C   UNL     1      -8.690   7.525  68.298  1.00  0.00    -0.123 C  
ENDROOT
BRANCH   4   5
HETATM    5  S   UNL     1      -7.990   8.942  69.237  1.00  0.00    -0.106 SA 
BRANCH   5   6
HETATM    6  C   UNL     1      -9.401   9.420  70.134  1.00  0.00    -0.241 A  
HETATM    7  N   UNL     1      -9.555   9.060  71.389  1.00  0.00    -0.290 NA 
HETATM    8  N   UNL     1     -10.800   9.440  71.782  1.00  0.00    -0.296 NA 
HETATM    9  C   UNL     1     -11.387  10.016  70.755  1.00  0.00    -0.360 A  
HETATM   10  N   UNL     1     -10.468  10.227  69.725  1.00  0.00    -0.255 NA 
HETATM   11 BR   UNL     1     -13.261  10.184  70.719  1.00  0.00    -0.145 Br 
BRANCH  10  12
HETATM   12  C   UNL     1     -10.682  10.980  68.516  1.00  0.00    -0.202 A  
HETATM   13  C   UNL     1     -10.516  10.338  67.288  1.00  0.00    -0.307 A  
HETATM   14  C   UNL     1     -10.865  10.973  66.099  1.00  0.00    -0.212 A  
HETATM   15  C   UNL     1     -11.445  12.250  66.072  1.00  0.00    -0.434 A  
HETATM   16  C   UNL     1     -12.079  14.265  67.332  1.00  0.00    -0.371 A  
HETATM   17  C   UNL     1     -11.556  12.951  67.303  1.00  0.00    -0.416 A  
HETATM   18  C   UNL     1     -12.174  15.005  68.508  1.00  0.00    -0.063 A  
HETATM   19  C   UNL     1     -11.125  12.349  68.530  1.00  0.00    -0.296 A  
HETATM   20  C   UNL     1     -11.124  13.190  69.678  1.00  0.00     0.014 A  
HETATM   21  C   UNL     1     -11.672  14.476  69.679  1.00  0.00    -0.356 A  
BRANCH  15  22
HETATM   22  C   UNL     1     -11.858  12.804  64.713  1.00  0.00    -0.423 C  
HETATM   23  C   UNL     1     -11.192  12.230  63.475  1.00  0.00    -0.535 C  
HETATM   24  C   UNL     1     -12.648  12.006  63.705  1.00  0.00    -0.605 C  
ENDBRANCH  15  22
ENDBRANCH  10  12
ENDBRANCH   5   6
ENDBRANCH   4   5
TORSDOF 4
ENDMDL
MODEL       87
REMARK 921   NORMALIZED FREE ENERGY PREDICTED BY IDOCK:   -5.04 KCAL/MOL
REMARK 922        TOTAL FREE ENERGY PREDICTED BY IDOCK:   -7.10 KCAL/MOL
REMARK 923 INTER-LIGAND FREE ENERGY PREDICTED BY IDOCK:   -5.91 KCAL/MOL
REMARK 924 INTRA-LIGAND FREE ENERGY PREDICTED BY IDOCK:   -1.19 KCAL/MOL
REMARK 927      BINDING AFFINITY PREDICTED BY RF-SCORE:    0.00 PKD
ROOT
HETATM    1  O   UNL     1     -12.531  13.986  63.212  1.00  0.00    -0.795 OA 
HETATM    2  C   UNL     1     -12.313  12.672  63.462  1.00  0.00    -0.496 C  
HETATM    3  O   UNL     1     -13.155  11.827  63.219  1.00  0.00    -0.598 OA 
HETATM    4  C   UNL     1     -10.924  12.343  63.986  1.00  0.00    -0.391 C  
ENDROOT
BRANCH   4   5
HETATM    5  S   UNL     1     -10.157  13.756  64.877  1.00  0.00    -0.165 SA 
BRANCH   5   6
HETATM    6  C   UNL     1     -11.121  13.743  66.324  1.00  0.00    -0.302 A  
HETATM    7  N   UNL     1     -12.031  14.667  66.536  1.00  0.00    -0.324 NA 
HETATM    8  N   UNL     1     -12.515  14.496  67.795  1.00  0.00     0.076 NA 
HETATM    9  C   UNL     1     -11.881  13.477  68.333  1.00  0.00    -0.373 A  
HETATM   10  N   UNL     1     -11.121  12.812  67.369  1.00  0.00    -0.263 NA 
HETATM   11 BR   UNL     1     -11.864  13.265  70.203  1.00  0.00    -0.280 Br 
BRANCH  10  12
HETATM   12  C   UNL     1     -10.430  11.557  67.525  1.00  0.00    -0.199 A  
HETATM   13  C   UNL     1     -11.145  10.372  67.349  1.00  0.00    -0.297 A  
HETATM   14  C   UNL     1     -10.492   9.142  67.330  1.00  0.00    -0.339 A  
HETATM   15  C   UNL     1      -9.098   9.032  67.429  1.00  0.00    -0.146 A  
HETATM   16  C   UNL     1      -6.953  10.162  67.849  1.00  0.00    -0.083 A  
HETATM   17  C   UNL     1      -8.357  10.217  67.681  1.00  0.00    -0.114 A  
HETATM   18  C   UNL     1      -6.190  11.290  68.134  1.00  0.00    -0.049 A  
HETATM   19  C   UNL     1      -9.017  11.484  67.789  1.00  0.00    -0.160 A  
HETATM   20  C   UNL     1      -8.212  12.582  68.206  1.00  0.00    -0.168 A  
HETATM   21  C   UNL     1      -6.823  12.499  68.338  1.00  0.00    -0.085 A  
BRANCH  15  22
HETATM   22  C   UNL     1      -8.495   7.636  67.313  1.00  0.00    -0.121 C  
HETATM   23  C   UNL     1      -8.523   6.741  68.540  1.00  0.00    -0.123 C  
HETATM   24  C   UNL     1      -9.326   6.376  67.338  1.00  0.00    -0.119 C  
ENDBRANCH  15  22
ENDBRANCH  10  12
ENDBRANCH   5   6
ENDBRANCH   4   5
TORSDOF 4
ENDMDL
MODEL       88
REMARK 921   NORMALIZED FREE ENERGY PREDICTED BY IDOCK:   -5.03 KCAL/MOL
REMARK 922        TOTAL FREE ENERGY PREDICTED BY IDOCK:   -7.08 KCAL/MOL
REMARK 923 INTER-LIGAND FREE ENERGY PREDICTED BY IDOCK:   -5.65 KCAL/MOL
REMARK 924 INTRA-LIGAND FREE ENERGY PREDICTED BY IDOCK:   -1.44 KCAL/MOL
REMARK 927      BINDING AFFINITY PREDICTED BY RF-SCORE:    0.00 PKD
ROOT
HETATM    1  O   UNL     1      -7.411  12.002  66.722  1.00  0.00    -0.088 OA 
HETATM    2  C   UNL     1      -7.476  12.465  67.994  1.00  0.00    -0.114 C  
HETATM    3  O   UNL     1      -7.580  13.655  68.235  1.00  0.00    -0.110 OA 
HETATM    4  C   UNL     1      -7.489  11.390  69.067  1.00  0.00    -0.093 C  
ENDROOT
BRANCH   4   5
HETATM    5  S   UNL     1      -6.658   9.843  68.521  1.00  0.00    -0.054 SA 
BRANCH   5   6
HETATM    6  C   UNL     1      -7.965   8.718  68.747  1.00  0.00    -0.106 A  
HETATM    7  N   UNL     1      -7.943   7.851  69.736  1.00  0.00    -0.111 NA 
HETATM    8  N   UNL     1      -9.002   7.013  69.578  1.00  0.00    -0.143 NA 
HETATM    9  C   UNL     1      -9.644   7.377  68.489  1.00  0.00    -0.146 A  
HETATM   10  N   UNL     1      -9.154   8.598  68.021  1.00  0.00    -0.140 NA 
HETATM   11 BR   UNL     1     -10.812   6.170  67.641  1.00  0.00    -0.408 Br 
BRANCH  10  12
HETATM   12  C   UNL     1      -9.708   9.404  66.963  1.00  0.00    -0.178 A  
HETATM   13  C   UNL     1     -10.658  10.374  67.287  1.00  0.00    -0.322 A  
HETATM   14  C   UNL     1     -11.103  11.283  66.331  1.00  0.00    -0.257 A  
HETATM   15  C   UNL     1     -10.590  11.311  65.026  1.00  0.00    -0.353 A  
HETATM   16  C   UNL     1      -9.169  10.229  63.334  1.00  0.00    -0.321 A  
HETATM   17  C   UNL     1      -9.677  10.289  64.653  1.00  0.00    -0.398 A  
HETATM   18  C   UNL     1      -8.301   9.226  62.912  1.00  0.00    -0.193 A  
HETATM   19  C   UNL     1      -9.268   9.291  65.597  1.00  0.00    -0.291 A  
HETATM   20  C   UNL     1      -8.485   8.219  65.084  1.00  0.00    -0.164 A  
HETATM   21  C   UNL     1      -7.978   8.205  63.782  1.00  0.00    -0.137 A  
BRANCH  15  22
HETATM   22  C   UNL     1     -11.099  12.407  64.095  1.00  0.00    -0.425 C  
HETATM   23  C   UNL     1     -12.471  12.231  63.468  1.00  0.00    -0.642 C  
HETATM   24  C   UNL     1     -12.240  13.326  64.454  1.00  0.00    -0.449 C  
ENDBRANCH  15  22
ENDBRANCH  10  12
ENDBRANCH   5   6
ENDBRANCH   4   5
TORSDOF 4
ENDMDL
MODEL       89
REMARK 921   NORMALIZED FREE ENERGY PREDICTED BY IDOCK:   -4.98 KCAL/MOL
REMARK 922        TOTAL FREE ENERGY PREDICTED BY IDOCK:   -7.03 KCAL/MOL
REMARK 923 INTER-LIGAND FREE ENERGY PREDICTED BY IDOCK:   -6.08 KCAL/MOL
REMARK 924 INTRA-LIGAND FREE ENERGY PREDICTED BY IDOCK:   -0.95 KCAL/MOL
REMARK 927      BINDING AFFINITY PREDICTED BY RF-SCORE:    0.00 PKD
ROOT
HETATM    1  O   UNL     1      -7.670   4.278  73.445  1.00  0.00    -0.082 OA 
HETATM    2  C   UNL     1      -6.568   4.767  72.826  1.00  0.00    -0.051 C  
HETATM    3  O   UNL     1      -5.461   4.302  73.033  1.00  0.00    -0.006 OA 
HETATM    4  C   UNL     1      -6.837   5.866  71.812  1.00  0.00    -0.068 C  
ENDROOT
BRANCH   4   5
HETATM    5  S   UNL     1      -8.372   6.806  72.188  1.00  0.00    -0.106 SA 
BRANCH   5   6
HETATM    6  C   UNL     1      -9.372   6.264  70.872  1.00  0.00    -0.161 A  
HETATM    7  N   UNL     1      -9.564   4.982  70.656  1.00  0.00    -0.171 NA 
HETATM    8  N   UNL     1     -10.252   4.854  69.490  1.00  0.00    -0.222 NA 
HETATM    9  C   UNL     1     -10.457   6.061  69.010  1.00  0.00    -0.256 A  
HETATM   10  N   UNL     1     -10.103   7.026  69.955  1.00  0.00    -0.190 NA 
HETATM   11 BR   UNL     1     -10.878   6.288  67.190  1.00  0.00    -0.465 Br 
BRANCH  10  12
HETATM   12  C   UNL     1     -10.341   8.445  69.873  1.00  0.00    -0.210 A  
HETATM   13  C   UNL     1      -9.603   9.197  68.957  1.00  0.00    -0.156 A  
HETATM   14  C   UNL     1      -9.906  10.536  68.727  1.00  0.00    -0.191 A  
HETATM   15  C   UNL     1     -10.986  11.179  69.349  1.00  0.00    -0.298 A  
HETATM   16  C   UNL     1     -12.769  11.069  71.040  1.00  0.00    -0.485 A  
HETATM   17  C   UNL     1     -11.706  10.455  70.336  1.00  0.00    -0.419 A  
HETATM   18  C   UNL     1     -13.479  10.413  72.041  1.00  0.00    -0.360 A  
HETATM   19  C   UNL     1     -11.358   9.102  70.652  1.00  0.00    -0.323 A  
HETATM   20  C   UNL     1     -12.027   8.521  71.766  1.00  0.00    -0.393 A  
HETATM   21  C   UNL     1     -13.091   9.145  72.423  1.00  0.00    -0.493 A  
BRANCH  15  22
HETATM   22  C   UNL     1     -11.265  12.625  68.951  1.00  0.00    -0.329 C  
HETATM   23  C   UNL     1     -10.426  13.235  67.842  1.00  0.00    -0.244 C  
HETATM   24  C   UNL     1     -11.885  13.010  67.630  1.00  0.00    -0.401 C  
ENDBRANCH  15  22
ENDBRANCH  10  12
ENDBRANCH   5   6
ENDBRANCH   4   5
TORSDOF 4
ENDMDL
MODEL       90
REMARK 921   NORMALIZED FREE ENERGY PREDICTED BY IDOCK:   -4.98 KCAL/MOL
REMARK 922        TOTAL FREE ENERGY PREDICTED BY IDOCK:   -7.02 KCAL/MOL
REMARK 923 INTER-LIGAND FREE ENERGY PREDICTED BY IDOCK:   -5.80 KCAL/MOL
REMARK 924 INTRA-LIGAND FREE ENERGY PREDICTED BY IDOCK:   -1.22 KCAL/MOL
REMARK 927      BINDING AFFINITY PREDICTED BY RF-SCORE:    0.00 PKD
ROOT
HETATM    1  O   UNL     1      -5.770   7.681  71.482  1.00  0.00    -0.035 OA 
HETATM    2  C   UNL     1      -6.753   8.610  71.573  1.00  0.00    -0.078 C  
HETATM    3  O   UNL     1      -7.387   8.769  72.601  1.00  0.00    -0.336 OA 
HETATM    4  C   UNL     1      -6.937   9.470  70.334  1.00  0.00    -0.112 C  
ENDROOT
BRANCH   4   5
HETATM    5  S   UNL     1      -6.395   8.616  68.800  1.00  0.00    -0.050 SA 
BRANCH   5   6
HETATM    6  C   UNL     1      -7.748   7.548  68.570  1.00  0.00    -0.120 A  
HETATM    7  N   UNL     1      -7.646   6.265  68.836  1.00  0.00    -0.091 NA 
HETATM    8  N   UNL     1      -8.793   5.661  68.425  1.00  0.00    -0.109 NA 
HETATM    9  C   UNL     1      -9.569   6.586  67.904  1.00  0.00    -0.118 A  
HETATM   10  N   UNL     1      -9.048   7.857  68.157  1.00  0.00    -0.134 NA 
HETATM   11 BR   UNL     1     -10.975   6.093  66.754  1.00  0.00    -0.190 Br 
BRANCH  10  12
HETATM   12  C   UNL     1      -9.691   9.122  67.903  1.00  0.00    -0.154 A  
HETATM   13  C   UNL     1      -9.546   9.705  66.643  1.00  0.00    -0.241 A  
HETATM   14  C   UNL     1     -10.274  10.841  66.297  1.00  0.00    -0.301 A  
HETATM   15  C   UNL     1     -11.219  11.418  67.158  1.00  0.00    -0.363 A  
HETATM   16  C   UNL     1     -12.223  11.462  69.403  1.00  0.00    -0.288 A  
HETATM   17  C   UNL     1     -11.330  10.885  68.469  1.00  0.00    -0.367 A  
HETATM   18  C   UNL     1     -12.340  10.998  70.710  1.00  0.00    -0.496 A  
HETATM   19  C   UNL     1     -10.529   9.769  68.877  1.00  0.00    -0.233 A  
HETATM   20  C   UNL     1     -10.593   9.415  70.254  1.00  0.00    -0.297 A  
HETATM   21  C   UNL     1     -11.505   9.989  71.144  1.00  0.00    -0.432 A  
BRANCH  15  22
HETATM   22  C   UNL     1     -12.011  12.610  66.631  1.00  0.00    -0.382 C  
HETATM   23  C   UNL     1     -11.306  13.582  65.702  1.00  0.00    -0.312 C  
HETATM   24  C   UNL     1     -12.429  12.747  65.188  1.00  0.00    -0.565 C  
ENDBRANCH  15  22
ENDBRANCH  10  12
ENDBRANCH   5   6
ENDBRANCH   4   5
TORSDOF 4
ENDMDL
MODEL       91
REMARK 921   NORMALIZED FREE ENERGY PREDICTED BY IDOCK:   -4.96 KCAL/MOL
REMARK 922        TOTAL FREE ENERGY PREDICTED BY IDOCK:   -7.00 KCAL/MOL
REMARK 923 INTER-LIGAND FREE ENERGY PREDICTED BY IDOCK:   -6.22 KCAL/MOL
REMARK 924 INTRA-LIGAND FREE ENERGY PREDICTED BY IDOCK:   -0.78 KCAL/MOL
REMARK 927      BINDING AFFINITY PREDICTED BY RF-SCORE:    0.00 PKD
ROOT
HETATM    1  O   UNL     1      -8.460  17.995  66.569  1.00  0.00    -0.255 OA 
HETATM    2  C   UNL     1      -9.730  17.768  66.154  1.00  0.00    -0.217 C  
HETATM    3  O   UNL     1     -10.491  18.684  65.897  1.00  0.00    -0.520 OA 
HETATM    4  C   UNL     1     -10.090  16.304  65.965  1.00  0.00    -0.356 C  
ENDROOT
BRANCH   4   5
HETATM    5  S   UNL     1      -9.084  15.192  67.029  1.00  0.00    -0.245 SA 
BRANCH   5   6
HETATM    6  C   UNL     1     -10.353  14.220  67.714  1.00  0.00    -0.238 A  
HETATM    7  N   UNL     1     -11.413  14.779  68.254  1.00  0.00    -0.303 NA 
HETATM    8  N   UNL     1     -12.153  13.797  68.833  1.00  0.00    -0.350 NA 
HETATM    9  C   UNL     1     -11.524  12.657  68.646  1.00  0.00    -0.308 A  
HETATM   10  N   UNL     1     -10.467  12.826  67.750  1.00  0.00    -0.219 NA 
HETATM   11 BR   UNL     1     -11.924  11.175  69.736  1.00  0.00    -0.452 Br 
BRANCH  10  12
HETATM   12  C   UNL     1      -9.657  11.789  67.162  1.00  0.00    -0.181 A  
HETATM   13  C   UNL     1      -8.846  11.018  67.996  1.00  0.00    -0.138 A  
HETATM   14  C   UNL     1      -8.170   9.906  67.502  1.00  0.00    -0.114 A  
HETATM   15  C   UNL     1      -8.308   9.472  66.176  1.00  0.00    -0.118 A  
HETATM   16  C   UNL     1      -9.198   9.926  63.928  1.00  0.00    -0.295 A  
HETATM   17  C   UNL     1      -9.070  10.281  65.292  1.00  0.00    -0.228 A  
HETATM   18  C   UNL     1      -9.903  10.707  63.016  1.00  0.00    -0.318 A  
HETATM   19  C   UNL     1      -9.706  11.477  65.758  1.00  0.00    -0.263 A  
HETATM   20  C   UNL     1     -10.304  12.303  64.764  1.00  0.00    -0.320 A  
HETATM   21  C   UNL     1     -10.436  11.910  63.429  1.00  0.00    -0.487 A  
BRANCH  15  22
HETATM   22  C   UNL     1      -7.581   8.192  65.778  1.00  0.00    -0.082 C  
HETATM   23  C   UNL     1      -7.456   7.089  66.814  1.00  0.00    -0.082 C  
HETATM   24  C   UNL     1      -8.284   6.869  65.594  1.00  0.00    -0.134 C  
ENDBRANCH  15  22
ENDBRANCH  10  12
ENDBRANCH   5   6
ENDBRANCH   4   5
TORSDOF 4
ENDMDL
MODEL       92
REMARK 921   NORMALIZED FREE ENERGY PREDICTED BY IDOCK:   -4.96 KCAL/MOL
REMARK 922        TOTAL FREE ENERGY PREDICTED BY IDOCK:   -7.00 KCAL/MOL
REMARK 923 INTER-LIGAND FREE ENERGY PREDICTED BY IDOCK:   -5.72 KCAL/MOL
REMARK 924 INTRA-LIGAND FREE ENERGY PREDICTED BY IDOCK:   -1.28 KCAL/MOL
REMARK 927      BINDING AFFINITY PREDICTED BY RF-SCORE:    0.00 PKD
ROOT
HETATM    1  O   UNL     1      -7.593  12.724  67.032  1.00  0.00    -0.090 OA 
HETATM    2  C   UNL     1      -6.951  12.535  68.211  1.00  0.00    -0.089 C  
HETATM    3  O   UNL     1      -6.729  13.459  68.973  1.00  0.00    -0.102 OA 
HETATM    4  C   UNL     1      -6.611  11.088  68.529  1.00  0.00    -0.059 C  
ENDROOT
BRANCH   4   5
HETATM    5  S   UNL     1      -6.418  10.064  67.015  1.00  0.00    -0.070 SA 
BRANCH   5   6
HETATM    6  C   UNL     1      -7.535   8.784  67.388  1.00  0.00    -0.089 A  
HETATM    7  N   UNL     1      -7.107   7.564  67.624  1.00  0.00    -0.083 NA 
HETATM    8  N   UNL     1      -8.194   6.754  67.734  1.00  0.00    -0.119 NA 
HETATM    9  C   UNL     1      -9.266   7.495  67.551  1.00  0.00    -0.128 A  
HETATM   10  N   UNL     1      -8.925   8.848  67.533  1.00  0.00    -0.133 NA 
HETATM   11 BR   UNL     1     -10.899   6.682  67.089  1.00  0.00    -0.469 Br 
BRANCH  10  12
HETATM   12  C   UNL     1      -9.831   9.969  67.530  1.00  0.00    -0.175 A  
HETATM   13  C   UNL     1     -10.354  10.412  68.746  1.00  0.00    -0.213 A  
HETATM   14  C   UNL     1     -11.102  11.584  68.814  1.00  0.00    -0.288 A  
HETATM   15  C   UNL     1     -11.322  12.401  67.695  1.00  0.00    -0.371 A  
HETATM   16  C   UNL     1     -11.104  12.685  65.261  1.00  0.00    -0.330 A  
HETATM   17  C   UNL     1     -10.861  11.934  66.436  1.00  0.00    -0.318 A  
HETATM   18  C   UNL     1     -10.705  12.250  64.001  1.00  0.00    -0.438 A  
HETATM   19  C   UNL     1     -10.162  10.688  66.327  1.00  0.00    -0.304 A  
HETATM   20  C   UNL     1      -9.889  10.229  65.008  1.00  0.00    -0.397 A  
HETATM   21  C   UNL     1     -10.119  11.008  63.870  1.00  0.00    -0.414 A  
BRANCH  15  22
HETATM   22  C   UNL     1     -12.088  13.701  67.916  1.00  0.00    -0.318 C  
HETATM   23  C   UNL     1     -11.859  14.453  69.215  1.00  0.00    -0.365 C  
HETATM   24  C   UNL     1     -11.424  15.056  67.923  1.00  0.00    -0.354 C  
ENDBRANCH  15  22
ENDBRANCH  10  12
ENDBRANCH   5   6
ENDBRANCH   4   5
TORSDOF 4
ENDMDL
MODEL       93
REMARK 921   NORMALIZED FREE ENERGY PREDICTED BY IDOCK:   -4.95 KCAL/MOL
REMARK 922        TOTAL FREE ENERGY PREDICTED BY IDOCK:   -6.99 KCAL/MOL
REMARK 923 INTER-LIGAND FREE ENERGY PREDICTED BY IDOCK:   -5.87 KCAL/MOL
REMARK 924 INTRA-LIGAND FREE ENERGY PREDICTED BY IDOCK:   -1.12 KCAL/MOL
REMARK 927      BINDING AFFINITY PREDICTED BY RF-SCORE:    0.00 PKD
ROOT
HETATM    1  O   UNL     1     -12.674  14.318  65.145  1.00  0.00    -0.596 OA 
HETATM    2  C   UNL     1     -11.335  14.529  65.179  1.00  0.00    -0.366 C  
HETATM    3  O   UNL     1     -10.868  15.634  65.393  1.00  0.00    -0.358 OA 
HETATM    4  C   UNL     1     -10.486  13.280  65.011  1.00  0.00    -0.353 C  
ENDROOT
BRANCH   4   5
HETATM    5  S   UNL     1     -11.350  11.968  64.057  1.00  0.00    -0.431 SA 
BRANCH   5   6
HETATM    6  C   UNL     1     -10.029  10.860  63.827  1.00  0.00    -0.351 A  
HETATM    7  N   UNL     1      -9.476  10.706  62.644  1.00  0.00    -0.305 NA 
HETATM    8  N   UNL     1      -8.585   9.683  62.730  1.00  0.00    -0.186 NA 
HETATM    9  C   UNL     1      -8.619   9.223  63.962  1.00  0.00    -0.186 A  
HETATM   10  N   UNL     1      -9.371  10.071  64.777  1.00  0.00    -0.251 NA 
HETATM   11 BR   UNL     1      -7.958   7.502  64.339  1.00  0.00    -0.082 Br 
BRANCH  10  12
HETATM   12  C   UNL     1      -9.498  10.005  66.211  1.00  0.00    -0.191 A  
HETATM   13  C   UNL     1     -10.541   9.256  66.758  1.00  0.00    -0.207 A  
HETATM   14  C   UNL     1     -10.612   9.030  68.130  1.00  0.00    -0.225 A  
HETATM   15  C   UNL     1      -9.627   9.485  69.017  1.00  0.00    -0.166 A  
HETATM   16  C   UNL     1      -7.606  10.849  69.350  1.00  0.00    -0.097 A  
HETATM   17  C   UNL     1      -8.596  10.310  68.494  1.00  0.00    -0.126 A  
HETATM   18  C   UNL     1      -6.598  11.692  68.889  1.00  0.00    -0.079 A  
HETATM   19  C   UNL     1      -8.549  10.627  67.097  1.00  0.00    -0.127 A  
HETATM   20  C   UNL     1      -7.580  11.591  66.700  1.00  0.00    -0.088 A  
HETATM   21  C   UNL     1      -6.600  12.084  67.567  1.00  0.00    -0.123 A  
BRANCH  15  22
HETATM   22  C   UNL     1      -9.775   9.102  70.486  1.00  0.00    -0.287 C  
HETATM   23  C   UNL     1     -11.042   9.525  71.210  1.00  0.00    -0.449 C  
HETATM   24  C   UNL     1     -10.770   8.078  70.973  1.00  0.00    -0.245 C  
ENDBRANCH  15  22
ENDBRANCH  10  12
ENDBRANCH   5   6
ENDBRANCH   4   5
TORSDOF 4
ENDMDL
MODEL       94
REMARK 921   NORMALIZED FREE ENERGY PREDICTED BY IDOCK:   -4.94 KCAL/MOL
REMARK 922        TOTAL FREE ENERGY PREDICTED BY IDOCK:   -6.97 KCAL/MOL
REMARK 923 INTER-LIGAND FREE ENERGY PREDICTED BY IDOCK:   -6.99 KCAL/MOL
REMARK 924 INTRA-LIGAND FREE ENERGY PREDICTED BY IDOCK:    0.02 KCAL/MOL
REMARK 927      BINDING AFFINITY PREDICTED BY RF-SCORE:    0.00 PKD
ROOT
HETATM    1  O   UNL     1      -8.045  18.483  66.901  1.00  0.00    -0.232 OA 
HETATM    2  C   UNL     1      -8.826  19.556  67.180  1.00  0.00    -0.304 C  
HETATM    3  O   UNL     1      -8.372  20.685  67.211  1.00  0.00    -0.336 OA 
HETATM    4  C   UNL     1     -10.301  19.242  67.368  1.00  0.00    -0.438 C  
ENDROOT
BRANCH   4   5
HETATM    5  S   UNL     1     -10.584  17.519  67.943  1.00  0.00    -0.352 SA 
BRANCH   5   6
HETATM    6  C   UNL     1     -10.767  16.727  66.405  1.00  0.00    -0.105 A  
HETATM    7  N   UNL     1     -10.754  17.417  65.287  1.00  0.00    -0.614 NA 
HETATM    8  N   UNL     1     -11.066  16.569  64.270  1.00  0.00    -0.933 NA 
HETATM    9  C   UNL     1     -11.276  15.379  64.790  1.00  0.00    -0.395 A  
HETATM   10  N   UNL     1     -10.893  15.360  66.132  1.00  0.00    -0.323 NA 
HETATM   11 BR   UNL     1     -12.240  14.088  63.818  1.00  0.00    -0.066 Br 
BRANCH  10  12
HETATM   12  C   UNL     1     -10.806  14.207  66.991  1.00  0.00    -0.295 A  
HETATM   13  C   UNL     1     -11.988  13.611  67.434  1.00  0.00    -0.413 A  
HETATM   14  C   UNL     1     -11.960  12.405  68.131  1.00  0.00    -0.272 A  
HETATM   15  C   UNL     1     -10.769  11.706  68.372  1.00  0.00    -0.248 A  
HETATM   16  C   UNL     1      -8.311  11.698  68.265  1.00  0.00    -0.159 A  
HETATM   17  C   UNL     1      -9.549  12.327  67.994  1.00  0.00    -0.206 A  
HETATM   18  C   UNL     1      -7.089  12.284  67.946  1.00  0.00    -0.105 A  
HETATM   19  C   UNL     1      -9.548  13.608  67.352  1.00  0.00    -0.226 A  
HETATM   20  C   UNL     1      -8.276  14.219  67.164  1.00  0.00    -0.184 A  
HETATM   21  C   UNL     1      -7.071  13.559  67.418  1.00  0.00    -0.098 A  
BRANCH  15  22
HETATM   22  C   UNL     1     -10.878  10.355  69.073  1.00  0.00    -0.273 C  
HETATM   23  C   UNL     1     -10.592   9.104  68.261  1.00  0.00    -0.223 C  
HETATM   24  C   UNL     1      -9.682   9.487  69.378  1.00  0.00    -0.190 C  
ENDBRANCH  15  22
ENDBRANCH  10  12
ENDBRANCH   5   6
ENDBRANCH   4   5
TORSDOF 4
ENDMDL
MODEL       95
REMARK 921   NORMALIZED FREE ENERGY PREDICTED BY IDOCK:   -4.94 KCAL/MOL
REMARK 922        TOTAL FREE ENERGY PREDICTED BY IDOCK:   -6.97 KCAL/MOL
REMARK 923 INTER-LIGAND FREE ENERGY PREDICTED BY IDOCK:   -6.19 KCAL/MOL
REMARK 924 INTRA-LIGAND FREE ENERGY PREDICTED BY IDOCK:   -0.78 KCAL/MOL
REMARK 927      BINDING AFFINITY PREDICTED BY RF-SCORE:    0.00 PKD
ROOT
HETATM    1  O   UNL     1     -10.706  16.807  69.651  1.00  0.00    -0.327 OA 
HETATM    2  C   UNL     1     -11.624  15.810  69.611  1.00  0.00    -0.358 C  
HETATM    3  O   UNL     1     -12.236  15.466  70.605  1.00  0.00    -0.326 OA 
HETATM    4  C   UNL     1     -11.875  15.228  68.229  1.00  0.00    -0.228 C  
ENDROOT
BRANCH   4   5
HETATM    5  S   UNL     1     -10.422  15.407  67.118  1.00  0.00    -0.295 SA 
BRANCH   5   6
HETATM    6  C   UNL     1     -11.075  14.693  65.672  1.00  0.00    -0.338 A  
HETATM    7  N   UNL     1     -11.668  15.435  64.764  1.00  0.00    -0.289 NA 
HETATM    8  N   UNL     1     -12.205  14.603  63.832  1.00  0.00    -0.638 NA 
HETATM    9  C   UNL     1     -11.939  13.367  64.196  1.00  0.00    -0.450 A  
HETATM   10  N   UNL     1     -11.032  13.357  65.258  1.00  0.00    -0.288 NA 
HETATM   11 BR   UNL     1     -12.948  11.944  63.491  1.00  0.00    -0.018 Br 
BRANCH  10  12
HETATM   12  C   UNL     1     -10.368  12.208  65.818  1.00  0.00    -0.258 A  
HETATM   13  C   UNL     1      -9.322  11.624  65.102  1.00  0.00    -0.076 A  
HETATM   14  C   UNL     1      -8.546  10.616  65.670  1.00  0.00    -0.187 A  
HETATM   15  C   UNL     1      -8.732  10.179  66.989  1.00  0.00    -0.137 A  
HETATM   16  C   UNL     1     -10.110  10.262  69.026  1.00  0.00    -0.225 A  
HETATM   17  C   UNL     1      -9.835  10.708  67.711  1.00  0.00    -0.187 A  
HETATM   18  C   UNL     1     -11.200  10.723  69.759  1.00  0.00    -0.365 A  
HETATM   19  C   UNL     1     -10.699  11.684  67.117  1.00  0.00    -0.288 A  
HETATM   20  C   UNL     1     -11.867  12.027  67.856  1.00  0.00    -0.320 A  
HETATM   21  C   UNL     1     -12.094  11.588  69.163  1.00  0.00    -0.329 A  
BRANCH  15  22
HETATM   22  C   UNL     1      -7.765   9.127  67.522  1.00  0.00    -0.092 C  
HETATM   23  C   UNL     1      -7.876   7.714  66.978  1.00  0.00    -0.112 C  
HETATM   24  C   UNL     1      -6.661   8.527  66.687  1.00  0.00    -0.060 C  
ENDBRANCH  15  22
ENDBRANCH  10  12
ENDBRANCH   5   6
ENDBRANCH   4   5
TORSDOF 4
ENDMDL
MODEL       96
REMARK 921   NORMALIZED FREE ENERGY PREDICTED BY IDOCK:   -4.94 KCAL/MOL
REMARK 922        TOTAL FREE ENERGY PREDICTED BY IDOCK:   -6.97 KCAL/MOL
REMARK 923 INTER-LIGAND FREE ENERGY PREDICTED BY IDOCK:   -5.94 KCAL/MOL
REMARK 924 INTRA-LIGAND FREE ENERGY PREDICTED BY IDOCK:   -1.03 KCAL/MOL
REMARK 927      BINDING AFFINITY PREDICTED BY RF-SCORE:    0.00 PKD
ROOT
HETATM    1  O   UNL     1     -11.213  12.300  66.505  1.00  0.00    -0.289 OA 
HETATM    2  C   UNL     1     -10.759  12.130  65.239  1.00  0.00    -0.288 C  
HETATM    3  O   UNL     1     -11.091  12.877  64.336  1.00  0.00    -0.324 OA 
HETATM    4  C   UNL     1      -9.759  11.000  65.064  1.00  0.00    -0.254 C  
ENDROOT
BRANCH   4   5
HETATM    5  S   UNL     1      -9.966   9.678  66.326  1.00  0.00    -0.254 SA 
BRANCH   5   6
HETATM    6  C   UNL     1      -8.761  10.184  67.474  1.00  0.00    -0.125 A  
HETATM    7  N   UNL     1      -7.737  10.916  67.098  1.00  0.00    -0.118 NA 
HETATM    8  N   UNL     1      -6.893  11.030  68.158  1.00  0.00    -0.066 NA 
HETATM    9  C   UNL     1      -7.414  10.355  69.160  1.00  0.00    -0.112 A  
HETATM   10  N   UNL     1      -8.719   9.962  68.855  1.00  0.00    -0.133 NA 
HETATM   11 BR   UNL     1      -6.324   9.820  70.597  1.00  0.00    -0.103 Br 
BRANCH  10  12
HETATM   12  C   UNL     1      -9.673   9.360  69.752  1.00  0.00    -0.199 A  
HETATM   13  C   UNL     1     -10.587  10.186  70.410  1.00  0.00    -0.287 A  
HETATM   14  C   UNL     1     -11.627   9.642  71.158  1.00  0.00    -0.456 A  
HETATM   15  C   UNL     1     -11.846   8.260  71.245  1.00  0.00    -0.319 A  
HETATM   16  C   UNL     1     -11.022   5.995  70.750  1.00  0.00    -0.364 A  
HETATM   17  C   UNL     1     -10.888   7.400  70.645  1.00  0.00    -0.258 A  
HETATM   18  C   UNL     1     -10.091   5.113  70.209  1.00  0.00    -0.338 A  
HETATM   19  C   UNL     1      -9.762   7.936  69.940  1.00  0.00    -0.176 A  
HETATM   20  C   UNL     1      -8.776   7.000  69.519  1.00  0.00    -0.134 A  
HETATM   21  C   UNL     1      -8.952   5.617  69.615  1.00  0.00    -0.135 A  
BRANCH  15  22
HETATM   22  C   UNL     1     -13.068   7.791  72.029  1.00  0.00    -0.233 C  
HETATM   23  C   UNL     1     -14.345   8.605  71.913  1.00  0.00    -0.492 C  
HETATM   24  C   UNL     1     -14.297   7.217  71.369  1.00  0.00    -0.484 C  
ENDBRANCH  15  22
ENDBRANCH  10  12
ENDBRANCH   5   6
ENDBRANCH   4   5
TORSDOF 4
ENDMDL
MODEL       97
REMARK 921   NORMALIZED FREE ENERGY PREDICTED BY IDOCK:   -4.92 KCAL/MOL
REMARK 922        TOTAL FREE ENERGY PREDICTED BY IDOCK:   -6.95 KCAL/MOL
REMARK 923 INTER-LIGAND FREE ENERGY PREDICTED BY IDOCK:   -5.76 KCAL/MOL
REMARK 924 INTRA-LIGAND FREE ENERGY PREDICTED BY IDOCK:   -1.19 KCAL/MOL
REMARK 927      BINDING AFFINITY PREDICTED BY RF-SCORE:    0.00 PKD
ROOT
HETATM    1  O   UNL     1     -12.390  14.134  66.171  1.00  0.00    -0.450 OA 
HETATM    2  C   UNL     1     -12.244  12.891  65.651  1.00  0.00    -0.463 C  
HETATM    3  O   UNL     1     -13.100  12.389  64.945  1.00  0.00    -0.765 OA 
HETATM    4  C   UNL     1     -10.911  12.224  65.952  1.00  0.00    -0.302 C  
ENDROOT
BRANCH   4   5
HETATM    5  S   UNL     1     -10.154  12.841  67.510  1.00  0.00    -0.216 SA 
BRANCH   5   6
HETATM    6  C   UNL     1     -11.074  11.919  68.663  1.00  0.00    -0.246 A  
HETATM    7  N   UNL     1     -12.087  12.459  69.303  1.00  0.00    -0.221 NA 
HETATM    8  N   UNL     1     -12.514  11.566  70.235  1.00  0.00    -0.240 NA 
HETATM    9  C   UNL     1     -11.746  10.502  70.154  1.00  0.00    -0.326 A  
HETATM   10  N   UNL     1     -10.933  10.574  69.022  1.00  0.00    -0.227 NA 
HETATM   11 BR   UNL     1     -11.657   9.297  71.598  1.00  0.00    -0.468 Br 
BRANCH  10  12
HETATM   12  C   UNL     1     -10.087   9.532  68.496  1.00  0.00    -0.178 A  
HETATM   13  C   UNL     1     -10.583   8.719  67.474  1.00  0.00    -0.298 A  
HETATM   14  C   UNL     1      -9.753   7.808  66.825  1.00  0.00    -0.296 A  
HETATM   15  C   UNL     1      -8.386   7.698  67.116  1.00  0.00    -0.121 A  
HETATM   16  C   UNL     1      -6.519   8.350  68.578  1.00  0.00    -0.055 A  
HETATM   17  C   UNL     1      -7.877   8.463  68.199  1.00  0.00    -0.111 A  
HETATM   18  C   UNL     1      -5.983   9.051  69.655  1.00  0.00    -0.032 A  
HETATM   19  C   UNL     1      -8.731   9.345  68.938  1.00  0.00    -0.132 A  
HETATM   20  C   UNL     1      -8.169   9.938  70.103  1.00  0.00    -0.162 A  
HETATM   21  C   UNL     1      -6.816   9.827  70.435  1.00  0.00    -0.135 A  
BRANCH  15  22
HETATM   22  C   UNL     1      -7.568   6.721  66.278  1.00  0.00    -0.086 C  
HETATM   23  C   UNL     1      -8.216   5.408  65.876  1.00  0.00    -0.119 C  
HETATM   24  C   UNL     1      -7.877   6.418  64.832  1.00  0.00    -0.113 C  
ENDBRANCH  15  22
ENDBRANCH  10  12
ENDBRANCH   5   6
ENDBRANCH   4   5
TORSDOF 4
ENDMDL
MODEL       98
REMARK 921   NORMALIZED FREE ENERGY PREDICTED BY IDOCK:   -4.92 KCAL/MOL
REMARK 922        TOTAL FREE ENERGY PREDICTED BY IDOCK:   -6.95 KCAL/MOL
REMARK 923 INTER-LIGAND FREE ENERGY PREDICTED BY IDOCK:   -6.36 KCAL/MOL
REMARK 924 INTRA-LIGAND FREE ENERGY PREDICTED BY IDOCK:   -0.59 KCAL/MOL
REMARK 927      BINDING AFFINITY PREDICTED BY RF-SCORE:    0.00 PKD
ROOT
HETATM    1  O   UNL     1      -6.930  14.446  69.877  1.00  0.00    -0.111 OA 
HETATM    2  C   UNL     1      -6.408  14.076  68.682  1.00  0.00    -0.089 C  
HETATM    3  O   UNL     1      -5.206  13.992  68.509  1.00  0.00    -0.085 OA 
HETATM    4  C   UNL     1      -7.434  13.704  67.624  1.00  0.00    -0.183 C  
ENDROOT
BRANCH   4   5
HETATM    5  S   UNL     1      -9.049  14.544  67.887  1.00  0.00    -0.199 SA 
BRANCH   5   6
HETATM    6  C   UNL     1      -9.766  14.287  66.323  1.00  0.00    -0.302 A  
HETATM    7  N   UNL     1      -9.739  15.229  65.407  1.00  0.00    -0.276 NA 
HETATM    8  N   UNL     1     -10.496  14.811  64.358  1.00  0.00     0.042 NA 
HETATM    9  C   UNL     1     -10.980  13.625  64.659  1.00  0.00    -0.396 A  
HETATM   10  N   UNL     1     -10.379  13.135  65.819  1.00  0.00    -0.285 NA 
HETATM   11 BR   UNL     1     -12.478  12.962  63.732  1.00  0.00    -0.394 Br 
BRANCH  10  12
HETATM   12  C   UNL     1     -10.513  11.810  66.369  1.00  0.00    -0.235 A  
HETATM   13  C   UNL     1     -10.067  10.723  65.615  1.00  0.00    -0.327 A  
HETATM   14  C   UNL     1     -10.026   9.444  66.164  1.00  0.00    -0.351 A  
HETATM   15  C   UNL     1     -10.371   9.189  67.499  1.00  0.00    -0.324 A  
HETATM   16  C   UNL     1     -11.316  10.057  69.598  1.00  0.00    -0.253 A  
HETATM   17  C   UNL     1     -10.895  10.266  68.263  1.00  0.00    -0.300 A  
HETATM   18  C   UNL     1     -11.870  11.072  70.374  1.00  0.00    -0.460 A  
HETATM   19  C   UNL     1     -11.026  11.574  67.693  1.00  0.00    -0.296 A  
HETATM   20  C   UNL     1     -11.714  12.540  68.480  1.00  0.00    -0.369 A  
HETATM   21  C   UNL     1     -12.093  12.309  69.805  1.00  0.00    -0.298 A  
BRANCH  15  22
HETATM   22  C   UNL     1     -10.205   7.760  68.006  1.00  0.00    -0.249 C  
HETATM   23  C   UNL     1     -10.817   6.637  67.187  1.00  0.00    -0.471 C  
HETATM   24  C   UNL     1      -9.335   6.739  67.316  1.00  0.00    -0.148 C  
ENDBRANCH  15  22
ENDBRANCH  10  12
ENDBRANCH   5   6
ENDBRANCH   4   5
TORSDOF 4
ENDMDL
MODEL       99
REMARK 921   NORMALIZED FREE ENERGY PREDICTED BY IDOCK:   -4.90 KCAL/MOL
REMARK 922        TOTAL FREE ENERGY PREDICTED BY IDOCK:   -6.93 KCAL/MOL
REMARK 923 INTER-LIGAND FREE ENERGY PREDICTED BY IDOCK:   -6.27 KCAL/MOL
REMARK 924 INTRA-LIGAND FREE ENERGY PREDICTED BY IDOCK:   -0.66 KCAL/MOL
REMARK 927      BINDING AFFINITY PREDICTED BY RF-SCORE:    0.00 PKD
ROOT
HETATM    1  O   UNL     1     -10.659  14.612  64.996  1.00  0.00    -0.390 OA 
HETATM    2  C   UNL     1     -11.860  14.137  64.583  1.00  0.00    -0.431 C  
HETATM    3  O   UNL     1     -12.647  14.837  63.972  1.00  0.00    -0.822 OA 
HETATM    4  C   UNL     1     -12.099  12.665  64.872  1.00  0.00    -0.438 C  
ENDROOT
BRANCH   4   5
HETATM    5  S   UNL     1     -11.143  12.071  66.325  1.00  0.00    -0.329 SA 
BRANCH   5   6
HETATM    6  C   UNL     1      -9.922  11.140  65.507  1.00  0.00    -0.249 A  
HETATM    7  N   UNL     1      -9.618  11.383  64.252  1.00  0.00    -0.216 NA 
HETATM    8  N   UNL     1      -8.755  10.418  63.837  1.00  0.00    -0.187 NA 
HETATM    9  C   UNL     1      -8.557   9.596  64.845  1.00  0.00    -0.170 A  
HETATM   10  N   UNL     1      -9.111  10.119  66.015  1.00  0.00    -0.149 NA 
HETATM   11 BR   UNL     1      -7.880   7.869  64.528  1.00  0.00    -0.135 Br 
BRANCH  10  12
HETATM   12  C   UNL     1      -8.954   9.604  67.352  1.00  0.00    -0.131 A  
HETATM   13  C   UNL     1      -8.135  10.298  68.245  1.00  0.00    -0.107 A  
HETATM   14  C   UNL     1      -8.078   9.934  69.588  1.00  0.00    -0.171 A  
HETATM   15  C   UNL     1      -8.869   8.905  70.121  1.00  0.00    -0.172 A  
HETATM   16  C   UNL     1     -10.427   7.052  69.688  1.00  0.00    -0.238 A  
HETATM   17  C   UNL     1      -9.654   8.140  69.218  1.00  0.00    -0.164 A  
HETATM   18  C   UNL     1     -11.184   6.251  68.837  1.00  0.00    -0.387 A  
HETATM   19  C   UNL     1      -9.664   8.442  67.818  1.00  0.00    -0.199 A  
HETATM   20  C   UNL     1     -10.348   7.520  66.978  1.00  0.00    -0.395 A  
HETATM   21  C   UNL     1     -11.124   6.469  67.476  1.00  0.00    -0.396 A  
BRANCH  15  22
HETATM   22  C   UNL     1      -8.776   8.657  71.623  1.00  0.00    -0.270 C  
HETATM   23  C   UNL     1      -8.147   7.357  72.094  1.00  0.00    -0.107 C  
HETATM   24  C   UNL     1      -7.469   8.655  72.377  1.00  0.00    -0.020 C  
ENDBRANCH  15  22
ENDBRANCH  10  12
ENDBRANCH   5   6
ENDBRANCH   4   5
TORSDOF 4
ENDMDL
MODEL      100
REMARK 921   NORMALIZED FREE ENERGY PREDICTED BY IDOCK:   -4.88 KCAL/MOL
REMARK 922        TOTAL FREE ENERGY PREDICTED BY IDOCK:   -6.90 KCAL/MOL
REMARK 923 INTER-LIGAND FREE ENERGY PREDICTED BY IDOCK:   -6.02 KCAL/MOL
REMARK 924 INTRA-LIGAND FREE ENERGY PREDICTED BY IDOCK:   -0.88 KCAL/MOL
REMARK 927      BINDING AFFINITY PREDICTED BY RF-SCORE:    0.00 PKD
ROOT
HETATM    1  O   UNL     1     -11.265   4.387  64.859  1.00  0.00    -0.264 OA 
HETATM    2  C   UNL     1     -10.044   3.977  65.280  1.00  0.00    -0.167 C  
HETATM    3  O   UNL     1      -9.633   2.853  65.051  1.00  0.00    -0.135 OA 
HETATM    4  C   UNL     1      -9.215   5.045  65.976  1.00  0.00    -0.153 C  
ENDROOT
BRANCH   4   5
HETATM    5  S   UNL     1     -10.258   6.333  66.771  1.00  0.00    -0.192 SA 
BRANCH   5   6
HETATM    6  C   UNL     1      -9.009   7.374  67.389  1.00  0.00    -0.123 A  
HETATM    7  N   UNL     1      -7.926   6.874  67.940  1.00  0.00    -0.113 NA 
HETATM    8  N   UNL     1      -7.208   7.904  68.460  1.00  0.00    -0.083 NA 
HETATM    9  C   UNL     1      -7.874   9.015  68.228  1.00  0.00    -0.100 A  
HETATM   10  N   UNL     1      -8.937   8.771  67.357  1.00  0.00    -0.132 NA 
HETATM   11 BR   UNL     1      -7.504  10.559  69.239  1.00  0.00    -0.133 Br 
BRANCH  10  12
HETATM   12  C   UNL     1      -9.786   9.753  66.731  1.00  0.00    -0.208 A  
HETATM   13  C   UNL     1     -10.698  10.453  67.524  1.00  0.00    -0.339 A  
HETATM   14  C   UNL     1     -11.424  11.519  67.001  1.00  0.00    -0.290 A  
HETATM   15  C   UNL     1     -11.243  11.979  65.689  1.00  0.00    -0.377 A  
HETATM   16  C   UNL     1     -10.195  11.619  63.492  1.00  0.00    -0.474 A  
HETATM   17  C   UNL     1     -10.374  11.239  64.843  1.00  0.00    -0.362 A  
HETATM   18  C   UNL     1      -9.383  10.904  62.616  1.00  0.00    -0.343 A  
HETATM   19  C   UNL     1      -9.680  10.086  65.335  1.00  0.00    -0.368 A  
HETATM   20  C   UNL     1      -8.967   9.319  64.371  1.00  0.00    -0.163 A  
HETATM   21  C   UNL     1      -8.788   9.737  63.050  1.00  0.00    -0.255 A  
BRANCH  15  22
HETATM   22  C   UNL     1     -12.038  13.208  65.260  1.00  0.00    -0.471 C  
HETATM   23  C   UNL     1     -12.363  14.252  66.314  1.00  0.00    -0.399 C  
HETATM   24  C   UNL     1     -11.441  14.592  65.192  1.00  0.00    -0.375 C  
ENDBRANCH  15  22
ENDBRANCH  10  12
ENDBRANCH   5   6
ENDBRANCH   4   5
TORSDOF 4
ENDMDL
MODEL      101
REMARK 921   NORMALIZED FREE ENERGY PREDICTED BY IDOCK:   -4.87 KCAL/MOL
REMARK 922        TOTAL FREE ENERGY PREDICTED BY IDOCK:   -6.89 KCAL/MOL
REMARK 923 INTER-LIGAND FREE ENERGY PREDICTED BY IDOCK:   -5.99 KCAL/MOL
REMARK 924 INTRA-LIGAND FREE ENERGY PREDICTED BY IDOCK:   -0.90 KCAL/MOL
REMARK 927      BINDING AFFINITY PREDICTED BY RF-SCORE:    0.00 PKD
ROOT
HETATM    1  O   UNL     1      -7.967   7.996  67.216  1.00  0.00    -0.117 OA 
HETATM    2  C   UNL     1      -9.255   7.582  67.131  1.00  0.00    -0.136 C  
HETATM    3  O   UNL     1      -9.544   6.475  66.714  1.00  0.00    -0.151 OA 
HETATM    4  C   UNL     1     -10.280   8.569  67.667  1.00  0.00    -0.236 C  
ENDROOT
BRANCH   4   5
HETATM    5  S   UNL     1      -9.693  10.309  67.574  1.00  0.00    -0.173 SA 
BRANCH   5   6
HETATM    6  C   UNL     1     -10.566  10.980  68.921  1.00  0.00    -0.207 A  
HETATM    7  N   UNL     1     -10.885  10.235  69.955  1.00  0.00    -0.292 NA 
HETATM    8  N   UNL     1     -11.682  10.974  70.772  1.00  0.00    -0.273 NA 
HETATM    9  C   UNL     1     -11.845  12.154  70.213  1.00  0.00    -0.254 A  
HETATM   10  N   UNL     1     -10.983  12.300  69.125  1.00  0.00    -0.203 NA 
HETATM   11 BR   UNL     1     -13.285  13.248  70.735  1.00  0.00     0.259 Br 
BRANCH  10  12
HETATM   12  C   UNL     1     -10.740  13.502  68.368  1.00  0.00    -0.259 A  
HETATM   13  C   UNL     1      -9.985  14.520  68.953  1.00  0.00    -0.206 A  
HETATM   14  C   UNL     1      -9.588  15.629  68.210  1.00  0.00    -0.200 A  
HETATM   15  C   UNL     1      -9.870  15.756  66.842  1.00  0.00    -0.243 A  
HETATM   16  C   UNL     1     -11.065  14.873  64.882  1.00  0.00    -0.424 A  
HETATM   17  C   UNL     1     -10.697  14.768  66.244  1.00  0.00    -0.313 A  
HETATM   18  C   UNL     1     -11.903  13.950  64.261  1.00  0.00    -0.441 A  
HETATM   19  C   UNL     1     -11.188  13.662  67.010  1.00  0.00    -0.328 A  
HETATM   20  C   UNL     1     -12.140  12.821  66.367  1.00  0.00    -0.370 A  
HETATM   21  C   UNL     1     -12.462  12.937  65.012  1.00  0.00    -0.553 A  
BRANCH  15  22
HETATM   22  C   UNL     1      -9.310  16.977  66.121  1.00  0.00    -0.245 C  
HETATM   23  C   UNL     1     -10.035  18.301  66.290  1.00  0.00    -0.361 C  
HETATM   24  C   UNL     1      -8.660  18.132  66.843  1.00  0.00    -0.268 C  
ENDBRANCH  15  22
ENDBRANCH  10  12
ENDBRANCH   5   6
ENDBRANCH   4   5
TORSDOF 4
ENDMDL
MODEL      102
REMARK 921   NORMALIZED FREE ENERGY PREDICTED BY IDOCK:   -4.85 KCAL/MOL
REMARK 922        TOTAL FREE ENERGY PREDICTED BY IDOCK:   -6.87 KCAL/MOL
REMARK 923 INTER-LIGAND FREE ENERGY PREDICTED BY IDOCK:   -5.98 KCAL/MOL
REMARK 924 INTRA-LIGAND FREE ENERGY PREDICTED BY IDOCK:   -0.89 KCAL/MOL
REMARK 927      BINDING AFFINITY PREDICTED BY RF-SCORE:    0.00 PKD
ROOT
HETATM    1  O   UNL     1      -9.824   3.674  68.776  1.00  0.00    -0.065 OA 
HETATM    2  C   UNL     1      -9.686   4.116  67.502  1.00  0.00    -0.134 C  
HETATM    3  O   UNL     1      -9.003   3.518  66.689  1.00  0.00    -0.129 OA 
HETATM    4  C   UNL     1     -10.503   5.351  67.160  1.00  0.00    -0.235 C  
ENDROOT
BRANCH   4   5
HETATM    5  S   UNL     1     -10.850   6.392  68.635  1.00  0.00    -0.323 SA 
BRANCH   5   6
HETATM    6  C   UNL     1      -9.447   7.420  68.600  1.00  0.00    -0.139 A  
HETATM    7  N   UNL     1      -8.279   6.952  68.220  1.00  0.00    -0.122 NA 
HETATM    8  N   UNL     1      -7.351   7.922  68.435  1.00  0.00    -0.099 NA 
HETATM    9  C   UNL     1      -7.970   8.961  68.953  1.00  0.00    -0.104 A  
HETATM   10  N   UNL     1      -9.353   8.785  68.890  1.00  0.00    -0.144 NA 
HETATM   11 BR   UNL     1      -6.986  10.271  69.880  1.00  0.00    -0.154 Br 
BRANCH  10  12
HETATM   12  C   UNL     1     -10.365   9.765  69.194  1.00  0.00    -0.211 A  
HETATM   13  C   UNL     1     -10.934   9.768  70.469  1.00  0.00    -0.384 A  
HETATM   14  C   UNL     1     -11.794  10.790  70.862  1.00  0.00    -0.400 A  
HETATM   15  C   UNL     1     -12.088  11.883  70.035  1.00  0.00    -0.366 A  
HETATM   16  C   UNL     1     -11.890  12.911  67.808  1.00  0.00    -0.391 A  
HETATM   17  C   UNL     1     -11.579  11.865  68.709  1.00  0.00    -0.366 A  
HETATM   18  C   UNL     1     -11.444  12.919  66.489  1.00  0.00    -0.390 A  
HETATM   19  C   UNL     1     -10.760  10.781  68.254  1.00  0.00    -0.253 A  
HETATM   20  C   UNL     1     -10.438  10.772  66.867  1.00  0.00    -0.304 A  
HETATM   21  C   UNL     1     -10.739  11.834  66.011  1.00  0.00    -0.324 A  
BRANCH  15  22
HETATM   22  C   UNL     1     -12.979  12.979  70.611  1.00  0.00     0.044 C  
HETATM   23  C   UNL     1     -13.353  12.896  72.081  1.00  0.00    -0.615 C  
HETATM   24  C   UNL     1     -12.485  14.008  71.597  1.00  0.00    -0.371 C  
ENDBRANCH  15  22
ENDBRANCH  10  12
ENDBRANCH   5   6
ENDBRANCH   4   5
TORSDOF 4
ENDMDL
MODEL      103
REMARK 921   NORMALIZED FREE ENERGY PREDICTED BY IDOCK:   -4.84 KCAL/MOL
REMARK 922        TOTAL FREE ENERGY PREDICTED BY IDOCK:   -6.85 KCAL/MOL
REMARK 923 INTER-LIGAND FREE ENERGY PREDICTED BY IDOCK:   -6.28 KCAL/MOL
REMARK 924 INTRA-LIGAND FREE ENERGY PREDICTED BY IDOCK:   -0.58 KCAL/MOL
REMARK 927      BINDING AFFINITY PREDICTED BY RF-SCORE:    0.00 PKD
ROOT
HETATM    1  O   UNL     1     -14.006  12.845  72.671  1.00  0.00    -0.589 OA 
HETATM    2  C   UNL     1     -13.171  13.094  71.632  1.00  0.00    -0.346 C  
HETATM    3  O   UNL     1     -12.974  14.226  71.228  1.00  0.00    -0.321 OA 
HETATM    4  C   UNL     1     -12.456  11.872  71.079  1.00  0.00    -0.290 C  
ENDROOT
BRANCH   4   5
HETATM    5  S   UNL     1     -13.399  10.320  71.361  1.00  0.00    -0.243 SA 
BRANCH   5   6
HETATM    6  C   UNL     1     -12.083   9.246  71.737  1.00  0.00    -0.387 A  
HETATM    7  N   UNL     1     -11.992   8.679  72.919  1.00  0.00    -0.098 NA 
HETATM    8  N   UNL     1     -10.803   8.024  72.977  1.00  0.00    -0.335 NA 
HETATM    9  C   UNL     1     -10.183   8.214  71.832  1.00  0.00    -0.224 A  
HETATM   10  N   UNL     1     -11.042   8.814  70.909  1.00  0.00    -0.257 NA 
HETATM   11 BR   UNL     1      -8.325   7.942  71.715  1.00  0.00    -0.160 Br 
BRANCH  10  12
HETATM   12  C   UNL     1     -10.793   9.022  69.505  1.00  0.00    -0.166 A  
HETATM   13  C   UNL     1     -10.608  10.327  69.044  1.00  0.00    -0.247 A  
HETATM   14  C   UNL     1     -10.207  10.569  67.733  1.00  0.00    -0.223 A  
HETATM   15  C   UNL     1      -9.917   9.533  66.833  1.00  0.00    -0.278 A  
HETATM   16  C   UNL     1      -9.950   7.116  66.375  1.00  0.00    -0.081 A  
HETATM   17  C   UNL     1     -10.167   8.200  67.257  1.00  0.00    -0.348 A  
HETATM   18  C   UNL     1     -10.216   5.797  66.733  1.00  0.00    -0.269 A  
HETATM   19  C   UNL     1     -10.661   7.932  68.576  1.00  0.00    -0.146 A  
HETATM   20  C   UNL     1     -11.036   6.585  68.847  1.00  0.00    -0.376 A  
HETATM   21  C   UNL     1     -10.784   5.534  67.962  1.00  0.00    -0.165 A  
BRANCH  15  22
HETATM   22  C   UNL     1      -9.408   9.926  65.451  1.00  0.00    -0.297 C  
HETATM   23  C   UNL     1     -10.401  10.520  64.466  1.00  0.00    -0.275 C  
HETATM   24  C   UNL     1      -9.288  11.360  64.996  1.00  0.00    -0.158 C  
ENDBRANCH  15  22
ENDBRANCH  10  12
ENDBRANCH   5   6
ENDBRANCH   4   5
TORSDOF 4
ENDMDL
MODEL      104
REMARK 921   NORMALIZED FREE ENERGY PREDICTED BY IDOCK:   -4.84 KCAL/MOL
REMARK 922        TOTAL FREE ENERGY PREDICTED BY IDOCK:   -6.85 KCAL/MOL
REMARK 923 INTER-LIGAND FREE ENERGY PREDICTED BY IDOCK:   -6.04 KCAL/MOL
REMARK 924 INTRA-LIGAND FREE ENERGY PREDICTED BY IDOCK:   -0.81 KCAL/MOL
REMARK 927      BINDING AFFINITY PREDICTED BY RF-SCORE:    0.00 PKD
ROOT
HETATM    1  O   UNL     1     -11.366  15.192  72.401  1.00  0.00    -0.408 OA 
HETATM    2  C   UNL     1     -12.701  14.965  72.338  1.00  0.00    -0.344 C  
HETATM    3  O   UNL     1     -13.434  15.208  73.280  1.00  0.00    -0.459 OA 
HETATM    4  C   UNL     1     -13.203  14.470  70.993  1.00  0.00    -0.354 C  
ENDROOT
BRANCH   4   5
HETATM    5  S   UNL     1     -11.908  13.569  70.048  1.00  0.00    -0.271 SA 
BRANCH   5   6
HETATM    6  C   UNL     1     -11.316  14.870  69.057  1.00  0.00    -0.292 A  
HETATM    7  N   UNL     1     -11.772  16.094  69.208  1.00  0.00    -0.279 NA 
HETATM    8  N   UNL     1     -11.251  16.859  68.213  1.00  0.00    -0.220 NA 
HETATM    9  C   UNL     1     -10.496  16.084  67.464  1.00  0.00    -0.297 A  
HETATM   10  N   UNL     1     -10.323  14.840  68.072  1.00  0.00    -0.235 NA 
HETATM   11 BR   UNL     1     -10.047  16.619  65.716  1.00  0.00    -0.255 Br 
BRANCH  10  12
HETATM   12  C   UNL     1      -9.430  13.789  67.654  1.00  0.00    -0.217 A  
HETATM   13  C   UNL     1      -8.247  13.592  68.368  1.00  0.00    -0.141 A  
HETATM   14  C   UNL     1      -7.432  12.494  68.106  1.00  0.00    -0.117 A  
HETATM   15  C   UNL     1      -7.775  11.511  67.166  1.00  0.00    -0.160 A  
HETATM   16  C   UNL     1      -9.302  10.802  65.372  1.00  0.00    -0.243 A  
HETATM   17  C   UNL     1      -8.936  11.729  66.378  1.00  0.00    -0.201 A  
HETATM   18  C   UNL     1     -10.410  10.991  64.550  1.00  0.00    -0.420 A  
HETATM   19  C   UNL     1      -9.746  12.895  66.571  1.00  0.00    -0.257 A  
HETATM   20  C   UNL     1     -10.788  13.104  65.625  1.00  0.00    -0.294 A  
HETATM   21  C   UNL     1     -11.140  12.156  64.660  1.00  0.00    -0.366 A  
BRANCH  15  22
HETATM   22  C   UNL     1      -6.840  10.314  67.029  1.00  0.00    -0.084 C  
HETATM   23  C   UNL     1      -5.686  10.419  66.047  1.00  0.00    -0.090 C  
HETATM   24  C   UNL     1      -5.410  10.329  67.510  1.00  0.00    -0.041 C  
ENDBRANCH  15  22
ENDBRANCH  10  12
ENDBRANCH   5   6
ENDBRANCH   4   5
TORSDOF 4
ENDMDL
MODEL      105
REMARK 921   NORMALIZED FREE ENERGY PREDICTED BY IDOCK:   -4.84 KCAL/MOL
REMARK 922        TOTAL FREE ENERGY PREDICTED BY IDOCK:   -6.85 KCAL/MOL
REMARK 923 INTER-LIGAND FREE ENERGY PREDICTED BY IDOCK:   -5.81 KCAL/MOL
REMARK 924 INTRA-LIGAND FREE ENERGY PREDICTED BY IDOCK:   -1.04 KCAL/MOL
REMARK 927      BINDING AFFINITY PREDICTED BY RF-SCORE:    0.00 PKD
ROOT
HETATM    1  O   UNL     1     -12.436  13.638  63.314  1.00  0.00    -0.801 OA 
HETATM    2  C   UNL     1     -12.342  14.563  64.300  1.00  0.00    -0.369 C  
HETATM    3  O   UNL     1     -12.368  15.757  64.061  1.00  0.00    -0.696 OA 
HETATM    4  C   UNL     1     -12.286  13.993  65.708  1.00  0.00    -0.453 C  
ENDROOT
BRANCH   4   5
HETATM    5  S   UNL     1     -11.587  12.293  65.749  1.00  0.00    -0.363 SA 
BRANCH   5   6
HETATM    6  C   UNL     1     -10.166  12.588  66.708  1.00  0.00    -0.231 A  
HETATM    7  N   UNL     1      -9.939  13.772  67.230  1.00  0.00    -0.237 NA 
HETATM    8  N   UNL     1      -8.701  13.751  67.791  1.00  0.00    -0.170 NA 
HETATM    9  C   UNL     1      -8.191  12.555  67.591  1.00  0.00    -0.172 A  
HETATM   10  N   UNL     1      -9.163  11.689  67.087  1.00  0.00    -0.173 NA 
HETATM   11 BR   UNL     1      -6.332  12.295  67.726  1.00  0.00    -0.117 Br 
BRANCH  10  12
HETATM   12  C   UNL     1      -9.042  10.265  66.903  1.00  0.00    -0.143 A  
HETATM   13  C   UNL     1      -9.559   9.417  67.884  1.00  0.00    -0.155 A  
HETATM   14  C   UNL     1      -9.611   8.041  67.680  1.00  0.00    -0.185 A  
HETATM   15  C   UNL     1      -9.207   7.445  66.477  1.00  0.00    -0.206 A  
HETATM   16  C   UNL     1      -8.130   7.727  64.283  1.00  0.00    -0.079 A  
HETATM   17  C   UNL     1      -8.611   8.279  65.494  1.00  0.00    -0.183 A  
HETATM   18  C   UNL     1      -7.507   8.498  63.306  1.00  0.00    -0.109 A  
HETATM   19  C   UNL     1      -8.469   9.687  65.716  1.00  0.00    -0.142 A  
HETATM   20  C   UNL     1      -7.714  10.407  64.748  1.00  0.00    -0.069 A  
HETATM   21  C   UNL     1      -7.275   9.836  63.550  1.00  0.00    -0.117 A  
BRANCH  15  22
HETATM   22  C   UNL     1      -9.390   5.936  66.345  1.00  0.00    -0.171 C  
HETATM   23  C   UNL     1      -9.686   5.140  67.604  1.00  0.00    -0.178 C  
HETATM   24  C   UNL     1     -10.720   5.250  66.536  1.00  0.00    -0.290 C  
ENDBRANCH  15  22
ENDBRANCH  10  12
ENDBRANCH   5   6
ENDBRANCH   4   5
TORSDOF 4
ENDMDL
MODEL      106
REMARK 921   NORMALIZED FREE ENERGY PREDICTED BY IDOCK:   -4.81 KCAL/MOL
REMARK 922        TOTAL FREE ENERGY PREDICTED BY IDOCK:   -6.82 KCAL/MOL
REMARK 923 INTER-LIGAND FREE ENERGY PREDICTED BY IDOCK:   -5.93 KCAL/MOL
REMARK 924 INTRA-LIGAND FREE ENERGY PREDICTED BY IDOCK:   -0.89 KCAL/MOL
REMARK 927      BINDING AFFINITY PREDICTED BY RF-SCORE:    0.00 PKD
ROOT
HETATM    1  O   UNL     1     -11.741   6.925  70.713  1.00  0.00    -0.330 OA 
HETATM    2  C   UNL     1     -12.067   7.128  72.012  1.00  0.00    -0.292 C  
HETATM    3  O   UNL     1     -11.859   6.282  72.863  1.00  0.00    -0.043 OA 
HETATM    4  C   UNL     1     -12.630   8.505  72.323  1.00  0.00    -0.381 C  
ENDROOT
BRANCH   4   5
HETATM    5  S   UNL     1     -13.453   9.271  70.868  1.00  0.00     0.191 SA 
BRANCH   5   6
HETATM    6  C   UNL     1     -12.929  10.917  71.073  1.00  0.00    -0.303 A  
HETATM    7  N   UNL     1     -13.242  11.594  72.155  1.00  0.00    -0.409 NA 
HETATM    8  N   UNL     1     -12.834  12.879  71.975  1.00  0.00    -0.224 NA 
HETATM    9  C   UNL     1     -12.291  12.964  70.780  1.00  0.00    -0.299 A  
HETATM   10  N   UNL     1     -12.127  11.693  70.229  1.00  0.00    -0.358 NA 
HETATM   11 BR   UNL     1     -12.105  14.644  69.953  1.00  0.00    -0.391 Br 
BRANCH  10  12
HETATM   12  C   UNL     1     -11.415  11.359  69.021  1.00  0.00    -0.300 A  
HETATM   13  C   UNL     1     -11.882  11.864  67.806  1.00  0.00    -0.289 A  
HETATM   14  C   UNL     1     -11.143  11.705  66.637  1.00  0.00    -0.364 A  
HETATM   15  C   UNL     1      -9.884  11.088  66.624  1.00  0.00    -0.235 A  
HETATM   16  C   UNL     1      -8.185   9.815  67.868  1.00  0.00    -0.113 A  
HETATM   17  C   UNL     1      -9.422  10.503  67.833  1.00  0.00    -0.157 A  
HETATM   18  C   UNL     1      -7.708   9.195  69.019  1.00  0.00    -0.078 A  
HETATM   19  C   UNL     1     -10.204  10.581  69.030  1.00  0.00    -0.233 A  
HETATM   20  C   UNL     1      -9.736   9.824  70.141  1.00  0.00    -0.299 A  
HETATM   21  C   UNL     1      -8.497   9.177  70.151  1.00  0.00    -0.186 A  
BRANCH  15  22
HETATM   22  C   UNL     1      -9.137  11.048  65.295  1.00  0.00    -0.207 C  
HETATM   23  C   UNL     1      -9.325   9.830  64.406  1.00  0.00    -0.278 C  
HETATM   24  C   UNL     1      -9.829  11.160  63.959  1.00  0.00    -0.349 C  
ENDBRANCH  15  22
ENDBRANCH  10  12
ENDBRANCH   5   6
ENDBRANCH   4   5
TORSDOF 4
ENDMDL
MODEL      107
REMARK 921   NORMALIZED FREE ENERGY PREDICTED BY IDOCK:   -4.81 KCAL/MOL
REMARK 922        TOTAL FREE ENERGY PREDICTED BY IDOCK:   -6.81 KCAL/MOL
REMARK 923 INTER-LIGAND FREE ENERGY PREDICTED BY IDOCK:   -5.76 KCAL/MOL
REMARK 924 INTRA-LIGAND FREE ENERGY PREDICTED BY IDOCK:   -1.06 KCAL/MOL
REMARK 927      BINDING AFFINITY PREDICTED BY RF-SCORE:    0.00 PKD
ROOT
HETATM    1  O   UNL     1     -12.853   9.067  71.312  1.00  0.00    -0.311 OA 
HETATM    2  C   UNL     1     -11.612   8.749  71.755  1.00  0.00    -0.346 C  
HETATM    3  O   UNL     1     -11.439   8.190  72.823  1.00  0.00    -0.408 OA 
HETATM    4  C   UNL     1     -10.486   9.071  70.786  1.00  0.00    -0.243 C  
ENDROOT
BRANCH   4   5
HETATM    5  S   UNL     1     -10.909  10.455  69.653  1.00  0.00    -0.293 SA 
BRANCH   5   6
HETATM    6  C   UNL     1     -10.506   9.716  68.131  1.00  0.00    -0.222 A  
HETATM    7  N   UNL     1     -10.730   8.438  67.922  1.00  0.00    -0.136 NA 
HETATM    8  N   UNL     1     -10.185   8.110  66.721  1.00  0.00    -0.303 NA 
HETATM    9  C   UNL     1      -9.627   9.193  66.224  1.00  0.00    -0.255 A  
HETATM   10  N   UNL     1      -9.980  10.312  66.980  1.00  0.00    -0.192 NA 
HETATM   11 BR   UNL     1      -8.327   9.042  64.872  1.00  0.00    -0.193 Br 
BRANCH  10  12
HETATM   12  C   UNL     1      -9.714  11.692  66.659  1.00  0.00    -0.202 A  
HETATM   13  C   UNL     1     -10.580  12.356  65.787  1.00  0.00    -0.288 A  
HETATM   14  C   UNL     1     -10.460  13.726  65.572  1.00  0.00    -0.327 A  
HETATM   15  C   UNL     1      -9.518  14.513  66.250  1.00  0.00    -0.310 A  
HETATM   16  C   UNL     1      -7.569  14.582  67.750  1.00  0.00    -0.171 A  
HETATM   17  C   UNL     1      -8.581  13.849  67.086  1.00  0.00    -0.217 A  
HETATM   18  C   UNL     1      -6.607  13.971  68.550  1.00  0.00    -0.097 A  
HETATM   19  C   UNL     1      -8.631  12.427  67.256  1.00  0.00    -0.185 A  
HETATM   20  C   UNL     1      -7.553  11.839  67.977  1.00  0.00    -0.116 A  
HETATM   21  C   UNL     1      -6.584  12.595  68.643  1.00  0.00    -0.083 A  
BRANCH  15  22
HETATM   22  C   UNL     1      -9.541  16.015  65.989  1.00  0.00    -0.385 C  
HETATM   23  C   UNL     1     -10.743  16.596  65.263  1.00  0.00    -0.219 C  
HETATM   24  C   UNL     1     -10.491  16.957  66.688  1.00  0.00    -0.257 C  
ENDBRANCH  15  22
ENDBRANCH  10  12
ENDBRANCH   5   6
ENDBRANCH   4   5
TORSDOF 4
ENDMDL
MODEL      108
REMARK 921   NORMALIZED FREE ENERGY PREDICTED BY IDOCK:   -4.81 KCAL/MOL
REMARK 922        TOTAL FREE ENERGY PREDICTED BY IDOCK:   -6.81 KCAL/MOL
REMARK 923 INTER-LIGAND FREE ENERGY PREDICTED BY IDOCK:   -5.82 KCAL/MOL
REMARK 924 INTRA-LIGAND FREE ENERGY PREDICTED BY IDOCK:   -0.99 KCAL/MOL
REMARK 927      BINDING AFFINITY PREDICTED BY RF-SCORE:    0.00 PKD
ROOT
HETATM    1  O   UNL     1      -8.695   5.620  70.464  1.00  0.00    -0.132 OA 
HETATM    2  C   UNL     1      -9.798   4.981  70.004  1.00  0.00    -0.228 C  
HETATM    3  O   UNL     1      -9.948   3.781  70.149  1.00  0.00    -0.128 OA 
HETATM    4  C   UNL     1     -10.847   5.885  69.377  1.00  0.00    -0.352 C  
ENDROOT
BRANCH   4   5
HETATM    5  S   UNL     1     -10.121   7.425  68.683  1.00  0.00    -0.183 SA 
BRANCH   5   6
HETATM    6  C   UNL     1     -10.677   8.567  69.871  1.00  0.00    -0.224 A  
HETATM    7  N   UNL     1     -10.923   8.190  71.105  1.00  0.00    -0.232 NA 
HETATM    8  N   UNL     1     -11.481   9.242  71.760  1.00  0.00    -0.384 NA 
HETATM    9  C   UNL     1     -11.576  10.240  70.908  1.00  0.00    -0.365 A  
HETATM   10  N   UNL     1     -10.883   9.944  69.733  1.00  0.00    -0.252 NA 
HETATM   11 BR   UNL     1     -12.762  11.659  71.255  1.00  0.00    -0.368 Br 
BRANCH  10  12
HETATM   12  C   UNL     1     -10.608  10.843  68.640  1.00  0.00    -0.195 A  
HETATM   13  C   UNL     1     -11.642  11.158  67.756  1.00  0.00    -0.303 A  
HETATM   14  C   UNL     1     -11.472  12.141  66.784  1.00  0.00    -0.418 A  
HETATM   15  C   UNL     1     -10.295  12.895  66.678  1.00  0.00    -0.258 A  
HETATM   16  C   UNL     1      -7.972  13.229  67.416  1.00  0.00    -0.175 A  
HETATM   17  C   UNL     1      -9.206  12.543  67.518  1.00  0.00    -0.188 A  
HETATM   18  C   UNL     1      -6.866  12.896  68.193  1.00  0.00    -0.097 A  
HETATM   19  C   UNL     1      -9.328  11.478  68.469  1.00  0.00    -0.171 A  
HETATM   20  C   UNL     1      -8.136  11.094  69.145  1.00  0.00    -0.030 A  
HETATM   21  C   UNL     1      -6.940  11.810  69.040  1.00  0.00    -0.107 A  
BRANCH  15  22
HETATM   22  C   UNL     1     -10.262  13.998  65.625  1.00  0.00    -0.351 C  
HETATM   23  C   UNL     1     -11.098  13.813  64.370  1.00  0.00    -0.356 C  
HETATM   24  C   UNL     1     -11.441  14.896  65.337  1.00  0.00    -0.320 C  
ENDBRANCH  15  22
ENDBRANCH  10  12
ENDBRANCH   5   6
ENDBRANCH   4   5
TORSDOF 4
ENDMDL
MODEL      109
REMARK 921   NORMALIZED FREE ENERGY PREDICTED BY IDOCK:   -4.80 KCAL/MOL
REMARK 922        TOTAL FREE ENERGY PREDICTED BY IDOCK:   -6.81 KCAL/MOL
REMARK 923 INTER-LIGAND FREE ENERGY PREDICTED BY IDOCK:   -5.80 KCAL/MOL
REMARK 924 INTRA-LIGAND FREE ENERGY PREDICTED BY IDOCK:   -1.01 KCAL/MOL
REMARK 927      BINDING AFFINITY PREDICTED BY RF-SCORE:    0.00 PKD
ROOT
HETATM    1  O   UNL     1     -11.788   6.821  70.880  1.00  0.00    -0.350 OA 
HETATM    2  C   UNL     1     -11.435   7.644  71.898  1.00  0.00    -0.272 C  
HETATM    3  O   UNL     1     -11.763   7.415  73.048  1.00  0.00    -0.154 OA 
HETATM    4  C   UNL     1     -10.546   8.810  71.498  1.00  0.00    -0.309 C  
ENDROOT
BRANCH   4   5
HETATM    5  S   UNL     1     -10.777   9.299  69.741  1.00  0.00    -0.227 SA 
BRANCH   5   6
HETATM    6  C   UNL     1      -9.188   8.941  69.130  1.00  0.00    -0.144 A  
HETATM    7  N   UNL     1      -8.434   8.033  69.706  1.00  0.00    -0.126 NA 
HETATM    8  N   UNL     1      -7.209   8.074  69.118  1.00  0.00    -0.075 NA 
HETATM    9  C   UNL     1      -7.235   9.016  68.201  1.00  0.00    -0.079 A  
HETATM   10  N   UNL     1      -8.541   9.471  68.008  1.00  0.00    -0.120 NA 
HETATM   11 BR   UNL     1      -5.623   9.744  67.557  1.00  0.00    -0.035 Br 
BRANCH  10  12
HETATM   12  C   UNL     1      -9.003  10.366  66.977  1.00  0.00    -0.139 A  
HETATM   13  C   UNL     1      -9.579   9.823  65.828  1.00  0.00    -0.318 A  
HETATM   14  C   UNL     1     -10.184  10.643  64.879  1.00  0.00    -0.395 A  
HETATM   15  C   UNL     1     -10.296  12.031  65.049  1.00  0.00    -0.318 A  
HETATM   16  C   UNL     1      -9.681  14.014  66.368  1.00  0.00    -0.309 A  
HETATM   17  C   UNL     1      -9.654  12.613  66.174  1.00  0.00    -0.222 A  
HETATM   18  C   UNL     1      -9.036  14.633  67.435  1.00  0.00    -0.202 A  
HETATM   19  C   UNL     1      -8.952  11.797  67.121  1.00  0.00    -0.177 A  
HETATM   20  C   UNL     1      -8.205  12.486  68.117  1.00  0.00    -0.170 A  
HETATM   21  C   UNL     1      -8.275  13.870  68.297  1.00  0.00    -0.158 A  
BRANCH  15  22
HETATM   22  C   UNL     1     -11.052  12.809  63.978  1.00  0.00    -0.458 C  
HETATM   23  C   UNL     1     -12.335  12.208  63.430  1.00  0.00    -0.648 C  
HETATM   24  C   UNL     1     -12.388  13.467  64.228  1.00  0.00    -0.396 C  
ENDBRANCH  15  22
ENDBRANCH  10  12
ENDBRANCH   5   6
ENDBRANCH   4   5
TORSDOF 4
ENDMDL
MODEL      110
REMARK 921   NORMALIZED FREE ENERGY PREDICTED BY IDOCK:   -4.80 KCAL/MOL
REMARK 922        TOTAL FREE ENERGY PREDICTED BY IDOCK:   -6.81 KCAL/MOL
REMARK 923 INTER-LIGAND FREE ENERGY PREDICTED BY IDOCK:   -5.71 KCAL/MOL
REMARK 924 INTRA-LIGAND FREE ENERGY PREDICTED BY IDOCK:   -1.10 KCAL/MOL
REMARK 927      BINDING AFFINITY PREDICTED BY RF-SCORE:    0.00 PKD
ROOT
HETATM    1  O   UNL     1      -5.590   8.017  71.330  1.00  0.00    -0.034 OA 
HETATM    2  C   UNL     1      -6.642   8.824  71.608  1.00  0.00    -0.075 C  
HETATM    3  O   UNL     1      -7.204   8.792  72.688  1.00  0.00    -0.323 OA 
HETATM    4  C   UNL     1      -7.002   9.809  70.508  1.00  0.00    -0.126 C  
ENDROOT
BRANCH   4   5
HETATM    5  S   UNL     1      -6.509   9.209  68.841  1.00  0.00    -0.048 SA 
BRANCH   5   6
HETATM    6  C   UNL     1      -7.691   7.950  68.626  1.00  0.00    -0.113 A  
HETATM    7  N   UNL     1      -7.339   6.684  68.654  1.00  0.00    -0.085 NA 
HETATM    8  N   UNL     1      -8.425   5.942  68.312  1.00  0.00    -0.114 NA 
HETATM    9  C   UNL     1      -9.418   6.771  68.070  1.00  0.00    -0.119 A  
HETATM   10  N   UNL     1      -9.075   8.067  68.459  1.00  0.00    -0.137 NA 
HETATM   11 BR   UNL     1     -10.898   6.192  67.063  1.00  0.00    -0.413 Br 
BRANCH  10  12
HETATM   12  C   UNL     1      -9.947   9.213  68.516  1.00  0.00    -0.174 A  
HETATM   13  C   UNL     1     -10.487   9.582  69.749  1.00  0.00    -0.253 A  
HETATM   14  C   UNL     1     -11.202  10.769  69.886  1.00  0.00    -0.371 A  
HETATM   15  C   UNL     1     -11.369  11.671  68.826  1.00  0.00    -0.324 A  
HETATM   16  C   UNL     1     -11.082  12.125  66.425  1.00  0.00    -0.358 A  
HETATM   17  C   UNL     1     -10.891  11.283  67.546  1.00  0.00    -0.292 A  
HETATM   18  C   UNL     1     -10.664  11.771  65.145  1.00  0.00    -0.343 A  
HETATM   19  C   UNL     1     -10.226  10.027  67.363  1.00  0.00    -0.269 A  
HETATM   20  C   UNL     1      -9.934   9.657  66.020  1.00  0.00    -0.344 A  
HETATM   21  C   UNL     1     -10.112  10.524  64.938  1.00  0.00    -0.403 A  
BRANCH  15  22
HETATM   22  C   UNL     1     -12.102  12.975  69.123  1.00  0.00    -0.234 C  
HETATM   23  C   UNL     1     -12.277  13.381  70.577  1.00  0.00    -0.425 C  
HETATM   24  C   UNL     1     -11.413  14.198  69.677  1.00  0.00    -0.329 C  
ENDBRANCH  15  22
ENDBRANCH  10  12
ENDBRANCH   5   6
ENDBRANCH   4   5
TORSDOF 4
ENDMDL
MODEL      111
REMARK 921   NORMALIZED FREE ENERGY PREDICTED BY IDOCK:   -4.79 KCAL/MOL
REMARK 922        TOTAL FREE ENERGY PREDICTED BY IDOCK:   -6.79 KCAL/MOL
REMARK 923 INTER-LIGAND FREE ENERGY PREDICTED BY IDOCK:   -5.94 KCAL/MOL
REMARK 924 INTRA-LIGAND FREE ENERGY PREDICTED BY IDOCK:   -0.84 KCAL/MOL
REMARK 927      BINDING AFFINITY PREDICTED BY RF-SCORE:    0.00 PKD
ROOT
HETATM    1  O   UNL     1     -13.442  12.752  72.222  1.00  0.00    -0.565 OA 
HETATM    2  C   UNL     1     -13.362  14.046  71.827  1.00  0.00    -0.386 C  
HETATM    3  O   UNL     1     -14.093  14.902  72.292  1.00  0.00    -0.450 OA 
HETATM    4  C   UNL     1     -12.250  14.345  70.834  1.00  0.00    -0.342 C  
ENDROOT
BRANCH   4   5
HETATM    5  S   UNL     1     -11.797  12.875  69.826  1.00  0.00    -0.260 SA 
BRANCH   5   6
HETATM    6  C   UNL     1     -11.886  13.576  68.237  1.00  0.00    -0.366 A  
HETATM    7  N   UNL     1     -12.898  13.312  67.440  1.00  0.00     0.749 NA 
HETATM    8  N   UNL     1     -12.630  13.867  66.228  1.00  0.00    -0.404 NA 
HETATM    9  C   UNL     1     -11.453  14.449  66.305  1.00  0.00    -0.359 A  
HETATM   10  N   UNL     1     -11.012  14.484  67.629  1.00  0.00    -0.280 NA 
HETATM   11 BR   UNL     1     -10.499  14.846  64.732  1.00  0.00    -0.166 Br 
BRANCH  10  12
HETATM   12  C   UNL     1      -9.862  15.186  68.141  1.00  0.00    -0.218 A  
HETATM   13  C   UNL     1      -8.770  14.443  68.593  1.00  0.00    -0.164 A  
HETATM   14  C   UNL     1      -7.579  15.071  68.945  1.00  0.00    -0.144 A  
HETATM   15  C   UNL     1      -7.392  16.455  68.813  1.00  0.00    -0.203 A  
HETATM   16  C   UNL     1      -8.401  18.646  68.331  1.00  0.00    -0.362 A  
HETATM   17  C   UNL     1      -8.511  17.238  68.424  1.00  0.00    -0.254 A  
HETATM   18  C   UNL     1      -9.479  19.458  67.989  1.00  0.00    -0.413 A  
HETATM   19  C   UNL     1      -9.773  16.622  68.138  1.00  0.00    -0.244 A  
HETATM   20  C   UNL     1     -10.870  17.502  67.919  1.00  0.00    -0.255 A  
HETATM   21  C   UNL     1     -10.722  18.887  67.808  1.00  0.00    -0.426 A  
BRANCH  15  22
HETATM   22  C   UNL     1      -6.014  17.012  69.154  1.00  0.00    -0.185 C  
HETATM   23  C   UNL     1      -5.857  17.784  70.453  1.00  0.00    -0.052 C  
HETATM   24  C   UNL     1      -5.164  16.474  70.279  1.00  0.00    -0.194 C  
ENDBRANCH  15  22
ENDBRANCH  10  12
ENDBRANCH   5   6
ENDBRANCH   4   5
TORSDOF 4
ENDMDL
MODEL      112
REMARK 921   NORMALIZED FREE ENERGY PREDICTED BY IDOCK:   -4.77 KCAL/MOL
REMARK 922        TOTAL FREE ENERGY PREDICTED BY IDOCK:   -6.77 KCAL/MOL
REMARK 923 INTER-LIGAND FREE ENERGY PREDICTED BY IDOCK:   -5.66 KCAL/MOL
REMARK 924 INTRA-LIGAND FREE ENERGY PREDICTED BY IDOCK:   -1.11 KCAL/MOL
REMARK 927      BINDING AFFINITY PREDICTED BY RF-SCORE:    0.00 PKD
ROOT
HETATM    1  O   UNL     1      -6.378  14.629  70.507  1.00  0.00    -0.177 OA 
HETATM    2  C   UNL     1      -5.896  13.380  70.725  1.00  0.00    -0.148 C  
HETATM    3  O   UNL     1      -5.363  13.076  71.777  1.00  0.00    -0.331 OA 
HETATM    4  C   UNL     1      -6.146  12.392  69.597  1.00  0.00    -0.135 C  
ENDROOT
BRANCH   4   5
HETATM    5  S   UNL     1      -6.309  13.219  67.963  1.00  0.00    -0.145 SA 
BRANCH   5   6
HETATM    6  C   UNL     1      -6.621  11.829  66.966  1.00  0.00    -0.140 A  
HETATM    7  N   UNL     1      -5.690  11.344  66.176  1.00  0.00    -0.193 NA 
HETATM    8  N   UNL     1      -6.254  10.368  65.416  1.00  0.00    -0.124 NA 
HETATM    9  C   UNL     1      -7.524  10.284  65.749  1.00  0.00    -0.144 A  
HETATM   10  N   UNL     1      -7.780  11.048  66.888  1.00  0.00    -0.133 NA 
HETATM   11 BR   UNL     1      -8.747   9.460  64.579  1.00  0.00    -0.227 Br 
BRANCH  10  12
HETATM   12  C   UNL     1      -8.999  11.075  67.657  1.00  0.00    -0.142 A  
HETATM   13  C   UNL     1      -9.225  10.063  68.591  1.00  0.00    -0.152 A  
HETATM   14  C   UNL     1     -10.305  10.132  69.467  1.00  0.00    -0.263 A  
HETATM   15  C   UNL     1     -11.178  11.228  69.498  1.00  0.00    -0.337 A  
HETATM   16  C   UNL     1     -11.897  13.336  68.452  1.00  0.00    -0.395 A  
HETATM   17  C   UNL     1     -11.011  12.234  68.509  1.00  0.00    -0.275 A  
HETATM   18  C   UNL     1     -11.795  14.327  67.480  1.00  0.00    -0.429 A  
HETATM   19  C   UNL     1      -9.957  12.143  67.543  1.00  0.00    -0.202 A  
HETATM   20  C   UNL     1      -9.974  13.109  66.497  1.00  0.00    -0.268 A  
HETATM   21  C   UNL     1     -10.848  14.199  66.485  1.00  0.00    -0.298 A  
BRANCH  15  22
HETATM   22  C   UNL     1     -12.274  11.223  70.559  1.00  0.00    -0.474 C  
HETATM   23  C   UNL     1     -13.280  10.085  70.541  1.00  0.00    -0.059 C  
HETATM   24  C   UNL     1     -12.327  10.215  71.681  1.00  0.00    -0.471 C  
ENDBRANCH  15  22
ENDBRANCH  10  12
ENDBRANCH   5   6
ENDBRANCH   4   5
TORSDOF 4
ENDMDL
MODEL      113
REMARK 921   NORMALIZED FREE ENERGY PREDICTED BY IDOCK:   -4.76 KCAL/MOL
REMARK 922        TOTAL FREE ENERGY PREDICTED BY IDOCK:   -6.76 KCAL/MOL
REMARK 923 INTER-LIGAND FREE ENERGY PREDICTED BY IDOCK:   -5.87 KCAL/MOL
REMARK 924 INTRA-LIGAND FREE ENERGY PREDICTED BY IDOCK:   -0.89 KCAL/MOL
REMARK 927      BINDING AFFINITY PREDICTED BY RF-SCORE:    0.00 PKD
ROOT
HETATM    1  O   UNL     1     -12.558  13.733  63.006  1.00  0.00    -0.721 OA 
HETATM    2  C   UNL     1     -12.352  12.439  63.355  1.00  0.00    -0.499 C  
HETATM    3  O   UNL     1     -13.199  11.585  63.165  1.00  0.00    -0.330 OA 
HETATM    4  C   UNL     1     -10.972  12.140  63.915  1.00  0.00    -0.402 C  
ENDROOT
BRANCH   4   5
HETATM    5  S   UNL     1     -10.202  13.609  64.708  1.00  0.00    -0.254 SA 
BRANCH   5   6
HETATM    6  C   UNL     1     -10.813  13.418  66.325  1.00  0.00    -0.289 A  
HETATM    7  N   UNL     1     -11.896  12.711  66.557  1.00  0.00    -0.475 NA 
HETATM    8  N   UNL     1     -12.218  12.859  67.870  1.00  0.00    -0.179 NA 
HETATM    9  C   UNL     1     -11.331  13.665  68.412  1.00  0.00    -0.295 A  
HETATM   10  N   UNL     1     -10.276  13.894  67.527  1.00  0.00    -0.243 NA 
HETATM   11 BR   UNL     1     -11.725  14.538  70.032  1.00  0.00    -0.379 Br 
BRANCH  10  12
HETATM   12  C   UNL     1      -9.039  14.574  67.813  1.00  0.00    -0.190 A  
HETATM   13  C   UNL     1      -8.993  15.963  67.684  1.00  0.00    -0.193 A  
HETATM   14  C   UNL     1      -7.874  16.680  68.101  1.00  0.00    -0.175 A  
HETATM   15  C   UNL     1      -6.774  16.065  68.714  1.00  0.00    -0.129 A  
HETATM   16  C   UNL     1      -5.659  13.964  69.345  1.00  0.00    -0.086 A  
HETATM   17  C   UNL     1      -6.768  14.646  68.790  1.00  0.00    -0.088 A  
HETATM   18  C   UNL     1      -5.592  12.575  69.407  1.00  0.00    -0.080 A  
HETATM   19  C   UNL     1      -7.871  13.881  68.290  1.00  0.00    -0.146 A  
HETATM   20  C   UNL     1      -7.698  12.469  68.261  1.00  0.00    -0.141 A  
HETATM   21  C   UNL     1      -6.602  11.825  68.841  1.00  0.00    -0.082 A  
BRANCH  15  22
HETATM   22  C   UNL     1      -5.646  16.968  69.201  1.00  0.00    -0.155 C  
HETATM   23  C   UNL     1      -5.674  18.430  68.789  1.00  0.00    -0.196 C  
HETATM   24  C   UNL     1      -5.849  18.060  70.223  1.00  0.00    -0.141 C  
ENDBRANCH  15  22
ENDBRANCH  10  12
ENDBRANCH   5   6
ENDBRANCH   4   5
TORSDOF 4
ENDMDL
MODEL      114
REMARK 921   NORMALIZED FREE ENERGY PREDICTED BY IDOCK:   -4.75 KCAL/MOL
REMARK 922        TOTAL FREE ENERGY PREDICTED BY IDOCK:   -6.74 KCAL/MOL
REMARK 923 INTER-LIGAND FREE ENERGY PREDICTED BY IDOCK:   -5.62 KCAL/MOL
REMARK 924 INTRA-LIGAND FREE ENERGY PREDICTED BY IDOCK:   -1.13 KCAL/MOL
REMARK 927      BINDING AFFINITY PREDICTED BY RF-SCORE:    0.00 PKD
ROOT
HETATM    1  O   UNL     1      -7.603  14.737  69.342  1.00  0.00    -0.163 OA 
HETATM    2  C   UNL     1      -6.590  14.642  68.446  1.00  0.00    -0.102 C  
HETATM    3  O   UNL     1      -6.360  15.532  67.646  1.00  0.00    -0.141 OA 
HETATM    4  C   UNL     1      -5.735  13.393  68.577  1.00  0.00    -0.089 C  
ENDROOT
BRANCH   4   5
HETATM    5  S   UNL     1      -6.658  11.987  69.320  1.00  0.00    -0.093 SA 
BRANCH   5   6
HETATM    6  C   UNL     1      -7.206  11.201  67.869  1.00  0.00    -0.090 A  
HETATM    7  N   UNL     1      -6.442  11.151  66.800  1.00  0.00    -0.115 NA 
HETATM    8  N   UNL     1      -7.177  10.619  65.787  1.00  0.00    -0.132 NA 
HETATM    9  C   UNL     1      -8.380  10.365  66.254  1.00  0.00    -0.146 A  
HETATM   10  N   UNL     1      -8.405  10.517  67.641  1.00  0.00    -0.114 NA 
HETATM   11 BR   UNL     1      -9.820  10.142  65.063  1.00  0.00    -0.359 Br 
BRANCH  10  12
HETATM   12  C   UNL     1      -9.483  10.164  68.531  1.00  0.00    -0.158 A  
HETATM   13  C   UNL     1      -9.568   8.849  68.991  1.00  0.00    -0.158 A  
HETATM   14  C   UNL     1     -10.490   8.497  69.973  1.00  0.00    -0.226 A  
HETATM   15  C   UNL     1     -11.330   9.438  70.586  1.00  0.00    -0.352 A  
HETATM   16  C   UNL     1     -12.180  11.746  70.621  1.00  0.00    -0.443 A  
HETATM   17  C   UNL     1     -11.312  10.766  70.084  1.00  0.00    -0.390 A  
HETATM   18  C   UNL     1     -12.223  13.051  70.137  1.00  0.00    -0.342 A  
HETATM   19  C   UNL     1     -10.431  11.133  69.015  1.00  0.00    -0.233 A  
HETATM   20  C   UNL     1     -10.604  12.438  68.473  1.00  0.00    -0.251 A  
HETATM   21  C   UNL     1     -11.452  13.391  69.045  1.00  0.00    -0.348 A  
BRANCH  15  22
HETATM   22  C   UNL     1     -12.239   8.942  71.706  1.00  0.00    -0.429 C  
HETATM   23  C   UNL     1     -12.787   7.529  71.609  1.00  0.00    -0.392 C  
HETATM   24  C   UNL     1     -11.823   7.877  72.692  1.00  0.00    -0.352 C  
ENDBRANCH  15  22
ENDBRANCH  10  12
ENDBRANCH   5   6
ENDBRANCH   4   5
TORSDOF 4
ENDMDL
MODEL      115
REMARK 921   NORMALIZED FREE ENERGY PREDICTED BY IDOCK:   -4.71 KCAL/MOL
REMARK 922        TOTAL FREE ENERGY PREDICTED BY IDOCK:   -6.70 KCAL/MOL
REMARK 923 INTER-LIGAND FREE ENERGY PREDICTED BY IDOCK:   -5.50 KCAL/MOL
REMARK 924 INTRA-LIGAND FREE ENERGY PREDICTED BY IDOCK:   -1.20 KCAL/MOL
REMARK 927      BINDING AFFINITY PREDICTED BY RF-SCORE:    0.00 PKD
ROOT
HETATM    1  O   UNL     1      -9.291   7.189  66.224  1.00  0.00    -0.167 OA 
HETATM    2  C   UNL     1      -9.961   6.443  67.136  1.00  0.00    -0.155 C  
HETATM    3  O   UNL     1     -11.032   5.926  66.874  1.00  0.00    -0.299 OA 
HETATM    4  C   UNL     1      -9.237   6.245  68.457  1.00  0.00    -0.123 C  
ENDROOT
BRANCH   4   5
HETATM    5  S   UNL     1      -8.068   7.615  68.828  1.00  0.00    -0.128 SA 
BRANCH   5   6
HETATM    6  C   UNL     1      -9.084   8.594  69.846  1.00  0.00    -0.151 A  
HETATM    7  N   UNL     1      -9.220   8.321  71.124  1.00  0.00    -0.152 NA 
HETATM    8  N   UNL     1     -10.176   9.146  71.627  1.00  0.00    -0.341 NA 
HETATM    9  C   UNL     1     -10.614   9.900  70.643  1.00  0.00    -0.271 A  
HETATM   10  N   UNL     1      -9.806   9.746  69.515  1.00  0.00    -0.201 NA 
HETATM   11 BR   UNL     1     -12.277  10.768  70.795  1.00  0.00    -0.508 Br 
BRANCH  10  12
HETATM   12  C   UNL     1      -9.854  10.523  68.303  1.00  0.00    -0.149 A  
HETATM   13  C   UNL     1     -10.778  10.171  67.317  1.00  0.00    -0.316 A  
HETATM   14  C   UNL     1     -10.974  10.982  66.203  1.00  0.00    -0.157 A  
HETATM   15  C   UNL     1     -10.309  12.205  66.038  1.00  0.00    -0.268 A  
HETATM   16  C   UNL     1      -8.566  13.742  66.847  1.00  0.00    -0.128 A  
HETATM   17  C   UNL     1      -9.313  12.549  66.991  1.00  0.00    -0.210 A  
HETATM   18  C   UNL     1      -7.556  14.103  67.734  1.00  0.00    -0.175 A  
HETATM   19  C   UNL     1      -9.034  11.688  68.102  1.00  0.00    -0.182 A  
HETATM   20  C   UNL     1      -7.910  12.036  68.904  1.00  0.00     0.042 A  
HETATM   21  C   UNL     1      -7.210  13.236  68.750  1.00  0.00    -0.088 A  
BRANCH  15  22
HETATM   22  C   UNL     1     -10.671  13.042  64.816  1.00  0.00    -0.370 C  
HETATM   23  C   UNL     1     -11.007  12.314  63.526  1.00  0.00    -0.521 C  
HETATM   24  C   UNL     1     -12.063  13.091  64.236  1.00  0.00    -0.480 C  
ENDBRANCH  15  22
ENDBRANCH  10  12
ENDBRANCH   5   6
ENDBRANCH   4   5
TORSDOF 4
ENDMDL
MODEL      116
REMARK 921   NORMALIZED FREE ENERGY PREDICTED BY IDOCK:   -4.71 KCAL/MOL
REMARK 922        TOTAL FREE ENERGY PREDICTED BY IDOCK:   -6.69 KCAL/MOL
REMARK 923 INTER-LIGAND FREE ENERGY PREDICTED BY IDOCK:   -5.99 KCAL/MOL
REMARK 924 INTRA-LIGAND FREE ENERGY PREDICTED BY IDOCK:   -0.70 KCAL/MOL
REMARK 927      BINDING AFFINITY PREDICTED BY RF-SCORE:    0.00 PKD
ROOT
HETATM    1  O   UNL     1     -11.805  14.759  64.245  1.00  0.00    -0.397 OA 
HETATM    2  C   UNL     1     -12.624  13.740  64.601  1.00  0.00    -0.246 C  
HETATM    3  O   UNL     1     -13.557  13.908  65.367  1.00  0.00    -0.571 OA 
HETATM    4  C   UNL     1     -12.334  12.415  63.914  1.00  0.00    -0.508 C  
ENDROOT
BRANCH   4   5
HETATM    5  S   UNL     1     -10.575  12.261  63.403  1.00  0.00    -0.277 SA 
BRANCH   5   6
HETATM    6  C   UNL     1     -10.082  10.963  64.451  1.00  0.00    -0.339 A  
HETATM    7  N   UNL     1      -9.535   9.873  63.962  1.00  0.00    -0.241 NA 
HETATM    8  N   UNL     1      -9.394   8.984  64.980  1.00  0.00    -0.064 NA 
HETATM    9  C   UNL     1      -9.869   9.544  66.071  1.00  0.00    -0.283 A  
HETATM   10  N   UNL     1     -10.134  10.897  65.848  1.00  0.00    -0.243 NA 
HETATM   11 BR   UNL     1     -10.351   8.474  67.542  1.00  0.00    -0.338 Br 
BRANCH  10  12
HETATM   12  C   UNL     1     -10.496  11.882  66.835  1.00  0.00    -0.222 A  
HETATM   13  C   UNL     1     -11.782  11.847  67.376  1.00  0.00    -0.326 A  
HETATM   14  C   UNL     1     -12.128  12.672  68.443  1.00  0.00    -0.135 A  
HETATM   15  C   UNL     1     -11.205  13.528  69.060  1.00  0.00    -0.314 A  
HETATM   16  C   UNL     1      -8.955  14.524  69.023  1.00  0.00    -0.044 A  
HETATM   17  C   UNL     1      -9.912  13.633  68.481  1.00  0.00    -0.208 A  
HETATM   18  C   UNL     1      -7.689  14.688  68.469  1.00  0.00    -0.126 A  
HETATM   19  C   UNL     1      -9.559  12.856  67.330  1.00  0.00    -0.220 A  
HETATM   20  C   UNL     1      -8.304  13.154  66.728  1.00  0.00     0.064 A  
HETATM   21  C   UNL     1      -7.372  14.021  67.304  1.00  0.00    -0.022 A  
BRANCH  15  22
HETATM   22  C   UNL     1     -11.684  14.320  70.272  1.00  0.00    -0.343 C  
HETATM   23  C   UNL     1     -11.674  15.836  70.185  1.00  0.00    -0.367 C  
HETATM   24  C   UNL     1     -12.971  15.107  70.285  1.00  0.00    -0.220 C  
ENDBRANCH  15  22
ENDBRANCH  10  12
ENDBRANCH   5   6
ENDBRANCH   4   5
TORSDOF 4
ENDMDL
MODEL      117
REMARK 921   NORMALIZED FREE ENERGY PREDICTED BY IDOCK:   -4.71 KCAL/MOL
REMARK 922        TOTAL FREE ENERGY PREDICTED BY IDOCK:   -6.69 KCAL/MOL
REMARK 923 INTER-LIGAND FREE ENERGY PREDICTED BY IDOCK:   -5.72 KCAL/MOL
REMARK 924 INTRA-LIGAND FREE ENERGY PREDICTED BY IDOCK:   -0.97 KCAL/MOL
REMARK 927      BINDING AFFINITY PREDICTED BY RF-SCORE:    0.00 PKD
ROOT
HETATM    1  O   UNL     1      -5.883  11.802  66.167  1.00  0.00    -0.143 OA 
HETATM    2  C   UNL     1      -5.927  11.802  67.521  1.00  0.00    -0.089 C  
HETATM    3  O   UNL     1      -5.691  12.806  68.168  1.00  0.00    -0.067 OA 
HETATM    4  C   UNL     1      -6.365  10.488  68.147  1.00  0.00    -0.058 C  
ENDROOT
BRANCH   4   5
HETATM    5  S   UNL     1      -5.990   9.041  67.077  1.00  0.00    -0.057 SA 
BRANCH   5   6
HETATM    6  C   UNL     1      -7.291   7.988  67.547  1.00  0.00    -0.089 A  
HETATM    7  N   UNL     1      -7.047   6.791  68.033  1.00  0.00    -0.083 NA 
HETATM    8  N   UNL     1      -8.236   6.146  68.169  1.00  0.00    -0.114 NA 
HETATM    9  C   UNL     1      -9.184   6.957  67.750  1.00  0.00    -0.119 A  
HETATM   10  N   UNL     1      -8.668   8.236  67.535  1.00  0.00    -0.128 NA 
HETATM   11 BR   UNL     1     -10.866   6.265  67.270  1.00  0.00    -0.470 Br 
BRANCH  10  12
HETATM   12  C   UNL     1      -9.417   9.433  67.245  1.00  0.00    -0.133 A  
HETATM   13  C   UNL     1      -9.391   9.940  65.944  1.00  0.00    -0.245 A  
HETATM   14  C   UNL     1     -10.221  10.995  65.575  1.00  0.00    -0.327 A  
HETATM   15  C   UNL     1     -11.152  11.562  66.458  1.00  0.00    -0.341 A  
HETATM   16  C   UNL     1     -12.021  11.687  68.756  1.00  0.00    -0.326 A  
HETATM   17  C   UNL     1     -11.145  11.112  67.804  1.00  0.00    -0.344 A  
HETATM   18  C   UNL     1     -12.025  11.304  70.094  1.00  0.00    -0.452 A  
HETATM   19  C   UNL     1     -10.241  10.084  68.229  1.00  0.00    -0.200 A  
HETATM   20  C   UNL     1     -10.195   9.821  69.627  1.00  0.00    -0.254 A  
HETATM   21  C   UNL     1     -11.092  10.388  70.536  1.00  0.00    -0.343 A  
BRANCH  15  22
HETATM   22  C   UNL     1     -12.061  12.657  65.910  1.00  0.00    -0.459 C  
HETATM   23  C   UNL     1     -11.461  13.669  64.949  1.00  0.00    -0.352 C  
HETATM   24  C   UNL     1     -12.501  12.716  64.467  1.00  0.00    -0.525 C  
ENDBRANCH  15  22
ENDBRANCH  10  12
ENDBRANCH   5   6
ENDBRANCH   4   5
TORSDOF 4
ENDMDL
MODEL      118
REMARK 921   NORMALIZED FREE ENERGY PREDICTED BY IDOCK:   -4.71 KCAL/MOL
REMARK 922        TOTAL FREE ENERGY PREDICTED BY IDOCK:   -6.69 KCAL/MOL
REMARK 923 INTER-LIGAND FREE ENERGY PREDICTED BY IDOCK:   -5.71 KCAL/MOL
REMARK 924 INTRA-LIGAND FREE ENERGY PREDICTED BY IDOCK:   -0.98 KCAL/MOL
REMARK 927      BINDING AFFINITY PREDICTED BY RF-SCORE:    0.00 PKD
ROOT
HETATM    1  O   UNL     1     -12.932  12.111  63.280  1.00  0.00    -0.735 OA 
HETATM    2  C   UNL     1     -12.267  13.194  63.751  1.00  0.00    -0.456 C  
HETATM    3  O   UNL     1     -12.636  14.328  63.504  1.00  0.00    -0.814 OA 
HETATM    4  C   UNL     1     -11.093  12.877  64.663  1.00  0.00    -0.324 C  
ENDROOT
BRANCH   4   5
HETATM    5  S   UNL     1     -10.364  11.225  64.319  1.00  0.00    -0.366 SA 
BRANCH   5   6
HETATM    6  C   UNL     1      -9.245  11.120  65.646  1.00  0.00    -0.218 A  
HETATM    7  N   UNL     1      -8.939  12.184  66.354  1.00  0.00    -0.178 NA 
HETATM    8  N   UNL     1      -7.942  11.841  67.213  1.00  0.00    -0.153 NA 
HETATM    9  C   UNL     1      -7.650  10.575  67.004  1.00  0.00    -0.107 A  
HETATM   10  N   UNL     1      -8.594   9.992  66.157  1.00  0.00    -0.131 NA 
HETATM   11 BR   UNL     1      -5.999   9.885  67.587  1.00  0.00    -0.050 Br 
BRANCH  10  12
HETATM   12  C   UNL     1      -8.719   8.593  65.833  1.00  0.00    -0.172 A  
HETATM   13  C   UNL     1      -8.026   8.098  64.727  1.00  0.00    -0.147 A  
HETATM   14  C   UNL     1      -7.985   6.730  64.468  1.00  0.00    -0.106 A  
HETATM   15  C   UNL     1      -8.578   5.787  65.318  1.00  0.00    -0.129 A  
HETATM   16  C   UNL     1     -10.021   5.370  67.267  1.00  0.00    -0.198 A  
HETATM   17  C   UNL     1      -9.349   6.272  66.408  1.00  0.00    -0.176 A  
HETATM   18  C   UNL     1     -10.816   5.799  68.326  1.00  0.00    -0.249 A  
HETATM   19  C   UNL     1      -9.476   7.679  66.646  1.00  0.00    -0.255 A  
HETATM   20  C   UNL     1     -10.399   8.067  67.658  1.00  0.00    -0.312 A  
HETATM   21  C   UNL     1     -11.027   7.150  68.506  1.00  0.00    -0.080 A  
BRANCH  15  22
HETATM   22  C   UNL     1      -8.393   4.313  64.969  1.00  0.00    -0.115 C  
HETATM   23  C   UNL     1      -9.455   3.643  64.114  1.00  0.00    -0.149 C  
HETATM   24  C   UNL     1      -8.078   3.832  63.574  1.00  0.00    -0.088 C  
ENDBRANCH  15  22
ENDBRANCH  10  12
ENDBRANCH   5   6
ENDBRANCH   4   5
TORSDOF 4
ENDMDL
MODEL      119
REMARK 921   NORMALIZED FREE ENERGY PREDICTED BY IDOCK:   -4.70 KCAL/MOL
REMARK 922        TOTAL FREE ENERGY PREDICTED BY IDOCK:   -6.68 KCAL/MOL
REMARK 923 INTER-LIGAND FREE ENERGY PREDICTED BY IDOCK:   -5.47 KCAL/MOL
REMARK 924 INTRA-LIGAND FREE ENERGY PREDICTED BY IDOCK:   -1.21 KCAL/MOL
REMARK 927      BINDING AFFINITY PREDICTED BY RF-SCORE:    0.00 PKD
ROOT
HETATM    1  O   UNL     1      -9.794   9.542  64.791  1.00  0.00    -0.092 OA 
HETATM    2  C   UNL     1      -9.255  10.592  64.125  1.00  0.00    -0.236 C  
HETATM    3  O   UNL     1      -8.129  10.547  63.664  1.00  0.00    -0.141 OA 
HETATM    4  C   UNL     1     -10.189  11.777  63.936  1.00  0.00    -0.373 C  
ENDROOT
BRANCH   4   5
HETATM    5  S   UNL     1     -11.476  11.870  65.246  1.00  0.00    -0.197 SA 
BRANCH   5   6
HETATM    6  C   UNL     1     -10.678  12.942  66.359  1.00  0.00    -0.270 A  
HETATM    7  N   UNL     1     -10.795  14.246  66.240  1.00  0.00    -0.305 NA 
HETATM    8  N   UNL     1      -9.955  14.824  67.140  1.00  0.00    -0.234 NA 
HETATM    9  C   UNL     1      -9.333  13.860  67.784  1.00  0.00    -0.204 A  
HETATM   10  N   UNL     1      -9.905  12.623  67.480  1.00  0.00    -0.200 NA 
HETATM   11 BR   UNL     1      -7.731  14.228  68.701  1.00  0.00    -0.133 Br 
BRANCH  10  12
HETATM   12  C   UNL     1      -9.620  11.360  68.112  1.00  0.00    -0.190 A  
HETATM   13  C   UNL     1      -8.468  10.667  67.735  1.00  0.00    -0.116 A  
HETATM   14  C   UNL     1      -8.065   9.527  68.426  1.00  0.00    -0.101 A  
HETATM   15  C   UNL     1      -8.749   9.052  69.554  1.00  0.00    -0.144 A  
HETATM   16  C   UNL     1     -10.728   9.228  71.005  1.00  0.00    -0.387 A  
HETATM   17  C   UNL     1      -9.962   9.698  69.912  1.00  0.00    -0.273 A  
HETATM   18  C   UNL     1     -11.941   9.805  71.371  1.00  0.00    -0.493 A  
HETATM   19  C   UNL     1     -10.442  10.822  69.164  1.00  0.00    -0.243 A  
HETATM   20  C   UNL     1     -11.743  11.293  69.497  1.00  0.00    -0.415 A  
HETATM   21  C   UNL     1     -12.462  10.824  70.600  1.00  0.00    -0.461 A  
BRANCH  15  22
HETATM   22  C   UNL     1      -8.162   7.842  70.272  1.00  0.00    -0.125 C  
HETATM   23  C   UNL     1      -7.364   6.842  69.452  1.00  0.00    -0.091 C  
HETATM   24  C   UNL     1      -6.681   7.658  70.497  1.00  0.00    -0.042 C  
ENDBRANCH  15  22
ENDBRANCH  10  12
ENDBRANCH   5   6
ENDBRANCH   4   5
TORSDOF 4
ENDMDL
MODEL      120
REMARK 921   NORMALIZED FREE ENERGY PREDICTED BY IDOCK:   -4.68 KCAL/MOL
REMARK 922        TOTAL FREE ENERGY PREDICTED BY IDOCK:   -6.66 KCAL/MOL
REMARK 923 INTER-LIGAND FREE ENERGY PREDICTED BY IDOCK:   -6.97 KCAL/MOL
REMARK 924 INTRA-LIGAND FREE ENERGY PREDICTED BY IDOCK:    0.31 KCAL/MOL
REMARK 927      BINDING AFFINITY PREDICTED BY RF-SCORE:    0.00 PKD
ROOT
HETATM    1  O   UNL     1     -10.976  15.368  65.656  1.00  0.00    -0.333 OA 
HETATM    2  C   UNL     1     -11.640  15.440  64.476  1.00  0.00    -0.296 C  
HETATM    3  O   UNL     1     -11.781  16.496  63.886  1.00  0.00    -1.148 OA 
HETATM    4  C   UNL     1     -12.110  14.104  63.925  1.00  0.00    -0.264 C  
ENDROOT
BRANCH   4   5
HETATM    5  S   UNL     1     -12.387  12.858  65.248  1.00  0.00    -0.477 SA 
BRANCH   5   6
HETATM    6  C   UNL     1     -10.783  12.193  65.359  1.00  0.00    -0.284 A  
HETATM    7  N   UNL     1      -9.882  12.451  64.438  1.00  0.00    -0.151 NA 
HETATM    8  N   UNL     1      -8.787  11.689  64.700  1.00  0.00     0.349 NA 
HETATM    9  C   UNL     1      -9.046  10.970  65.772  1.00  0.00    -0.202 A  
HETATM   10  N   UNL     1     -10.231  11.400  66.371  1.00  0.00    -0.223 NA 
HETATM   11 BR   UNL     1      -8.030   9.428  66.134  1.00  0.00    -0.111 Br 
BRANCH  10  12
HETATM   12  C   UNL     1     -10.755  10.985  67.648  1.00  0.00    -0.238 A  
HETATM   13  C   UNL     1     -10.673   9.636  67.999  1.00  0.00    -0.284 A  
HETATM   14  C   UNL     1     -11.017   9.212  69.280  1.00  0.00    -0.081 A  
HETATM   15  C   UNL     1     -11.404  10.107  70.288  1.00  0.00    -0.387 A  
HETATM   16  C   UNL     1     -12.009  12.414  70.892  1.00  0.00     0.054 A  
HETATM   17  C   UNL     1     -11.564  11.473  69.934  1.00  0.00    -0.387 A  
HETATM   18  C   UNL     1     -12.215  13.755  70.583  1.00  0.00    -0.434 A  
HETATM   19  C   UNL     1     -11.297  11.920  68.598  1.00  0.00    -0.331 A  
HETATM   20  C   UNL     1     -11.645  13.268  68.302  1.00  0.00    -0.369 A  
HETATM   21  C   UNL     1     -12.057  14.178  69.279  1.00  0.00    -0.364 A  
BRANCH  15  22
HETATM   22  C   UNL     1     -11.676   9.528  71.672  1.00  0.00    -0.460 C  
HETATM   23  C   UNL     1     -11.794   8.020  71.805  1.00  0.00    -0.339 C  
HETATM   24  C   UNL     1     -10.653   8.733  72.447  1.00  0.00    -0.214 C  
ENDBRANCH  15  22
ENDBRANCH  10  12
ENDBRANCH   5   6
ENDBRANCH   4   5
TORSDOF 4
ENDMDL
MODEL      121
REMARK 921   NORMALIZED FREE ENERGY PREDICTED BY IDOCK:   -4.66 KCAL/MOL
REMARK 922        TOTAL FREE ENERGY PREDICTED BY IDOCK:   -6.63 KCAL/MOL
REMARK 923 INTER-LIGAND FREE ENERGY PREDICTED BY IDOCK:   -5.76 KCAL/MOL
REMARK 924 INTRA-LIGAND FREE ENERGY PREDICTED BY IDOCK:   -0.87 KCAL/MOL
REMARK 927      BINDING AFFINITY PREDICTED BY RF-SCORE:    0.00 PKD
ROOT
HETATM    1  O   UNL     1     -12.244  10.120  70.343  1.00  0.00    -0.266 OA 
HETATM    2  C   UNL     1     -10.935   9.773  70.403  1.00  0.00    -0.312 C  
HETATM    3  O   UNL     1     -10.536   8.913  71.168  1.00  0.00    -0.222 OA 
HETATM    4  C   UNL     1     -10.040  10.479  69.397  1.00  0.00    -0.209 C  
ENDROOT
BRANCH   4   5
HETATM    5  S   UNL     1     -10.703  12.119  68.897  1.00  0.00    -0.128 SA 
BRANCH   5   6
HETATM    6  C   UNL     1     -10.883  11.848  67.188  1.00  0.00    -0.255 A  
HETATM    7  N   UNL     1     -11.398  10.728  66.734  1.00  0.00    -0.214 NA 
HETATM    8  N   UNL     1     -11.277  10.732  65.379  1.00  0.00     0.251 NA 
HETATM    9  C   UNL     1     -10.678  11.851  65.033  1.00  0.00    -0.292 A  
HETATM   10  N   UNL     1     -10.587  12.713  66.128  1.00  0.00    -0.254 NA 
HETATM   11 BR   UNL     1      -9.852  11.991  63.348  1.00  0.00    -0.173 Br 
BRANCH  10  12
HETATM   12  C   UNL     1     -10.159  14.089  66.113  1.00  0.00    -0.309 A  
HETATM   13  C   UNL     1     -10.988  15.042  65.519  1.00  0.00    -0.364 A  
HETATM   14  C   UNL     1     -10.697  16.400  65.620  1.00  0.00    -0.280 A  
HETATM   15  C   UNL     1      -9.607  16.881  66.359  1.00  0.00    -0.305 A  
HETATM   16  C   UNL     1      -7.560  16.352  67.617  1.00  0.00    -0.161 A  
HETATM   17  C   UNL     1      -8.710  15.928  66.911  1.00  0.00    -0.272 A  
HETATM   18  C   UNL     1      -6.634  15.456  68.145  1.00  0.00    -0.141 A  
HETATM   19  C   UNL     1      -8.943  14.523  66.748  1.00  0.00    -0.270 A  
HETATM   20  C   UNL     1      -7.905  13.656  67.192  1.00  0.00    -0.028 A  
HETATM   21  C   UNL     1      -6.794  14.106  67.910  1.00  0.00    -0.173 A  
BRANCH  15  22
HETATM   22  C   UNL     1      -9.442  18.394  66.462  1.00  0.00    -0.317 C  
HETATM   23  C   UNL     1     -10.620  19.269  66.070  1.00  0.00    -0.550 C  
HETATM   24  C   UNL     1     -10.163  19.232  67.489  1.00  0.00    -0.514 C  
ENDBRANCH  15  22
ENDBRANCH  10  12
ENDBRANCH   5   6
ENDBRANCH   4   5
TORSDOF 4
ENDMDL
MODEL      122
REMARK 921   NORMALIZED FREE ENERGY PREDICTED BY IDOCK:   -4.63 KCAL/MOL
REMARK 922        TOTAL FREE ENERGY PREDICTED BY IDOCK:   -6.60 KCAL/MOL
REMARK 923 INTER-LIGAND FREE ENERGY PREDICTED BY IDOCK:   -5.73 KCAL/MOL
REMARK 924 INTRA-LIGAND FREE ENERGY PREDICTED BY IDOCK:   -0.86 KCAL/MOL
REMARK 927      BINDING AFFINITY PREDICTED BY RF-SCORE:    0.00 PKD
ROOT
HETATM    1  O   UNL     1     -12.738  14.413  70.651  1.00  0.00    -0.338 OA 
HETATM    2  C   UNL     1     -12.888  13.134  71.072  1.00  0.00    -0.214 C  
HETATM    3  O   UNL     1     -13.444  12.868  72.123  1.00  0.00    -0.523 OA 
HETATM    4  C   UNL     1     -12.384  12.077  70.102  1.00  0.00    -0.155 C  
ENDROOT
BRANCH   4   5
HETATM    5  S   UNL     1     -11.045  12.708  69.012  1.00  0.00    -0.208 SA 
BRANCH   5   6
HETATM    6  C   UNL     1     -10.697  11.259  68.114  1.00  0.00    -0.204 A  
HETATM    7  N   UNL     1     -10.746  11.253  66.801  1.00  0.00    -0.264 NA 
HETATM    8  N   UNL     1     -10.580   9.970  66.383  1.00  0.00    -0.123 NA 
HETATM    9  C   UNL     1     -10.446   9.214  67.452  1.00  0.00    -0.271 A  
HETATM   10  N   UNL     1     -10.299  10.006  68.592  1.00  0.00    -0.181 NA 
HETATM   11 BR   UNL     1     -10.739   7.359  67.331  1.00  0.00    -0.317 Br 
BRANCH  10  12
HETATM   12  C   UNL     1      -9.957   9.558  69.918  1.00  0.00    -0.230 A  
HETATM   13  C   UNL     1     -10.974   9.085  70.749  1.00  0.00    -0.315 A  
HETATM   14  C   UNL     1     -10.676   8.494  71.974  1.00  0.00    -0.410 A  
HETATM   15  C   UNL     1      -9.358   8.293  72.409  1.00  0.00    -0.338 A  
HETATM   16  C   UNL     1      -6.964   8.712  72.031  1.00  0.00    -0.081 A  
HETATM   17  C   UNL     1      -8.311   8.831  71.615  1.00  0.00    -0.190 A  
HETATM   18  C   UNL     1      -5.906   9.253  71.305  1.00  0.00    -0.067 A  
HETATM   19  C   UNL     1      -8.598   9.518  70.391  1.00  0.00    -0.246 A  
HETATM   20  C   UNL     1      -7.499  10.161  69.755  1.00  0.00    -0.166 A  
HETATM   21  C   UNL     1      -6.177  10.002  70.178  1.00  0.00    -0.077 A  
BRANCH  15  22
HETATM   22  C   UNL     1      -9.161   7.560  73.732  1.00  0.00    -0.311 C  
HETATM   23  C   UNL     1     -10.240   6.589  74.178  1.00  0.00    -0.380 C  
HETATM   24  C   UNL     1      -8.885   6.079  73.819  1.00  0.00    -0.123 C  
ENDBRANCH  15  22
ENDBRANCH  10  12
ENDBRANCH   5   6
ENDBRANCH   4   5
TORSDOF 4
ENDMDL
MODEL      123
REMARK 921   NORMALIZED FREE ENERGY PREDICTED BY IDOCK:   -4.63 KCAL/MOL
REMARK 922        TOTAL FREE ENERGY PREDICTED BY IDOCK:   -6.60 KCAL/MOL
REMARK 923 INTER-LIGAND FREE ENERGY PREDICTED BY IDOCK:   -5.50 KCAL/MOL
REMARK 924 INTRA-LIGAND FREE ENERGY PREDICTED BY IDOCK:   -1.09 KCAL/MOL
REMARK 927      BINDING AFFINITY PREDICTED BY RF-SCORE:    0.00 PKD
ROOT
HETATM    1  O   UNL     1     -10.300  13.547  66.234  1.00  0.00    -0.281 OA 
HETATM    2  C   UNL     1     -11.548  13.412  66.744  1.00  0.00    -0.365 C  
HETATM    3  O   UNL     1     -12.454  14.159  66.422  1.00  0.00    -0.461 OA 
HETATM    4  C   UNL     1     -11.735  12.222  67.672  1.00  0.00    -0.334 C  
ENDROOT
BRANCH   4   5
HETATM    5  S   UNL     1     -10.169  11.722  68.495  1.00  0.00    -0.196 SA 
BRANCH   5   6
HETATM    6  C   UNL     1      -9.898  10.199  67.700  1.00  0.00    -0.172 A  
HETATM    7  N   UNL     1      -9.995  10.094  66.394  1.00  0.00    -0.223 NA 
HETATM    8  N   UNL     1      -9.883   8.778  66.072  1.00  0.00    -0.231 NA 
HETATM    9  C   UNL     1      -9.733   8.102  67.190  1.00  0.00    -0.199 A  
HETATM   10  N   UNL     1      -9.520   8.973  68.260  1.00  0.00    -0.145 NA 
HETATM   11 BR   UNL     1     -10.085   6.254  67.223  1.00  0.00    -0.236 Br 
BRANCH  10  12
HETATM   12  C   UNL     1      -9.143   8.617  69.604  1.00  0.00    -0.149 A  
HETATM   13  C   UNL     1      -7.793   8.665  69.956  1.00  0.00    -0.103 A  
HETATM   14  C   UNL     1      -7.395   8.487  71.279  1.00  0.00    -0.095 A  
HETATM   15  C   UNL     1      -8.315   8.310  72.322  1.00  0.00    -0.229 A  
HETATM   16  C   UNL     1     -10.657   7.946  72.980  1.00  0.00    -0.406 A  
HETATM   17  C   UNL     1      -9.688   8.185  71.978  1.00  0.00    -0.292 A  
HETATM   18  C   UNL     1     -12.009   7.781  72.688  1.00  0.00    -0.257 A  
HETATM   19  C   UNL     1     -10.113   8.280  70.613  1.00  0.00    -0.212 A  
HETATM   20  C   UNL     1     -11.479   7.978  70.354  1.00  0.00    -0.140 A  
HETATM   21  C   UNL     1     -12.417   7.771  71.370  1.00  0.00    -0.342 A  
BRANCH  15  22
HETATM   22  C   UNL     1      -7.759   8.208  73.738  1.00  0.00    -0.233 C  
HETATM   23  C   UNL     1      -7.257   6.856  74.213  1.00  0.00    -0.092 C  
HETATM   24  C   UNL     1      -6.296   7.982  74.033  1.00  0.00    -0.113 C  
ENDBRANCH  15  22
ENDBRANCH  10  12
ENDBRANCH   5   6
ENDBRANCH   4   5
TORSDOF 4
ENDMDL
MODEL      124
REMARK 921   NORMALIZED FREE ENERGY PREDICTED BY IDOCK:   -4.63 KCAL/MOL
REMARK 922        TOTAL FREE ENERGY PREDICTED BY IDOCK:   -6.59 KCAL/MOL
REMARK 923 INTER-LIGAND FREE ENERGY PREDICTED BY IDOCK:   -5.54 KCAL/MOL
REMARK 924 INTRA-LIGAND FREE ENERGY PREDICTED BY IDOCK:   -1.05 KCAL/MOL
REMARK 927      BINDING AFFINITY PREDICTED BY RF-SCORE:    0.00 PKD
ROOT
HETATM    1  O   UNL     1     -11.436  13.508  63.602  1.00  0.00    -0.257 OA 
HETATM    2  C   UNL     1     -12.018  12.285  63.646  1.00  0.00    -0.543 C  
HETATM    3  O   UNL     1     -13.228  12.152  63.619  1.00  0.00    -0.770 OA 
HETATM    4  C   UNL     1     -11.048  11.115  63.648  1.00  0.00    -0.054 C  
ENDROOT
BRANCH   4   5
HETATM    5  S   UNL     1      -9.412  11.561  64.360  1.00  0.00    -0.011 SA 
BRANCH   5   6
HETATM    6  C   UNL     1      -9.607  10.911  65.962  1.00  0.00    -0.209 A  
HETATM    7  N   UNL     1      -9.704   9.615  66.155  1.00  0.00    -0.232 NA 
HETATM    8  N   UNL     1      -9.996   9.409  67.467  1.00  0.00    -0.187 NA 
HETATM    9  C   UNL     1     -10.084  10.587  68.047  1.00  0.00    -0.165 A  
HETATM   10  N   UNL     1      -9.636  11.589  67.185  1.00  0.00    -0.176 NA 
HETATM   11 BR   UNL     1     -10.989  10.757  69.689  1.00  0.00    -0.319 Br 
BRANCH  10  12
HETATM   12  C   UNL     1      -9.415  12.975  67.510  1.00  0.00    -0.198 A  
HETATM   13  C   UNL     1     -10.350  13.920  67.084  1.00  0.00    -0.265 A  
HETATM   14  C   UNL     1     -10.267  15.244  67.508  1.00  0.00    -0.239 A  
HETATM   15  C   UNL     1      -9.292  15.683  68.415  1.00  0.00    -0.195 A  
HETATM   16  C   UNL     1      -7.244  15.156  69.672  1.00  0.00    -0.194 A  
HETATM   17  C   UNL     1      -8.289  14.756  68.805  1.00  0.00    -0.168 A  
HETATM   18  C   UNL     1      -6.219  14.295  70.053  1.00  0.00    -0.157 A  
HETATM   19  C   UNL     1      -8.304  13.410  68.315  1.00  0.00    -0.160 A  
HETATM   20  C   UNL     1      -7.170  12.610  68.630  1.00  0.00    -0.108 A  
HETATM   21  C   UNL     1      -6.168  13.027  69.511  1.00  0.00    -0.117 A  
BRANCH  15  22
HETATM   22  C   UNL     1      -9.357  17.138  68.865  1.00  0.00    -0.204 C  
HETATM   23  C   UNL     1      -9.094  18.219  67.830  1.00  0.00    -0.288 C  
HETATM   24  C   UNL     1     -10.451  18.085  68.435  1.00  0.00    -0.326 C  
ENDBRANCH  15  22
ENDBRANCH  10  12
ENDBRANCH   5   6
ENDBRANCH   4   5
TORSDOF 4
ENDMDL
MODEL      125
REMARK 921   NORMALIZED FREE ENERGY PREDICTED BY IDOCK:   -4.63 KCAL/MOL
REMARK 922        TOTAL FREE ENERGY PREDICTED BY IDOCK:   -6.59 KCAL/MOL
REMARK 923 INTER-LIGAND FREE ENERGY PREDICTED BY IDOCK:   -5.45 KCAL/MOL
REMARK 924 INTRA-LIGAND FREE ENERGY PREDICTED BY IDOCK:   -1.14 KCAL/MOL
REMARK 927      BINDING AFFINITY PREDICTED BY RF-SCORE:    0.00 PKD
ROOT
HETATM    1  O   UNL     1     -10.661   5.539  69.301  1.00  0.00    -0.277 OA 
HETATM    2  C   UNL     1     -10.308   6.754  69.787  1.00  0.00    -0.201 C  
HETATM    3  O   UNL     1     -10.296   6.985  70.982  1.00  0.00    -0.201 OA 
HETATM    4  C   UNL     1      -9.859   7.757  68.737  1.00  0.00    -0.169 C  
ENDROOT
BRANCH   4   5
HETATM    5  S   UNL     1     -10.601   7.426  67.087  1.00  0.00    -0.324 SA 
BRANCH   5   6
HETATM    6  C   UNL     1      -9.161   7.449  66.113  1.00  0.00    -0.126 A  
HETATM    7  N   UNL     1      -8.465   6.352  65.914  1.00  0.00    -0.142 NA 
HETATM    8  N   UNL     1      -7.327   6.694  65.252  1.00  0.00    -0.077 NA 
HETATM    9  C   UNL     1      -7.345   7.996  65.070  1.00  0.00    -0.079 A  
HETATM   10  N   UNL     1      -8.595   8.518  65.410  1.00  0.00    -0.176 NA 
HETATM   11 BR   UNL     1      -5.745   8.912  64.692  1.00  0.00    -0.064 Br 
BRANCH  10  12
HETATM   12  C   UNL     1      -9.061   9.863  65.188  1.00  0.00    -0.211 A  
HETATM   13  C   UNL     1      -9.713  10.156  63.989  1.00  0.00    -0.273 A  
HETATM   14  C   UNL     1     -10.321  11.393  63.793  1.00  0.00    -0.447 A  
HETATM   15  C   UNL     1     -10.362  12.376  64.792  1.00  0.00    -0.324 A  
HETATM   16  C   UNL     1      -9.598  13.106  67.014  1.00  0.00    -0.241 A  
HETATM   17  C   UNL     1      -9.644  12.128  65.992  1.00  0.00    -0.242 A  
HETATM   18  C   UNL     1      -8.878  12.924  68.191  1.00  0.00    -0.194 A  
HETATM   19  C   UNL     1      -8.939  10.895  66.183  1.00  0.00    -0.196 A  
HETATM   20  C   UNL     1      -8.117  10.811  67.342  1.00  0.00    -0.112 A  
HETATM   21  C   UNL     1      -8.115  11.784  68.345  1.00  0.00    -0.150 A  
BRANCH  15  22
HETATM   22  C   UNL     1     -11.129  13.658  64.485  1.00  0.00    -0.396 C  
HETATM   23  C   UNL     1     -12.367  13.556  63.610  1.00  0.00    -0.377 C  
HETATM   24  C   UNL     1     -12.502  13.948  65.042  1.00  0.00    -0.447 C  
ENDBRANCH  15  22
ENDBRANCH  10  12
ENDBRANCH   5   6
ENDBRANCH   4   5
TORSDOF 4
ENDMDL
MODEL      126
REMARK 921   NORMALIZED FREE ENERGY PREDICTED BY IDOCK:   -4.63 KCAL/MOL
REMARK 922        TOTAL FREE ENERGY PREDICTED BY IDOCK:   -6.59 KCAL/MOL
REMARK 923 INTER-LIGAND FREE ENERGY PREDICTED BY IDOCK:   -5.95 KCAL/MOL
REMARK 924 INTRA-LIGAND FREE ENERGY PREDICTED BY IDOCK:   -0.64 KCAL/MOL
REMARK 927      BINDING AFFINITY PREDICTED BY RF-SCORE:    0.00 PKD
ROOT
HETATM    1  O   UNL     1      -9.816  17.939  65.967  1.00  0.00    -0.500 OA 
HETATM    2  C   UNL     1      -9.322  19.121  66.410  1.00  0.00    -0.348 C  
HETATM    3  O   UNL     1      -9.937  20.163  66.268  1.00  0.00    -0.448 OA 
HETATM    4  C   UNL     1      -8.002  19.024  67.156  1.00  0.00    -0.255 C  
ENDROOT
BRANCH   4   5
HETATM    5  S   UNL     1      -7.011  17.563  66.641  1.00  0.00    -0.257 SA 
BRANCH   5   6
HETATM    6  C   UNL     1      -6.692  16.865  68.202  1.00  0.00    -0.146 A  
HETATM    7  N   UNL     1      -5.814  17.408  69.016  1.00  0.00    -0.183 NA 
HETATM    8  N   UNL     1      -5.664  16.578  70.082  1.00  0.00    -0.206 NA 
HETATM    9  C   UNL     1      -6.446  15.537  69.893  1.00  0.00    -0.146 A  
HETATM   10  N   UNL     1      -7.295  15.757  68.807  1.00  0.00    -0.131 NA 
HETATM   11 BR   UNL     1      -6.130  13.942  70.841  1.00  0.00    -0.017 Br 
BRANCH  10  12
HETATM   12  C   UNL     1      -8.404  14.934  68.395  1.00  0.00    -0.153 A  
HETATM   13  C   UNL     1      -9.702  15.405  68.604  1.00  0.00    -0.210 A  
HETATM   14  C   UNL     1     -10.798  14.725  68.082  1.00  0.00    -0.256 A  
HETATM   15  C   UNL     1     -10.661  13.581  67.282  1.00  0.00    -0.272 A  
HETATM   16  C   UNL     1      -9.161  11.858  66.369  1.00  0.00    -0.218 A  
HETATM   17  C   UNL     1      -9.357  13.044  67.116  1.00  0.00    -0.230 A  
HETATM   18  C   UNL     1      -7.908  11.274  66.209  1.00  0.00    -0.069 A  
HETATM   19  C   UNL     1      -8.221  13.679  67.715  1.00  0.00    -0.179 A  
HETATM   20  C   UNL     1      -6.986  12.976  67.630  1.00  0.00    -0.154 A  
HETATM   21  C   UNL     1      -6.822  11.819  66.862  1.00  0.00    -0.104 A  
BRANCH  15  22
HETATM   22  C   UNL     1     -11.934  12.974  66.701  1.00  0.00    -0.453 C  
HETATM   23  C   UNL     1     -12.765  13.826  65.758  1.00  0.00    -0.494 C  
HETATM   24  C   UNL     1     -12.079  12.605  65.245  1.00  0.00    -0.519 C  
ENDBRANCH  15  22
ENDBRANCH  10  12
ENDBRANCH   5   6
ENDBRANCH   4   5
TORSDOF 4
ENDMDL
MODEL      127
REMARK 921   NORMALIZED FREE ENERGY PREDICTED BY IDOCK:   -4.62 KCAL/MOL
REMARK 922        TOTAL FREE ENERGY PREDICTED BY IDOCK:   -6.59 KCAL/MOL
REMARK 923 INTER-LIGAND FREE ENERGY PREDICTED BY IDOCK:   -5.57 KCAL/MOL
REMARK 924 INTRA-LIGAND FREE ENERGY PREDICTED BY IDOCK:   -1.01 KCAL/MOL
REMARK 927      BINDING AFFINITY PREDICTED BY RF-SCORE:    0.00 PKD
ROOT
HETATM    1  O   UNL     1     -10.851   4.638  65.701  1.00  0.00    -0.292 OA 
HETATM    2  C   UNL     1      -9.513   4.642  65.485  1.00  0.00    -0.173 C  
HETATM    3  O   UNL     1      -8.948   3.698  64.961  1.00  0.00    -0.122 OA 
HETATM    4  C   UNL     1      -8.806   5.931  65.869  1.00  0.00    -0.149 C  
ENDROOT
BRANCH   4   5
HETATM    5  S   UNL     1      -9.690   6.847  67.196  1.00  0.00    -0.165 SA 
BRANCH   5   6
HETATM    6  C   UNL     1      -8.325   7.485  68.065  1.00  0.00    -0.124 A  
HETATM    7  N   UNL     1      -7.198   6.814  68.136  1.00  0.00    -0.089 NA 
HETATM    8  N   UNL     1      -6.372   7.473  68.992  1.00  0.00    -0.038 NA 
HETATM    9  C   UNL     1      -7.018   8.530  69.437  1.00  0.00    -0.049 A  
HETATM   10  N   UNL     1      -8.201   8.715  68.720  1.00  0.00    -0.119 NA 
HETATM   11 BR   UNL     1      -6.447   9.380  71.016  1.00  0.00    -0.065 Br 
BRANCH  10  12
HETATM   12  C   UNL     1      -9.087   9.849  68.791  1.00  0.00    -0.147 A  
HETATM   13  C   UNL     1      -8.950  10.867  67.845  1.00  0.00    -0.141 A  
HETATM   14  C   UNL     1      -9.880  11.901  67.772  1.00  0.00    -0.187 A  
HETATM   15  C   UNL     1     -11.017  11.947  68.592  1.00  0.00    -0.271 A  
HETATM   16  C   UNL     1     -12.233  10.993  70.505  1.00  0.00    -0.472 A  
HETATM   17  C   UNL     1     -11.138  10.963  69.609  1.00  0.00    -0.328 A  
HETATM   18  C   UNL     1     -12.376  10.072  71.540  1.00  0.00    -0.513 A  
HETATM   19  C   UNL     1     -10.149   9.937  69.758  1.00  0.00    -0.274 A  
HETATM   20  C   UNL     1     -10.273   9.103  70.904  1.00  0.00    -0.351 A  
HETATM   21  C   UNL     1     -11.381   9.141  71.755  1.00  0.00    -0.451 A  
BRANCH  15  22
HETATM   22  C   UNL     1     -12.003  13.087  68.359  1.00  0.00    -0.309 C  
HETATM   23  C   UNL     1     -11.751  14.406  69.070  1.00  0.00    -0.345 C  
HETATM   24  C   UNL     1     -11.652  14.333  67.583  1.00  0.00    -0.396 C  
ENDBRANCH  15  22
ENDBRANCH  10  12
ENDBRANCH   5   6
ENDBRANCH   4   5
TORSDOF 4
ENDMDL
MODEL      128
REMARK 921   NORMALIZED FREE ENERGY PREDICTED BY IDOCK:   -4.61 KCAL/MOL
REMARK 922        TOTAL FREE ENERGY PREDICTED BY IDOCK:   -6.57 KCAL/MOL
REMARK 923 INTER-LIGAND FREE ENERGY PREDICTED BY IDOCK:   -5.44 KCAL/MOL
REMARK 924 INTRA-LIGAND FREE ENERGY PREDICTED BY IDOCK:   -1.13 KCAL/MOL
REMARK 927      BINDING AFFINITY PREDICTED BY RF-SCORE:    0.00 PKD
ROOT
HETATM    1  O   UNL     1      -9.797  10.132  64.994  1.00  0.00    -0.296 OA 
HETATM    2  C   UNL     1      -9.973  11.384  64.507  1.00  0.00    -0.271 C  
HETATM    3  O   UNL     1     -10.114  11.591  63.315  1.00  0.00    -0.365 OA 
HETATM    4  C   UNL     1     -10.059  12.475  65.561  1.00  0.00    -0.265 C  
ENDROOT
BRANCH   4   5
HETATM    5  S   UNL     1      -9.163  12.031  67.104  1.00  0.00    -0.196 SA 
BRANCH   5   6
HETATM    6  C   UNL     1     -10.504  11.489  68.071  1.00  0.00    -0.189 A  
HETATM    7  N   UNL     1     -11.656  12.121  68.040  1.00  0.00    -0.330 NA 
HETATM    8  N   UNL     1     -12.457  11.576  68.994  1.00  0.00    -0.229 NA 
HETATM    9  C   UNL     1     -11.773  10.628  69.598  1.00  0.00    -0.296 A  
HETATM   10  N   UNL     1     -10.583  10.375  68.913  1.00  0.00    -0.202 NA 
HETATM   11 BR   UNL     1     -12.313  10.019  71.295  1.00  0.00    -0.532 Br 
BRANCH  10  12
HETATM   12  C   UNL     1      -9.656   9.299  69.158  1.00  0.00    -0.161 A  
HETATM   13  C   UNL     1      -8.629   9.498  70.083  1.00  0.00    -0.250 A  
HETATM   14  C   UNL     1      -7.808   8.443  70.473  1.00  0.00    -0.089 A  
HETATM   15  C   UNL     1      -7.999   7.133  70.010  1.00  0.00    -0.118 A  
HETATM   16  C   UNL     1      -9.189   5.632  68.467  1.00  0.00    -0.131 A  
HETATM   17  C   UNL     1      -8.990   6.922  69.016  1.00  0.00    -0.132 A  
HETATM   18  C   UNL     1     -10.123   5.383  67.465  1.00  0.00    -0.220 A  
HETATM   19  C   UNL     1      -9.791   8.009  68.537  1.00  0.00    -0.185 A  
HETATM   20  C   UNL     1     -10.637   7.728  67.427  1.00  0.00    -0.345 A  
HETATM   21  C   UNL     1     -10.830   6.438  66.926  1.00  0.00    -0.428 A  
BRANCH  15  22
HETATM   22  C   UNL     1      -7.085   6.051  70.575  1.00  0.00    -0.071 C  
HETATM   23  C   UNL     1      -6.428   6.301  71.922  1.00  0.00    -0.050 C  
HETATM   24  C   UNL     1      -7.444   5.218  71.781  1.00  0.00    -0.091 C  
ENDBRANCH  15  22
ENDBRANCH  10  12
ENDBRANCH   5   6
ENDBRANCH   4   5
TORSDOF 4
ENDMDL
MODEL      129
REMARK 921   NORMALIZED FREE ENERGY PREDICTED BY IDOCK:   -4.60 KCAL/MOL
REMARK 922        TOTAL FREE ENERGY PREDICTED BY IDOCK:   -6.55 KCAL/MOL
REMARK 923 INTER-LIGAND FREE ENERGY PREDICTED BY IDOCK:   -6.23 KCAL/MOL
REMARK 924 INTRA-LIGAND FREE ENERGY PREDICTED BY IDOCK:   -0.32 KCAL/MOL
REMARK 927      BINDING AFFINITY PREDICTED BY RF-SCORE:    0.00 PKD
ROOT
HETATM    1  O   UNL     1     -11.660  14.705  65.167  1.00  0.00    -0.352 OA 
HETATM    2  C   UNL     1     -11.358  15.937  64.688  1.00  0.00    -0.322 C  
HETATM    3  O   UNL     1     -11.751  16.313  63.598  1.00  0.00    -0.860 OA 
HETATM    4  C   UNL     1     -10.572  16.820  65.644  1.00  0.00    -0.246 C  
ENDROOT
BRANCH   4   5
HETATM    5  S   UNL     1      -9.565  15.844  66.832  1.00  0.00    -0.238 SA 
BRANCH   5   6
HETATM    6  C   UNL     1     -10.780  15.503  68.030  1.00  0.00    -0.283 A  
HETATM    7  N   UNL     1     -11.517  16.467  68.534  1.00  0.00    -0.298 NA 
HETATM    8  N   UNL     1     -12.264  15.938  69.540  1.00  0.00    -0.210 NA 
HETATM    9  C   UNL     1     -11.958  14.662  69.638  1.00  0.00    -0.323 A  
HETATM   10  N   UNL     1     -11.166  14.267  68.558  1.00  0.00    -0.253 NA 
HETATM   11 BR   UNL     1     -12.352  13.722  71.221  1.00  0.00    -0.321 Br 
BRANCH  10  12
HETATM   12  C   UNL     1     -10.776  12.922  68.218  1.00  0.00    -0.244 A  
HETATM   13  C   UNL     1     -11.769  12.003  67.875  1.00  0.00    -0.393 A  
HETATM   14  C   UNL     1     -11.434  10.743  67.386  1.00  0.00    -0.113 A  
HETATM   15  C   UNL     1     -10.106  10.354  67.159  1.00  0.00    -0.254 A  
HETATM   16  C   UNL     1      -7.718  10.885  67.419  1.00  0.00    -0.108 A  
HETATM   17  C   UNL     1      -9.078  11.246  67.567  1.00  0.00    -0.151 A  
HETATM   18  C   UNL     1      -6.676  11.709  67.837  1.00  0.00    -0.066 A  
HETATM   19  C   UNL     1      -9.397  12.514  68.152  1.00  0.00    -0.210 A  
HETATM   20  C   UNL     1      -8.305  13.260  68.678  1.00  0.00     0.004 A  
HETATM   21  C   UNL     1      -6.971  12.887  68.491  1.00  0.00    -0.098 A  
BRANCH  15  22
HETATM   22  C   UNL     1      -9.873   8.979  66.542  1.00  0.00    -0.338 C  
HETATM   23  C   UNL     1      -9.165   7.930  67.382  1.00  0.00    -0.160 C  
HETATM   24  C   UNL     1     -10.594   7.737  67.005  1.00  0.00    -0.396 C  
ENDBRANCH  15  22
ENDBRANCH  10  12
ENDBRANCH   5   6
ENDBRANCH   4   5
TORSDOF 4
ENDMDL
MODEL      130
REMARK 921   NORMALIZED FREE ENERGY PREDICTED BY IDOCK:   -4.58 KCAL/MOL
REMARK 922        TOTAL FREE ENERGY PREDICTED BY IDOCK:   -6.53 KCAL/MOL
REMARK 923 INTER-LIGAND FREE ENERGY PREDICTED BY IDOCK:   -5.46 KCAL/MOL
REMARK 924 INTRA-LIGAND FREE ENERGY PREDICTED BY IDOCK:   -1.07 KCAL/MOL
REMARK 927      BINDING AFFINITY PREDICTED BY RF-SCORE:    0.00 PKD
ROOT
HETATM    1  O   UNL     1      -8.341   8.053  62.709  1.00  0.00    -0.145 OA 
HETATM    2  C   UNL     1      -7.474   8.541  63.629  1.00  0.00    -0.115 C  
HETATM    3  O   UNL     1      -6.490   7.914  63.975  1.00  0.00    -0.060 OA 
HETATM    4  C   UNL     1      -7.787   9.945  64.121  1.00  0.00    -0.142 C  
ENDROOT
BRANCH   4   5
HETATM    5  S   UNL     1      -9.577  10.348  64.000  1.00  0.00    -0.316 SA 
BRANCH   5   6
HETATM    6  C   UNL     1      -9.994  10.322  65.688  1.00  0.00    -0.280 A  
HETATM    7  N   UNL     1     -10.299   9.194  66.289  1.00  0.00    -0.193 NA 
HETATM    8  N   UNL     1     -10.724   9.492  67.546  1.00  0.00    -0.281 NA 
HETATM    9  C   UNL     1     -10.681  10.799  67.684  1.00  0.00    -0.258 A  
HETATM   10  N   UNL     1     -10.020  11.382  66.601  1.00  0.00    -0.203 NA 
HETATM   11 BR   UNL     1     -11.679  11.631  69.045  1.00  0.00    -0.409 Br 
BRANCH  10  12
HETATM   12  C   UNL     1      -9.621  12.760  66.470  1.00  0.00    -0.257 A  
HETATM   13  C   UNL     1     -10.486  13.650  65.831  1.00  0.00    -0.297 A  
HETATM   14  C   UNL     1     -10.221  15.017  65.821  1.00  0.00    -0.361 A  
HETATM   15  C   UNL     1      -9.120  15.573  66.489  1.00  0.00    -0.336 A  
HETATM   16  C   UNL     1      -7.028  15.179  67.721  1.00  0.00    -0.190 A  
HETATM   17  C   UNL     1      -8.189  14.681  67.084  1.00  0.00    -0.227 A  
HETATM   18  C   UNL     1      -6.069  14.343  68.287  1.00  0.00    -0.119 A  
HETATM   19  C   UNL     1      -8.397  13.264  67.034  1.00  0.00    -0.092 A  
HETATM   20  C   UNL     1      -7.329  12.452  67.511  1.00  0.00    -0.146 A  
HETATM   21  C   UNL     1      -6.207  12.977  68.158  1.00  0.00    -0.102 A  
BRANCH  15  22
HETATM   22  C   UNL     1      -8.984  17.092  66.473  1.00  0.00    -0.300 C  
HETATM   23  C   UNL     1     -10.256  17.923  66.437  1.00  0.00    -0.372 C  
HETATM   24  C   UNL     1      -9.375  17.965  67.640  1.00  0.00    -0.258 C  
ENDBRANCH  15  22
ENDBRANCH  10  12
ENDBRANCH   5   6
ENDBRANCH   4   5
TORSDOF 4
ENDMDL
MODEL      131
REMARK 921   NORMALIZED FREE ENERGY PREDICTED BY IDOCK:   -4.58 KCAL/MOL
REMARK 922        TOTAL FREE ENERGY PREDICTED BY IDOCK:   -6.53 KCAL/MOL
REMARK 923 INTER-LIGAND FREE ENERGY PREDICTED BY IDOCK:   -5.45 KCAL/MOL
REMARK 924 INTRA-LIGAND FREE ENERGY PREDICTED BY IDOCK:   -1.08 KCAL/MOL
REMARK 927      BINDING AFFINITY PREDICTED BY RF-SCORE:    0.00 PKD
ROOT
HETATM    1  O   UNL     1     -11.363   5.759  72.748  1.00  0.00    -0.285 OA 
HETATM    2  C   UNL     1     -10.758   6.808  73.357  1.00  0.00    -0.305 C  
HETATM    3  O   UNL     1     -10.192   6.685  74.428  1.00  0.00    -0.360 OA 
HETATM    4  C   UNL     1     -10.775   8.105  72.564  1.00  0.00    -0.349 C  
ENDROOT
BRANCH   4   5
HETATM    5  S   UNL     1     -12.201   8.201  71.408  1.00  0.00    -0.284 SA 
BRANCH   5   6
HETATM    6  C   UNL     1     -11.925   9.784  70.741  1.00  0.00    -0.299 A  
HETATM    7  N   UNL     1     -12.457  10.850  71.294  1.00  0.00    -0.387 NA 
HETATM    8  N   UNL     1     -12.201  11.912  70.485  1.00  0.00    -0.363 NA 
HETATM    9  C   UNL     1     -11.528  11.471  69.445  1.00  0.00    -0.309 A  
HETATM   10  N   UNL     1     -11.131  10.148  69.648  1.00  0.00    -0.249 NA 
HETATM   11 BR   UNL     1     -11.460  12.496  67.868  1.00  0.00    -0.393 Br 
BRANCH  10  12
HETATM   12  C   UNL     1     -10.236   9.377  68.823  1.00  0.00    -0.203 A  
HETATM   13  C   UNL     1     -10.739   8.777  67.667  1.00  0.00    -0.206 A  
HETATM   14  C   UNL     1      -9.886   8.159  66.756  1.00  0.00    -0.329 A  
HETATM   15  C   UNL     1      -8.493   8.154  66.918  1.00  0.00    -0.119 A  
HETATM   16  C   UNL     1      -6.572   8.664  68.367  1.00  0.00    -0.060 A  
HETATM   17  C   UNL     1      -7.965   8.694  68.120  1.00  0.00    -0.107 A  
HETATM   18  C   UNL     1      -6.011   9.147  69.546  1.00  0.00    -0.033 A  
HETATM   19  C   UNL     1      -8.831   9.260  69.112  1.00  0.00    -0.141 A  
HETATM   20  C   UNL     1      -8.225   9.621  70.348  1.00  0.00    -0.194 A  
HETATM   21  C   UNL     1      -6.842   9.603  70.549  1.00  0.00    -0.126 A  
BRANCH  15  22
HETATM   22  C   UNL     1      -7.661   7.516  65.809  1.00  0.00    -0.098 C  
HETATM   23  C   UNL     1      -8.248   6.326  65.070  1.00  0.00    -0.132 C  
HETATM   24  C   UNL     1      -8.026   7.612  64.348  1.00  0.00    -0.123 C  
ENDBRANCH  15  22
ENDBRANCH  10  12
ENDBRANCH   5   6
ENDBRANCH   4   5
TORSDOF 4
ENDMDL
MODEL      132
REMARK 921   NORMALIZED FREE ENERGY PREDICTED BY IDOCK:   -4.57 KCAL/MOL
REMARK 922        TOTAL FREE ENERGY PREDICTED BY IDOCK:   -6.52 KCAL/MOL
REMARK 923 INTER-LIGAND FREE ENERGY PREDICTED BY IDOCK:   -5.61 KCAL/MOL
REMARK 924 INTRA-LIGAND FREE ENERGY PREDICTED BY IDOCK:   -0.91 KCAL/MOL
REMARK 927      BINDING AFFINITY PREDICTED BY RF-SCORE:    0.00 PKD
ROOT
HETATM    1  O   UNL     1     -10.879  18.079  65.216  1.00  0.00    -0.627 OA 
HETATM    2  C   UNL     1     -10.660  18.605  66.446  1.00  0.00    -0.349 C  
HETATM    3  O   UNL     1     -10.978  19.750  66.716  1.00  0.00    -0.429 OA 
HETATM    4  C   UNL     1     -10.069  17.640  67.459  1.00  0.00    -0.337 C  
ENDROOT
BRANCH   4   5
HETATM    5  S   UNL     1      -9.090  16.301  66.665  1.00  0.00    -0.274 SA 
BRANCH   5   6
HETATM    6  C   UNL     1      -8.176  15.756  68.041  1.00  0.00    -0.140 A  
HETATM    7  N   UNL     1      -7.640  16.616  68.878  1.00  0.00    -0.231 NA 
HETATM    8  N   UNL     1      -6.870  15.920  69.755  1.00  0.00    -0.152 NA 
HETATM    9  C   UNL     1      -6.941  14.647  69.430  1.00  0.00    -0.163 A  
HETATM   10  N   UNL     1      -7.932  14.446  68.467  1.00  0.00    -0.139 NA 
HETATM   11 BR   UNL     1      -5.623  13.449  70.037  1.00  0.00    -0.125 Br 
BRANCH  10  12
HETATM   12  C   UNL     1      -8.428  13.181  67.987  1.00  0.00    -0.181 A  
HETATM   13  C   UNL     1      -7.615  12.419  67.146  1.00  0.00    -0.104 A  
HETATM   14  C   UNL     1      -7.980  11.124  66.786  1.00  0.00    -0.156 A  
HETATM   15  C   UNL     1      -9.134  10.503  67.285  1.00  0.00    -0.152 A  
HETATM   16  C   UNL     1     -11.220  10.730  68.568  1.00  0.00    -0.340 A  
HETATM   17  C   UNL     1     -10.011  11.283  68.084  1.00  0.00    -0.191 A  
HETATM   18  C   UNL     1     -12.129  11.466  69.324  1.00  0.00    -0.356 A  
HETATM   19  C   UNL     1      -9.699  12.646  68.398  1.00  0.00    -0.187 A  
HETATM   20  C   UNL     1     -10.715  13.390  69.062  1.00  0.00    -0.160 A  
HETATM   21  C   UNL     1     -11.888  12.806  69.550  1.00  0.00    -0.379 A  
BRANCH  15  22
HETATM   22  C   UNL     1      -9.380   9.053  66.881  1.00  0.00    -0.203 C  
HETATM   23  C   UNL     1      -8.203   8.246  66.361  1.00  0.00    -0.107 C  
HETATM   24  C   UNL     1      -8.839   7.879  67.659  1.00  0.00    -0.128 C  
ENDBRANCH  15  22
ENDBRANCH  10  12
ENDBRANCH   5   6
ENDBRANCH   4   5
TORSDOF 4
ENDMDL
MODEL      133
REMARK 921   NORMALIZED FREE ENERGY PREDICTED BY IDOCK:   -4.57 KCAL/MOL
REMARK 922        TOTAL FREE ENERGY PREDICTED BY IDOCK:   -6.52 KCAL/MOL
REMARK 923 INTER-LIGAND FREE ENERGY PREDICTED BY IDOCK:   -5.64 KCAL/MOL
REMARK 924 INTRA-LIGAND FREE ENERGY PREDICTED BY IDOCK:   -0.88 KCAL/MOL
REMARK 927      BINDING AFFINITY PREDICTED BY RF-SCORE:    0.00 PKD
ROOT
HETATM    1  O   UNL     1     -10.209  14.156  64.763  1.00  0.00    -0.419 OA 
HETATM    2  C   UNL     1      -9.947  14.532  66.038  1.00  0.00    -0.322 C  
HETATM    3  O   UNL     1      -8.955  15.180  66.322  1.00  0.00    -0.289 OA 
HETATM    4  C   UNL     1     -11.017  14.155  67.049  1.00  0.00    -0.300 C  
ENDROOT
BRANCH   4   5
HETATM    5  S   UNL     1     -11.978  12.675  66.534  1.00  0.00    -0.238 SA 
BRANCH   5   6
HETATM    6  C   UNL     1     -11.596  11.608  67.854  1.00  0.00    -0.298 A  
HETATM    7  N   UNL     1     -12.258  11.675  68.987  1.00  0.00    -0.339 NA 
HETATM    8  N   UNL     1     -11.653  10.841  69.874  1.00  0.00    -0.301 NA 
HETATM    9  C   UNL     1     -10.624  10.288  69.267  1.00  0.00    -0.230 A  
HETATM   10  N   UNL     1     -10.653  10.575  67.901  1.00  0.00    -0.213 NA 
HETATM   11 BR   UNL     1      -9.241   9.515  70.283  1.00  0.00    -0.292 Br 
BRANCH  10  12
HETATM   12  C   UNL     1      -9.806  10.013  66.881  1.00  0.00    -0.197 A  
HETATM   13  C   UNL     1      -8.962  10.865  66.167  1.00  0.00    -0.196 A  
HETATM   14  C   UNL     1      -8.012  10.353  65.287  1.00  0.00    -0.143 A  
HETATM   15  C   UNL     1      -7.815   8.975  65.113  1.00  0.00    -0.108 A  
HETATM   16  C   UNL     1      -8.598   6.693  65.592  1.00  0.00    -0.130 A  
HETATM   17  C   UNL     1      -8.709   8.092  65.774  1.00  0.00    -0.175 A  
HETATM   18  C   UNL     1      -9.474   5.790  66.189  1.00  0.00    -0.144 A  
HETATM   19  C   UNL     1      -9.749   8.599  66.619  1.00  0.00    -0.315 A  
HETATM   20  C   UNL     1     -10.692   7.647  67.101  1.00  0.00    -0.361 A  
HETATM   21  C   UNL     1     -10.538   6.269  66.924  1.00  0.00    -0.374 A  
BRANCH  15  22
HETATM   22  C   UNL     1      -6.688   8.539  64.183  1.00  0.00    -0.075 C  
HETATM   23  C   UNL     1      -7.046   8.155  62.758  1.00  0.00    -0.088 C  
HETATM   24  C   UNL     1      -6.220   9.370  63.013  1.00  0.00    -0.095 C  
ENDBRANCH  15  22
ENDBRANCH  10  12
ENDBRANCH   5   6
ENDBRANCH   4   5
TORSDOF 4
ENDMDL
MODEL      134
REMARK 921   NORMALIZED FREE ENERGY PREDICTED BY IDOCK:   -4.56 KCAL/MOL
REMARK 922        TOTAL FREE ENERGY PREDICTED BY IDOCK:   -6.51 KCAL/MOL
REMARK 923 INTER-LIGAND FREE ENERGY PREDICTED BY IDOCK:   -5.30 KCAL/MOL
REMARK 924 INTRA-LIGAND FREE ENERGY PREDICTED BY IDOCK:   -1.21 KCAL/MOL
REMARK 927      BINDING AFFINITY PREDICTED BY RF-SCORE:    0.00 PKD
ROOT
HETATM    1  O   UNL     1      -7.436   9.968  70.590  1.00  0.00    -0.302 OA 
HETATM    2  C   UNL     1      -6.531   9.789  69.597  1.00  0.00    -0.049 C  
HETATM    3  O   UNL     1      -5.745   8.858  69.609  1.00  0.00    -0.033 OA 
HETATM    4  C   UNL     1      -6.632  10.784  68.452  1.00  0.00    -0.055 C  
ENDROOT
BRANCH   4   5
HETATM    5  S   UNL     1      -7.357  12.389  68.980  1.00  0.00     0.106 SA 
BRANCH   5   6
HETATM    6  C   UNL     1      -8.518  12.615  67.705  1.00  0.00    -0.173 A  
HETATM    7  N   UNL     1      -8.344  13.544  66.792  1.00  0.00     0.015 NA 
HETATM    8  N   UNL     1      -9.465  13.590  66.024  1.00  0.00    -0.156 NA 
HETATM    9  C   UNL     1     -10.308  12.695  66.491  1.00  0.00    -0.242 A  
HETATM   10  N   UNL     1      -9.682  11.885  67.440  1.00  0.00    -0.183 NA 
HETATM   11 BR   UNL     1     -12.138  12.819  66.067  1.00  0.00    -0.388 Br 
BRANCH  10  12
HETATM   12  C   UNL     1     -10.216  10.692  68.047  1.00  0.00    -0.175 A  
HETATM   13  C   UNL     1      -9.817   9.450  67.548  1.00  0.00    -0.220 A  
HETATM   14  C   UNL     1     -10.177   8.273  68.199  1.00  0.00    -0.255 A  
HETATM   15  C   UNL     1     -10.898   8.270  69.401  1.00  0.00    -0.095 A  
HETATM   16  C   UNL     1     -12.158   9.571  71.066  1.00  0.00    -0.398 A  
HETATM   17  C   UNL     1     -11.375   9.516  69.889  1.00  0.00    -0.161 A  
HETATM   18  C   UNL     1     -12.678  10.764  71.562  1.00  0.00    -0.536 A  
HETATM   19  C   UNL     1     -11.089  10.734  69.190  1.00  0.00    -0.304 A  
HETATM   20  C   UNL     1     -11.748  11.903  69.664  1.00  0.00    -0.413 A  
HETATM   21  C   UNL     1     -12.494  11.928  70.845  1.00  0.00    -0.397 A  
BRANCH  15  22
HETATM   22  C   UNL     1     -11.158   6.919  70.060  1.00  0.00    -0.344 C  
HETATM   23  C   UNL     1     -10.172   5.794  69.796  1.00  0.00    -0.303 C  
HETATM   24  C   UNL     1     -10.298   6.365  71.168  1.00  0.00    -0.244 C  
ENDBRANCH  15  22
ENDBRANCH  10  12
ENDBRANCH   5   6
ENDBRANCH   4   5
TORSDOF 4
ENDMDL
MODEL      135
REMARK 921   NORMALIZED FREE ENERGY PREDICTED BY IDOCK:   -4.54 KCAL/MOL
REMARK 922        TOTAL FREE ENERGY PREDICTED BY IDOCK:   -6.49 KCAL/MOL
REMARK 923 INTER-LIGAND FREE ENERGY PREDICTED BY IDOCK:   -5.73 KCAL/MOL
REMARK 924 INTRA-LIGAND FREE ENERGY PREDICTED BY IDOCK:   -0.76 KCAL/MOL
REMARK 927      BINDING AFFINITY PREDICTED BY RF-SCORE:    0.00 PKD
ROOT
HETATM    1  O   UNL     1     -11.601   7.604  71.939  1.00  0.00    -0.262 OA 
HETATM    2  C   UNL     1     -10.374   7.973  72.382  1.00  0.00    -0.289 C  
HETATM    3  O   UNL     1     -10.107   8.004  73.570  1.00  0.00    -0.216 OA 
HETATM    4  C   UNL     1      -9.358   8.259  71.288  1.00  0.00    -0.173 C  
ENDROOT
BRANCH   4   5
HETATM    5  S   UNL     1     -10.150   8.801  69.720  1.00  0.00    -0.202 SA 
BRANCH   5   6
HETATM    6  C   UNL     1      -8.729   9.046  68.748  1.00  0.00    -0.136 A  
HETATM    7  N   UNL     1      -7.736   8.186  68.779  1.00  0.00    -0.105 NA 
HETATM    8  N   UNL     1      -6.713   8.703  68.047  1.00  0.00    -0.068 NA 
HETATM    9  C   UNL     1      -7.098   9.877  67.593  1.00  0.00    -0.087 A  
HETATM   10  N   UNL     1      -8.461  10.066  67.829  1.00  0.00    -0.114 NA 
HETATM   11 BR   UNL     1      -5.815  11.125  67.013  1.00  0.00    -0.094 Br 
BRANCH  10  12
HETATM   12  C   UNL     1      -9.285  11.138  67.330  1.00  0.00    -0.160 A  
HETATM   13  C   UNL     1      -9.688  12.140  68.215  1.00  0.00    -0.216 A  
HETATM   14  C   UNL     1     -10.346  13.276  67.751  1.00  0.00    -0.233 A  
HETATM   15  C   UNL     1     -10.587  13.500  66.388  1.00  0.00    -0.283 A  
HETATM   16  C   UNL     1     -10.523  12.607  64.097  1.00  0.00    -0.438 A  
HETATM   17  C   UNL     1     -10.250  12.463  65.478  1.00  0.00    -0.297 A  
HETATM   18  C   UNL     1     -10.245  11.604  63.173  1.00  0.00    -0.396 A  
HETATM   19  C   UNL     1      -9.648  11.248  65.942  1.00  0.00    -0.249 A  
HETATM   20  C   UNL     1      -9.503  10.209  64.981  1.00  0.00    -0.330 A  
HETATM   21  C   UNL     1      -9.757  10.392  63.619  1.00  0.00    -0.338 A  
BRANCH  15  22
HETATM   22  C   UNL     1     -11.243  14.821  66.000  1.00  0.00    -0.341 C  
HETATM   23  C   UNL     1     -10.660  16.103  66.570  1.00  0.00    -0.268 C  
HETATM   24  C   UNL     1     -10.578  15.838  65.105  1.00  0.00    -0.436 C  
ENDBRANCH  15  22
ENDBRANCH  10  12
ENDBRANCH   5   6
ENDBRANCH   4   5
TORSDOF 4
ENDMDL
MODEL      136
REMARK 921   NORMALIZED FREE ENERGY PREDICTED BY IDOCK:   -4.53 KCAL/MOL
REMARK 922        TOTAL FREE ENERGY PREDICTED BY IDOCK:   -6.47 KCAL/MOL
REMARK 923 INTER-LIGAND FREE ENERGY PREDICTED BY IDOCK:   -5.55 KCAL/MOL
REMARK 924 INTRA-LIGAND FREE ENERGY PREDICTED BY IDOCK:   -0.92 KCAL/MOL
REMARK 927      BINDING AFFINITY PREDICTED BY RF-SCORE:    0.00 PKD
ROOT
HETATM    1  O   UNL     1      -6.412   7.737  70.029  1.00  0.00    -0.033 OA 
HETATM    2  C   UNL     1      -7.472   6.941  69.747  1.00  0.00    -0.095 C  
HETATM    3  O   UNL     1      -7.420   6.091  68.876  1.00  0.00    -0.082 OA 
HETATM    4  C   UNL     1      -8.680   7.141  70.648  1.00  0.00    -0.148 C  
ENDROOT
BRANCH   4   5
HETATM    5  S   UNL     1      -8.758   8.839  71.350  1.00  0.00    -0.198 SA 
BRANCH   5   6
HETATM    6  C   UNL     1     -10.467   8.947  71.655  1.00  0.00    -0.338 A  
HETATM    7  N   UNL     1     -11.007   8.337  72.685  1.00  0.00    -0.353 NA 
HETATM    8  N   UNL     1     -12.357   8.470  72.588  1.00  0.00    -0.321 NA 
HETATM    9  C   UNL     1     -12.615   9.149  71.492  1.00  0.00    -0.343 A  
HETATM   10  N   UNL     1     -11.438   9.671  70.954  1.00  0.00    -0.323 NA 
HETATM   11 BR   UNL     1     -14.333   9.075  70.725  1.00  0.00     0.663 Br 
BRANCH  10  12
HETATM   12  C   UNL     1     -11.324  10.608  69.865  1.00  0.00    -0.313 A  
HETATM   13  C   UNL     1     -10.834  10.154  68.639  1.00  0.00    -0.272 A  
HETATM   14  C   UNL     1     -10.856  10.976  67.516  1.00  0.00    -0.314 A  
HETATM   15  C   UNL     1     -11.413  12.263  67.538  1.00  0.00    -0.414 A  
HETATM   16  C   UNL     1     -12.369  14.086  68.886  1.00  0.00    -0.106 A  
HETATM   17  C   UNL     1     -11.852  12.772  68.789  1.00  0.00    -0.346 A  
HETATM   18  C   UNL     1     -12.777  14.641  70.095  1.00  0.00    -0.268 A  
HETATM   19  C   UNL     1     -11.761  11.975  69.976  1.00  0.00    -0.346 A  
HETATM   20  C   UNL     1     -12.069  12.630  71.202  1.00  0.00     0.125 A  
HETATM   21  C   UNL     1     -12.603  13.921  71.259  1.00  0.00    -0.450 A  
BRANCH  15  22
HETATM   22  C   UNL     1     -11.451  13.033  66.222  1.00  0.00    -0.379 C  
HETATM   23  C   UNL     1     -11.440  12.238  64.928  1.00  0.00    -0.382 C  
HETATM   24  C   UNL     1     -12.647  13.029  65.301  1.00  0.00    -0.516 C  
ENDBRANCH  15  22
ENDBRANCH  10  12
ENDBRANCH   5   6
ENDBRANCH   4   5
TORSDOF 4
ENDMDL
MODEL      137
REMARK 921   NORMALIZED FREE ENERGY PREDICTED BY IDOCK:   -4.52 KCAL/MOL
REMARK 922        TOTAL FREE ENERGY PREDICTED BY IDOCK:   -6.46 KCAL/MOL
REMARK 923 INTER-LIGAND FREE ENERGY PREDICTED BY IDOCK:   -5.64 KCAL/MOL
REMARK 924 INTRA-LIGAND FREE ENERGY PREDICTED BY IDOCK:   -0.82 KCAL/MOL
REMARK 927      BINDING AFFINITY PREDICTED BY RF-SCORE:    0.00 PKD
ROOT
HETATM    1  O   UNL     1     -10.138  17.757  68.840  1.00  0.00    -0.360 OA 
HETATM    2  C   UNL     1     -10.750  16.710  69.447  1.00  0.00    -0.331 C  
HETATM    3  O   UNL     1     -11.287  16.827  70.533  1.00  0.00    -0.097 OA 
HETATM    4  C   UNL     1     -10.777  15.426  68.633  1.00  0.00    -0.246 C  
ENDROOT
BRANCH   4   5
HETATM    5  S   UNL     1      -9.381  15.321  67.441  1.00  0.00    -0.202 SA 
BRANCH   5   6
HETATM    6  C   UNL     1     -10.170  14.468  66.147  1.00  0.00    -0.305 A  
HETATM    7  N   UNL     1     -10.305  15.019  64.961  1.00  0.00    -0.385 NA 
HETATM    8  N   UNL     1     -11.081  14.197  64.206  1.00  0.00    -0.228 NA 
HETATM    9  C   UNL     1     -11.416  13.165  64.950  1.00  0.00    -0.309 A  
HETATM   10  N   UNL     1     -10.690  13.169  66.142  1.00  0.00    -0.276 NA 
HETATM   11 BR   UNL     1     -12.893  12.102  64.470  1.00  0.00     0.129 Br 
BRANCH  10  12
HETATM   12  C   UNL     1     -10.644  12.123  67.132  1.00  0.00    -0.226 A  
HETATM   13  C   UNL     1     -11.470  12.225  68.253  1.00  0.00    -0.367 A  
HETATM   14  C   UNL     1     -11.582  11.168  69.153  1.00  0.00    -0.393 A  
HETATM   15  C   UNL     1     -10.927   9.943  68.958  1.00  0.00    -0.223 A  
HETATM   16  C   UNL     1      -9.292   8.652  67.650  1.00  0.00    -0.157 A  
HETATM   17  C   UNL     1     -10.027   9.842  67.864  1.00  0.00    -0.190 A  
HETATM   18  C   UNL     1      -8.372   8.519  66.614  1.00  0.00    -0.112 A  
HETATM   19  C   UNL     1      -9.831  10.946  66.972  1.00  0.00    -0.214 A  
HETATM   20  C   UNL     1      -8.790  10.805  66.012  1.00  0.00    -0.192 A  
HETATM   21  C   UNL     1      -8.101   9.606  65.809  1.00  0.00    -0.113 A  
BRANCH  15  22
HETATM   22  C   UNL     1     -11.195   8.836  69.972  1.00  0.00    -0.113 C  
HETATM   23  C   UNL     1     -10.271   8.728  71.172  1.00  0.00    -0.316 C  
HETATM   24  C   UNL     1     -11.700   9.104  71.368  1.00  0.00    -0.413 C  
ENDBRANCH  15  22
ENDBRANCH  10  12
ENDBRANCH   5   6
ENDBRANCH   4   5
TORSDOF 4
ENDMDL
MODEL      138
REMARK 921   NORMALIZED FREE ENERGY PREDICTED BY IDOCK:   -4.48 KCAL/MOL
REMARK 922        TOTAL FREE ENERGY PREDICTED BY IDOCK:   -6.41 KCAL/MOL
REMARK 923 INTER-LIGAND FREE ENERGY PREDICTED BY IDOCK:   -5.35 KCAL/MOL
REMARK 924 INTRA-LIGAND FREE ENERGY PREDICTED BY IDOCK:   -1.06 KCAL/MOL
REMARK 927      BINDING AFFINITY PREDICTED BY RF-SCORE:    0.00 PKD
ROOT
HETATM    1  O   UNL     1      -5.798  12.655  70.854  1.00  0.00    -0.292 OA 
HETATM    2  C   UNL     1      -5.635  12.857  69.524  1.00  0.00    -0.089 C  
HETATM    3  O   UNL     1      -5.510  13.976  69.058  1.00  0.00    -0.082 OA 
HETATM    4  C   UNL     1      -5.541  11.589  68.691  1.00  0.00    -0.042 C  
ENDROOT
BRANCH   4   5
HETATM    5  S   UNL     1      -6.414  10.172  69.470  1.00  0.00    -0.064 SA 
BRANCH   5   6
HETATM    6  C   UNL     1      -7.450   9.709  68.152  1.00  0.00    -0.082 A  
HETATM    7  N   UNL     1      -7.178   8.651  67.421  1.00  0.00    -0.080 NA 
HETATM    8  N   UNL     1      -8.060   8.621  66.386  1.00  0.00    -0.098 NA 
HETATM    9  C   UNL     1      -8.846   9.670  66.499  1.00  0.00    -0.142 A  
HETATM   10  N   UNL     1      -8.647  10.298  67.729  1.00  0.00    -0.118 NA 
HETATM   11 BR   UNL     1      -9.817  10.278  65.005  1.00  0.00    -0.396 Br 
BRANCH  10  12
HETATM   12  C   UNL     1      -9.433  11.366  68.293  1.00  0.00    -0.187 A  
HETATM   13  C   UNL     1      -9.230  12.665  67.825  1.00  0.00    -0.195 A  
HETATM   14  C   UNL     1     -10.071  13.703  68.219  1.00  0.00    -0.240 A  
HETATM   15  C   UNL     1     -11.182  13.494  69.049  1.00  0.00    -0.314 A  
HETATM   16  C   UNL     1     -12.434  11.938  70.485  1.00  0.00    -0.301 A  
HETATM   17  C   UNL     1     -11.365  12.196  69.594  1.00  0.00    -0.223 A  
HETATM   18  C   UNL     1     -12.632  10.692  71.073  1.00  0.00    -0.516 A  
HETATM   19  C   UNL     1     -10.463  11.131  69.270  1.00  0.00    -0.183 A  
HETATM   20  C   UNL     1     -10.632   9.917  69.993  1.00  0.00    -0.335 A  
HETATM   21  C   UNL     1     -11.715   9.686  70.847  1.00  0.00    -0.412 A  
BRANCH  15  22
HETATM   22  C   UNL     1     -12.074  14.696  69.342  1.00  0.00    -0.317 C  
HETATM   23  C   UNL     1     -11.980  15.336  70.717  1.00  0.00    -0.384 C  
HETATM   24  C   UNL     1     -11.537  16.096  69.513  1.00  0.00    -0.254 C  
ENDBRANCH  15  22
ENDBRANCH  10  12
ENDBRANCH   5   6
ENDBRANCH   4   5
TORSDOF 4
ENDMDL
MODEL      139
REMARK 921   NORMALIZED FREE ENERGY PREDICTED BY IDOCK:   -4.44 KCAL/MOL
REMARK 922        TOTAL FREE ENERGY PREDICTED BY IDOCK:   -6.36 KCAL/MOL
REMARK 923 INTER-LIGAND FREE ENERGY PREDICTED BY IDOCK:   -6.18 KCAL/MOL
REMARK 924 INTRA-LIGAND FREE ENERGY PREDICTED BY IDOCK:   -0.18 KCAL/MOL
REMARK 927      BINDING AFFINITY PREDICTED BY RF-SCORE:    0.00 PKD
ROOT
HETATM    1  O   UNL     1     -12.068  15.218  71.761  1.00  0.00    -0.311 OA 
HETATM    2  C   UNL     1     -12.969  14.531  72.505  1.00  0.00    -0.414 C  
HETATM    3  O   UNL     1     -13.364  14.951  73.578  1.00  0.00    -0.496 OA 
HETATM    4  C   UNL     1     -13.494  13.258  71.861  1.00  0.00    -0.438 C  
ENDROOT
BRANCH   4   5
HETATM    5  S   UNL     1     -12.299  12.533  70.667  1.00  0.00    -0.174 SA 
BRANCH   5   6
HETATM    6  C   UNL     1     -12.430  10.856  71.110  1.00  0.00    -0.405 A  
HETATM    7  N   UNL     1     -13.502  10.402  71.720  1.00  0.00    -0.315 NA 
HETATM    8  N   UNL     1     -13.265   9.111  72.074  1.00  0.00    -0.405 NA 
HETATM    9  C   UNL     1     -12.047   8.804  71.684  1.00  0.00    -0.337 A  
HETATM   10  N   UNL     1     -11.529   9.813  70.869  1.00  0.00    -0.339 NA 
HETATM   11 BR   UNL     1     -11.160   7.331  72.449  1.00  0.00    -0.344 Br 
BRANCH  10  12
HETATM   12  C   UNL     1     -10.304   9.770  70.111  1.00  0.00    -0.282 A  
HETATM   13  C   UNL     1      -9.140   9.333  70.745  1.00  0.00    -0.306 A  
HETATM   14  C   UNL     1      -7.971   9.121  70.018  1.00  0.00    -0.113 A  
HETATM   15  C   UNL     1      -7.914   9.277  68.626  1.00  0.00    -0.100 A  
HETATM   16  C   UNL     1      -9.049  10.023  66.575  1.00  0.00    -0.172 A  
HETATM   17  C   UNL     1      -9.065   9.789  67.971  1.00  0.00    -0.127 A  
HETATM   18  C   UNL     1     -10.140  10.558  65.895  1.00  0.00    -0.323 A  
HETATM   19  C   UNL     1     -10.253  10.095  68.710  1.00  0.00    -0.200 A  
HETATM   20  C   UNL     1     -11.290  10.756  67.993  1.00  0.00    -0.378 A  
HETATM   21  C   UNL     1     -11.253  10.949  66.609  1.00  0.00    -0.060 A  
BRANCH  15  22
HETATM   22  C   UNL     1      -6.597   8.934  67.936  1.00  0.00    -0.061 C  
HETATM   23  C   UNL     1      -5.694   7.904  68.590  1.00  0.00    -0.028 C  
HETATM   24  C   UNL     1      -6.335   7.601  67.279  1.00  0.00    -0.054 C  
ENDBRANCH  15  22
ENDBRANCH  10  12
ENDBRANCH   5   6
ENDBRANCH   4   5
TORSDOF 4
ENDMDL
MODEL      140
REMARK 921   NORMALIZED FREE ENERGY PREDICTED BY IDOCK:   -4.44 KCAL/MOL
REMARK 922        TOTAL FREE ENERGY PREDICTED BY IDOCK:   -6.36 KCAL/MOL
REMARK 923 INTER-LIGAND FREE ENERGY PREDICTED BY IDOCK:   -5.11 KCAL/MOL
REMARK 924 INTRA-LIGAND FREE ENERGY PREDICTED BY IDOCK:   -1.25 KCAL/MOL
REMARK 927      BINDING AFFINITY PREDICTED BY RF-SCORE:    0.00 PKD
ROOT
HETATM    1  O   UNL     1      -8.257  10.392  64.226  1.00  0.00    -0.164 OA 
HETATM    2  C   UNL     1      -7.006   9.927  64.465  1.00  0.00    -0.131 C  
HETATM    3  O   UNL     1      -6.040  10.352  63.858  1.00  0.00    -0.137 OA 
HETATM    4  C   UNL     1      -6.906   8.909  65.590  1.00  0.00    -0.076 C  
ENDROOT
BRANCH   4   5
HETATM    5  S   UNL     1      -8.472   7.977  65.834  1.00  0.00    -0.149 SA 
BRANCH   5   6
HETATM    6  C   UNL     1      -8.777   8.358  67.503  1.00  0.00    -0.136 A  
HETATM    7  N   UNL     1      -8.414   7.532  68.459  1.00  0.00    -0.129 NA 
HETATM    8  N   UNL     1      -8.909   8.010  69.633  1.00  0.00    -0.140 NA 
HETATM    9  C   UNL     1      -9.575   9.113  69.368  1.00  0.00    -0.165 A  
HETATM   10  N   UNL     1      -9.353   9.511  68.048  1.00  0.00    -0.133 NA 
HETATM   11 BR   UNL     1     -10.838   9.764  70.602  1.00  0.00    -0.408 Br 
BRANCH  10  12
HETATM   12  C   UNL     1      -9.763  10.750  67.437  1.00  0.00    -0.171 A  
HETATM   13  C   UNL     1     -11.024  10.819  66.843  1.00  0.00    -0.255 A  
HETATM   14  C   UNL     1     -11.528  12.032  66.383  1.00  0.00    -0.417 A  
HETATM   15  C   UNL     1     -10.835  13.241  66.540  1.00  0.00    -0.288 A  
HETATM   16  C   UNL     1      -8.749  14.364  67.204  1.00  0.00    -0.243 A  
HETATM   17  C   UNL     1      -9.521  13.185  67.076  1.00  0.00    -0.242 A  
HETATM   18  C   UNL     1      -7.445  14.353  67.689  1.00  0.00    -0.191 A  
HETATM   19  C   UNL     1      -8.947  11.935  67.478  1.00  0.00    -0.171 A  
HETATM   20  C   UNL     1      -7.572  11.961  67.846  1.00  0.00    -0.128 A  
HETATM   21  C   UNL     1      -6.846  13.146  67.987  1.00  0.00    -0.118 A  
BRANCH  15  22
HETATM   22  C   UNL     1     -11.530  14.514  66.069  1.00  0.00    -0.348 C  
HETATM   23  C   UNL     1     -11.038  15.165  64.787  1.00  0.00    -0.395 C  
HETATM   24  C   UNL     1     -12.403  14.568  64.839  1.00  0.00    -0.378 C  
ENDBRANCH  15  22
ENDBRANCH  10  12
ENDBRANCH   5   6
ENDBRANCH   4   5
TORSDOF 4
ENDMDL
MODEL      141
REMARK 921   NORMALIZED FREE ENERGY PREDICTED BY IDOCK:   -4.43 KCAL/MOL
REMARK 922        TOTAL FREE ENERGY PREDICTED BY IDOCK:   -6.35 KCAL/MOL
REMARK 923 INTER-LIGAND FREE ENERGY PREDICTED BY IDOCK:   -5.48 KCAL/MOL
REMARK 924 INTRA-LIGAND FREE ENERGY PREDICTED BY IDOCK:   -0.87 KCAL/MOL
REMARK 927      BINDING AFFINITY PREDICTED BY RF-SCORE:    0.00 PKD
ROOT
HETATM    1  O   UNL     1     -11.269   3.852  64.274  1.00  0.00    -0.335 OA 
HETATM    2  C   UNL     1      -9.971   3.645  63.942  1.00  0.00    -0.186 C  
HETATM    3  O   UNL     1      -9.636   2.721  63.223  1.00  0.00    -0.094 OA 
HETATM    4  C   UNL     1      -9.001   4.690  64.468  1.00  0.00    -0.147 C  
ENDROOT
BRANCH   4   5
HETATM    5  S   UNL     1      -9.610   5.503  66.001  1.00  0.00    -0.059 SA 
BRANCH   5   6
HETATM    6  C   UNL     1      -8.567   6.895  66.022  1.00  0.00    -0.145 A  
HETATM    7  N   UNL     1      -7.616   7.039  65.127  1.00  0.00    -0.094 NA 
HETATM    8  N   UNL     1      -6.876   8.125  65.475  1.00  0.00    -0.062 NA 
HETATM    9  C   UNL     1      -7.382   8.617  66.585  1.00  0.00    -0.081 A  
HETATM   10  N   UNL     1      -8.601   8.002  66.878  1.00  0.00    -0.126 NA 
HETATM   11 BR   UNL     1      -6.344   9.757  67.664  1.00  0.00    -0.060 Br 
BRANCH  10  12
HETATM   12  C   UNL     1      -9.537   8.383  67.905  1.00  0.00    -0.156 A  
HETATM   13  C   UNL     1      -9.648   7.580  69.041  1.00  0.00    -0.153 A  
HETATM   14  C   UNL     1     -10.417   7.988  70.129  1.00  0.00    -0.225 A  
HETATM   15  C   UNL     1     -11.064   9.231  70.166  1.00  0.00    -0.260 A  
HETATM   16  C   UNL     1     -11.709  11.270  68.949  1.00  0.00    -0.409 A  
HETATM   17  C   UNL     1     -11.025  10.032  68.994  1.00  0.00    -0.249 A  
HETATM   18  C   UNL     1     -11.729  12.072  67.812  1.00  0.00    -0.379 A  
HETATM   19  C   UNL     1     -10.310   9.595  67.831  1.00  0.00    -0.271 A  
HETATM   20  C   UNL     1     -10.468  10.385  66.658  1.00  0.00    -0.279 A  
HETATM   21  C   UNL     1     -11.129  11.617  66.656  1.00  0.00    -0.364 A  
BRANCH  15  22
HETATM   22  C   UNL     1     -11.807   9.597  71.446  1.00  0.00    -0.484 C  
HETATM   23  C   UNL     1     -13.293   9.289  71.523  1.00  0.00    -0.436 C  
HETATM   24  C   UNL     1     -12.339   8.566  72.412  1.00  0.00    -0.424 C  
ENDBRANCH  15  22
ENDBRANCH  10  12
ENDBRANCH   5   6
ENDBRANCH   4   5
TORSDOF 4
ENDMDL
MODEL      142
REMARK 921   NORMALIZED FREE ENERGY PREDICTED BY IDOCK:   -4.42 KCAL/MOL
REMARK 922        TOTAL FREE ENERGY PREDICTED BY IDOCK:   -6.34 KCAL/MOL
REMARK 923 INTER-LIGAND FREE ENERGY PREDICTED BY IDOCK:   -5.52 KCAL/MOL
REMARK 924 INTRA-LIGAND FREE ENERGY PREDICTED BY IDOCK:   -0.82 KCAL/MOL
REMARK 927      BINDING AFFINITY PREDICTED BY RF-SCORE:    0.00 PKD
ROOT
HETATM    1  O   UNL     1     -12.725  13.778  63.147  1.00  0.00    -0.743 OA 
HETATM    2  C   UNL     1     -12.498  12.481  63.467  1.00  0.00    -0.459 C  
HETATM    3  O   UNL     1     -13.359  11.630  63.330  1.00  0.00    -0.445 OA 
HETATM    4  C   UNL     1     -11.082  12.173  63.925  1.00  0.00    -0.404 C  
ENDROOT
BRANCH   4   5
HETATM    5  S   UNL     1     -10.255  13.633  64.676  1.00  0.00    -0.170 SA 
BRANCH   5   6
HETATM    6  C   UNL     1     -11.075  13.673  66.209  1.00  0.00    -0.301 A  
HETATM    7  N   UNL     1     -12.298  14.145  66.308  1.00  0.00    -0.458 NA 
HETATM    8  N   UNL     1     -12.622  14.193  67.627  1.00  0.00     0.199 NA 
HETATM    9  C   UNL     1     -11.585  13.759  68.311  1.00  0.00    -0.338 A  
HETATM   10  N   UNL     1     -10.632  13.208  67.452  1.00  0.00    -0.241 NA 
HETATM   11 BR   UNL     1     -11.429  14.174  70.140  1.00  0.00    -0.169 Br 
BRANCH  10  12
HETATM   12  C   UNL     1      -9.447  12.479  67.828  1.00  0.00    -0.197 A  
HETATM   13  C   UNL     1      -8.297  13.195  68.162  1.00  0.00    -0.161 A  
HETATM   14  C   UNL     1      -7.181  12.547  68.685  1.00  0.00    -0.103 A  
HETATM   15  C   UNL     1      -7.170  11.170  68.953  1.00  0.00    -0.106 A  
HETATM   16  C   UNL     1      -8.325   9.008  68.745  1.00  0.00    -0.122 A  
HETATM   17  C   UNL     1      -8.302  10.410  68.555  1.00  0.00    -0.124 A  
HETATM   18  C   UNL     1      -9.396   8.217  68.338  1.00  0.00    -0.136 A  
HETATM   19  C   UNL     1      -9.429  11.044  67.937  1.00  0.00    -0.170 A  
HETATM   20  C   UNL     1     -10.437  10.179  67.426  1.00  0.00    -0.310 A  
HETATM   21  C   UNL     1     -10.443   8.800  67.654  1.00  0.00    -0.310 A  
BRANCH  15  22
HETATM   22  C   UNL     1      -5.916  10.592  69.602  1.00  0.00    -0.054 C  
HETATM   23  C   UNL     1      -5.302  11.348  70.767  1.00  0.00    -0.131 C  
HETATM   24  C   UNL     1      -5.906  10.004  70.991  1.00  0.00    -0.073 C  
ENDBRANCH  15  22
ENDBRANCH  10  12
ENDBRANCH   5   6
ENDBRANCH   4   5
TORSDOF 4
ENDMDL
MODEL      143
REMARK 921   NORMALIZED FREE ENERGY PREDICTED BY IDOCK:   -4.42 KCAL/MOL
REMARK 922        TOTAL FREE ENERGY PREDICTED BY IDOCK:   -6.34 KCAL/MOL
REMARK 923 INTER-LIGAND FREE ENERGY PREDICTED BY IDOCK:   -5.27 KCAL/MOL
REMARK 924 INTRA-LIGAND FREE ENERGY PREDICTED BY IDOCK:   -1.07 KCAL/MOL
REMARK 927      BINDING AFFINITY PREDICTED BY RF-SCORE:    0.00 PKD
ROOT
HETATM    1  O   UNL     1      -5.952   8.078  71.766  1.00  0.00    -0.035 OA 
HETATM    2  C   UNL     1      -7.156   8.688  71.892  1.00  0.00    -0.068 C  
HETATM    3  O   UNL     1      -7.767   8.681  72.946  1.00  0.00    -0.355 OA 
HETATM    4  C   UNL     1      -7.628   9.433  70.655  1.00  0.00    -0.144 C  
ENDROOT
BRANCH   4   5
HETATM    5  S   UNL     1      -6.926   8.737  69.106  1.00  0.00    -0.060 SA 
BRANCH   5   6
HETATM    6  C   UNL     1      -8.122   7.520  68.767  1.00  0.00    -0.128 A  
HETATM    7  N   UNL     1      -8.099   6.362  69.389  1.00  0.00    -0.116 NA 
HETATM    8  N   UNL     1      -9.045   5.566  68.824  1.00  0.00    -0.116 NA 
HETATM    9  C   UNL     1      -9.620   6.250  67.858  1.00  0.00    -0.118 A  
HETATM   10  N   UNL     1      -9.221   7.587  67.905  1.00  0.00    -0.136 NA 
HETATM   11 BR   UNL     1     -10.573   5.348  66.509  1.00  0.00    -0.291 Br 
BRANCH  10  12
HETATM   12  C   UNL     1      -9.759   8.678  67.132  1.00  0.00    -0.190 A  
HETATM   13  C   UNL     1     -10.711   9.512  67.722  1.00  0.00    -0.302 A  
HETATM   14  C   UNL     1     -11.140  10.669  67.077  1.00  0.00    -0.217 A  
HETATM   15  C   UNL     1     -10.608  11.085  65.849  1.00  0.00    -0.270 A  
HETATM   16  C   UNL     1      -9.167  10.555  63.927  1.00  0.00    -0.287 A  
HETATM   17  C   UNL     1      -9.692  10.217  65.197  1.00  0.00    -0.364 A  
HETATM   18  C   UNL     1      -8.295   9.719  63.234  1.00  0.00    -0.169 A  
HETATM   19  C   UNL     1      -9.300   8.979  65.802  1.00  0.00    -0.302 A  
HETATM   20  C   UNL     1      -8.511   8.107  64.999  1.00  0.00    -0.117 A  
HETATM   21  C   UNL     1      -7.987   8.482  63.759  1.00  0.00    -0.161 A  
BRANCH  15  22
HETATM   22  C   UNL     1     -11.102  12.414  65.285  1.00  0.00    -0.342 C  
HETATM   23  C   UNL     1     -12.430  12.428  64.549  1.00  0.00    -0.519 C  
HETATM   24  C   UNL     1     -12.292  13.154  65.845  1.00  0.00    -0.462 C  
ENDBRANCH  15  22
ENDBRANCH  10  12
ENDBRANCH   5   6
ENDBRANCH   4   5
TORSDOF 4
ENDMDL
MODEL      144
REMARK 921   NORMALIZED FREE ENERGY PREDICTED BY IDOCK:   -4.42 KCAL/MOL
REMARK 922        TOTAL FREE ENERGY PREDICTED BY IDOCK:   -6.33 KCAL/MOL
REMARK 923 INTER-LIGAND FREE ENERGY PREDICTED BY IDOCK:   -5.46 KCAL/MOL
REMARK 924 INTRA-LIGAND FREE ENERGY PREDICTED BY IDOCK:   -0.87 KCAL/MOL
REMARK 927      BINDING AFFINITY PREDICTED BY RF-SCORE:    0.00 PKD
ROOT
HETATM    1  O   UNL     1      -8.757   6.748  66.319  1.00  0.00    -0.136 OA 
HETATM    2  C   UNL     1      -9.926   6.331  66.863  1.00  0.00    -0.169 C  
HETATM    3  O   UNL     1     -10.322   5.187  66.727  1.00  0.00    -0.229 OA 
HETATM    4  C   UNL     1     -10.646   7.370  67.706  1.00  0.00    -0.210 C  
ENDROOT
BRANCH   4   5
HETATM    5  S   UNL     1     -10.243   9.090  67.196  1.00  0.00    -0.275 SA 
BRANCH   5   6
HETATM    6  C   UNL     1     -10.722   9.939  68.636  1.00  0.00    -0.226 A  
HETATM    7  N   UNL     1     -11.078   9.283  69.718  1.00  0.00    -0.197 NA 
HETATM    8  N   UNL     1     -11.540  10.188  70.621  1.00  0.00    -0.318 NA 
HETATM    9  C   UNL     1     -11.468  11.380  70.069  1.00  0.00    -0.247 A  
HETATM   10  N   UNL     1     -10.753  11.318  68.871  1.00  0.00    -0.199 NA 
HETATM   11 BR   UNL     1     -12.492  12.798  70.762  1.00  0.00    -0.264 Br 
BRANCH  10  12
HETATM   12  C   UNL     1     -10.313  12.430  68.068  1.00  0.00    -0.216 A  
HETATM   13  C   UNL     1     -11.265  13.158  67.352  1.00  0.00    -0.319 A  
HETATM   14  C   UNL     1     -10.915  14.333  66.693  1.00  0.00    -0.310 A  
HETATM   15  C   UNL     1      -9.622  14.872  66.755  1.00  0.00    -0.265 A  
HETATM   16  C   UNL     1      -7.284  14.576  67.462  1.00  0.00    -0.210 A  
HETATM   17  C   UNL     1      -8.621  14.113  67.416  1.00  0.00    -0.219 A  
HETATM   18  C   UNL     1      -6.262  13.849  68.066  1.00  0.00    -0.144 A  
HETATM   19  C   UNL     1      -8.939  12.858  68.031  1.00  0.00    -0.196 A  
HETATM   20  C   UNL     1      -7.840  12.097  68.520  1.00  0.00    -0.122 A  
HETATM   21  C   UNL     1      -6.535  12.596  68.574  1.00  0.00    -0.074 A  
BRANCH  15  22
HETATM   22  C   UNL     1      -9.384  16.208  66.058  1.00  0.00    -0.368 C  
HETATM   23  C   UNL     1     -10.524  17.212  66.031  1.00  0.00    -0.271 C  
HETATM   24  C   UNL     1      -9.285  17.517  66.801  1.00  0.00    -0.277 C  
ENDBRANCH  15  22
ENDBRANCH  10  12
ENDBRANCH   5   6
ENDBRANCH   4   5
TORSDOF 4
ENDMDL
MODEL      145
REMARK 921   NORMALIZED FREE ENERGY PREDICTED BY IDOCK:   -4.42 KCAL/MOL
REMARK 922        TOTAL FREE ENERGY PREDICTED BY IDOCK:   -6.33 KCAL/MOL
REMARK 923 INTER-LIGAND FREE ENERGY PREDICTED BY IDOCK:   -5.31 KCAL/MOL
REMARK 924 INTRA-LIGAND FREE ENERGY PREDICTED BY IDOCK:   -1.02 KCAL/MOL
REMARK 927      BINDING AFFINITY PREDICTED BY RF-SCORE:    0.00 PKD
ROOT
HETATM    1  O   UNL     1      -6.652  12.358  66.809  1.00  0.00    -0.045 OA 
HETATM    2  C   UNL     1      -6.061  12.892  67.906  1.00  0.00    -0.125 C  
HETATM    3  O   UNL     1      -5.533  13.990  67.875  1.00  0.00    -0.154 OA 
HETATM    4  C   UNL     1      -6.182  12.057  69.169  1.00  0.00    -0.087 C  
ENDROOT
BRANCH   4   5
HETATM    5  S   UNL     1      -6.374  10.264  68.809  1.00  0.00    -0.047 SA 
BRANCH   5   6
HETATM    6  C   UNL     1      -7.751   9.914  69.813  1.00  0.00    -0.155 A  
HETATM    7  N   UNL     1      -7.596   9.420  71.021  1.00  0.00    -0.311 NA 
HETATM    8  N   UNL     1      -8.828   9.109  71.505  1.00  0.00    -0.337 NA 
HETATM    9  C   UNL     1      -9.711   9.409  70.578  1.00  0.00    -0.271 A  
HETATM   10  N   UNL     1      -9.107  10.128  69.545  1.00  0.00    -0.207 NA 
HETATM   11 BR   UNL     1     -11.429   8.642  70.637  1.00  0.00    -0.216 Br 
BRANCH  10  12
HETATM   12  C   UNL     1      -9.768  10.780  68.443  1.00  0.00    -0.174 A  
HETATM   13  C   UNL     1     -10.534  11.919  68.700  1.00  0.00    -0.231 A  
HETATM   14  C   UNL     1     -11.058  12.675  67.655  1.00  0.00    -0.303 A  
HETATM   15  C   UNL     1     -10.804  12.373  66.310  1.00  0.00    -0.299 A  
HETATM   16  C   UNL     1      -9.853  10.792  64.683  1.00  0.00    -0.366 A  
HETATM   17  C   UNL     1     -10.089  11.180  66.023  1.00  0.00    -0.292 A  
HETATM   18  C   UNL     1      -9.189   9.614  64.353  1.00  0.00    -0.258 A  
HETATM   19  C   UNL     1      -9.612  10.340  67.082  1.00  0.00    -0.199 A  
HETATM   20  C   UNL     1      -9.055   9.089  66.693  1.00  0.00    -0.196 A  
HETATM   21  C   UNL     1      -8.812   8.748  65.359  1.00  0.00    -0.221 A  
BRANCH  15  22
HETATM   22  C   UNL     1     -11.367  13.326  65.260  1.00  0.00    -0.317 C  
HETATM   23  C   UNL     1     -11.419  14.807  65.593  1.00  0.00    -0.327 C  
HETATM   24  C   UNL     1     -10.515  14.321  64.511  1.00  0.00    -0.172 C  
ENDBRANCH  15  22
ENDBRANCH  10  12
ENDBRANCH   5   6
ENDBRANCH   4   5
TORSDOF 4
ENDMDL
MODEL      146
REMARK 921   NORMALIZED FREE ENERGY PREDICTED BY IDOCK:   -4.40 KCAL/MOL
REMARK 922        TOTAL FREE ENERGY PREDICTED BY IDOCK:   -6.31 KCAL/MOL
REMARK 923 INTER-LIGAND FREE ENERGY PREDICTED BY IDOCK:   -5.12 KCAL/MOL
REMARK 924 INTRA-LIGAND FREE ENERGY PREDICTED BY IDOCK:   -1.19 KCAL/MOL
REMARK 927      BINDING AFFINITY PREDICTED BY RF-SCORE:    0.00 PKD
ROOT
HETATM    1  O   UNL     1      -9.907   4.424  68.115  1.00  0.00    -0.139 OA 
HETATM    2  C   UNL     1     -10.080   5.122  66.966  1.00  0.00    -0.217 C  
HETATM    3  O   UNL     1      -9.771   4.656  65.884  1.00  0.00    -0.166 OA 
HETATM    4  C   UNL     1     -10.753   6.474  67.134  1.00  0.00    -0.368 C  
ENDROOT
BRANCH   4   5
HETATM    5  S   UNL     1     -10.479   7.191  68.805  1.00  0.00    -0.194 SA 
BRANCH   5   6
HETATM    6  C   UNL     1      -8.898   7.877  68.569  1.00  0.00    -0.134 A  
HETATM    7  N   UNL     1      -7.820   7.238  68.967  1.00  0.00    -0.115 NA 
HETATM    8  N   UNL     1      -6.757   8.067  68.794  1.00  0.00    -0.056 NA 
HETATM    9  C   UNL     1      -7.207   9.202  68.304  1.00  0.00    -0.078 A  
HETATM   10  N   UNL     1      -8.548   9.075  67.936  1.00  0.00    -0.125 NA 
HETATM   11 BR   UNL     1      -6.161  10.761  68.435  1.00  0.00    -0.046 Br 
BRANCH  10  12
HETATM   12  C   UNL     1      -9.340  10.034  67.209  1.00  0.00    -0.148 A  
HETATM   13  C   UNL     1      -9.337   9.985  65.814  1.00  0.00    -0.241 A  
HETATM   14  C   UNL     1     -10.206  10.780  65.072  1.00  0.00    -0.373 A  
HETATM   15  C   UNL     1     -11.155  11.619  65.674  1.00  0.00    -0.308 A  
HETATM   16  C   UNL     1     -12.022  12.614  67.750  1.00  0.00    -0.303 A  
HETATM   17  C   UNL     1     -11.128  11.739  67.089  1.00  0.00    -0.350 A  
HETATM   18  C   UNL     1     -12.008  12.792  69.131  1.00  0.00    -0.296 A  
HETATM   19  C   UNL     1     -10.185  10.993  67.869  1.00  0.00    -0.207 A  
HETATM   20  C   UNL     1     -10.127  11.306  69.257  1.00  0.00    -0.018 A  
HETATM   21  C   UNL     1     -11.042  12.157  69.883  1.00  0.00     0.172 A  
BRANCH  15  22
HETATM   22  C   UNL     1     -12.105  12.378  64.753  1.00  0.00    -0.483 C  
HETATM   23  C   UNL     1     -11.709  13.776  64.314  1.00  0.00    -0.426 C  
HETATM   24  C   UNL     1     -11.787  12.677  63.309  1.00  0.00    -0.504 C  
ENDBRANCH  15  22
ENDBRANCH  10  12
ENDBRANCH   5   6
ENDBRANCH   4   5
TORSDOF 4
ENDMDL
MODEL      147
REMARK 921   NORMALIZED FREE ENERGY PREDICTED BY IDOCK:   -4.40 KCAL/MOL
REMARK 922        TOTAL FREE ENERGY PREDICTED BY IDOCK:   -6.31 KCAL/MOL
REMARK 923 INTER-LIGAND FREE ENERGY PREDICTED BY IDOCK:   -5.50 KCAL/MOL
REMARK 924 INTRA-LIGAND FREE ENERGY PREDICTED BY IDOCK:   -0.81 KCAL/MOL
REMARK 927      BINDING AFFINITY PREDICTED BY RF-SCORE:    0.00 PKD
ROOT
HETATM    1  O   UNL     1      -7.965   8.171  70.572  1.00  0.00    -0.090 OA 
HETATM    2  C   UNL     1      -6.632   7.954  70.459  1.00  0.00    -0.037 C  
HETATM    3  O   UNL     1      -6.092   7.004  70.998  1.00  0.00    -0.035 OA 
HETATM    4  C   UNL     1      -5.899   8.930  69.553  1.00  0.00    -0.033 C  
ENDROOT
BRANCH   4   5
HETATM    5  S   UNL     1      -6.741  10.561  69.453  1.00  0.00    -0.090 SA 
BRANCH   5   6
HETATM    6  C   UNL     1      -7.768  10.272  68.079  1.00  0.00    -0.089 A  
HETATM    7  N   UNL     1      -7.401   9.444  67.126  1.00  0.00    -0.087 NA 
HETATM    8  N   UNL     1      -8.315   9.530  66.124  1.00  0.00    -0.114 NA 
HETATM    9  C   UNL     1      -9.217  10.420  66.478  1.00  0.00    -0.160 A  
HETATM   10  N   UNL     1      -9.044  10.782  67.815  1.00  0.00    -0.150 NA 
HETATM   11 BR   UNL     1     -10.315  11.213  65.172  1.00  0.00    -0.355 Br 
BRANCH  10  12
HETATM   12  C   UNL     1      -9.929  11.592  68.614  1.00  0.00    -0.199 A  
HETATM   13  C   UNL     1      -9.925  12.975  68.425  1.00  0.00    -0.216 A  
HETATM   14  C   UNL     1     -10.869  13.782  69.054  1.00  0.00    -0.247 A  
HETATM   15  C   UNL     1     -11.895  13.254  69.852  1.00  0.00    -0.380 A  
HETATM   16  C   UNL     1     -12.849  11.277  70.962  1.00  0.00    -0.395 A  
HETATM   17  C   UNL     1     -11.875  11.859  70.116  1.00  0.00    -0.390 A  
HETATM   18  C   UNL     1     -12.849   9.922  71.279  1.00  0.00    -0.486 A  
HETATM   19  C   UNL     1     -10.862  11.020  69.548  1.00  0.00    -0.267 A  
HETATM   20  C   UNL     1     -10.830   9.672  70.004  1.00  0.00    -0.302 A  
HETATM   21  C   UNL     1     -11.823   9.122  70.820  1.00  0.00    -0.280 A  
BRANCH  15  22
HETATM   22  C   UNL     1     -12.917  14.234  70.418  1.00  0.00    -0.179 C  
HETATM   23  C   UNL     1     -12.860  14.547  71.903  1.00  0.00    -0.410 C  
HETATM   24  C   UNL     1     -12.550  15.614  70.908  1.00  0.00    -0.503 C  
ENDBRANCH  15  22
ENDBRANCH  10  12
ENDBRANCH   5   6
ENDBRANCH   4   5
TORSDOF 4
ENDMDL
MODEL      148
REMARK 921   NORMALIZED FREE ENERGY PREDICTED BY IDOCK:   -4.39 KCAL/MOL
REMARK 922        TOTAL FREE ENERGY PREDICTED BY IDOCK:   -6.29 KCAL/MOL
REMARK 923 INTER-LIGAND FREE ENERGY PREDICTED BY IDOCK:   -6.14 KCAL/MOL
REMARK 924 INTRA-LIGAND FREE ENERGY PREDICTED BY IDOCK:   -0.15 KCAL/MOL
REMARK 927      BINDING AFFINITY PREDICTED BY RF-SCORE:    0.00 PKD
ROOT
HETATM    1  O   UNL     1     -12.809  12.013  63.422  1.00  0.00    -0.760 OA 
HETATM    2  C   UNL     1     -12.349  13.111  64.070  1.00  0.00    -0.352 C  
HETATM    3  O   UNL     1     -12.608  14.236  63.682  1.00  0.00    -0.831 OA 
HETATM    4  C   UNL     1     -11.567  12.823  65.341  1.00  0.00    -0.358 C  
ENDROOT
BRANCH   4   5
HETATM    5  S   UNL     1     -10.766  11.169  65.312  1.00  0.00    -0.153 SA 
BRANCH   5   6
HETATM    6  C   UNL     1     -11.027  10.692  66.964  1.00  0.00    -0.208 A  
HETATM    7  N   UNL     1     -11.891  11.331  67.721  1.00  0.00    -0.638 NA 
HETATM    8  N   UNL     1     -11.777  10.846  68.986  1.00  0.00    -0.316 NA 
HETATM    9  C   UNL     1     -10.835   9.927  68.980  1.00  0.00    -0.215 A  
HETATM   10  N   UNL     1     -10.457   9.627  67.670  1.00  0.00    -0.245 NA 
HETATM   11 BR   UNL     1     -10.011   9.418  70.593  1.00  0.00    -0.349 Br 
BRANCH  10  12
HETATM   12  C   UNL     1      -9.588   8.559  67.243  1.00  0.00    -0.171 A  
HETATM   13  C   UNL     1      -8.588   8.842  66.311  1.00  0.00    -0.145 A  
HETATM   14  C   UNL     1      -7.626   7.889  65.989  1.00  0.00    -0.086 A  
HETATM   15  C   UNL     1      -7.574   6.634  66.612  1.00  0.00    -0.094 A  
HETATM   16  C   UNL     1      -8.659   5.024  68.124  1.00  0.00    -0.102 A  
HETATM   17  C   UNL     1      -8.623   6.298  67.509  1.00  0.00    -0.107 A  
HETATM   18  C   UNL     1      -9.685   4.636  68.981  1.00  0.00    -0.242 A  
HETATM   19  C   UNL     1      -9.672   7.232  67.792  1.00  0.00    -0.167 A  
HETATM   20  C   UNL     1     -10.760   6.744  68.570  1.00  0.00    -0.280 A  
HETATM   21  C   UNL     1     -10.751   5.488  69.184  1.00  0.00    -0.260 A  
BRANCH  15  22
HETATM   22  C   UNL     1      -6.423   5.708  66.232  1.00  0.00    -0.044 C  
HETATM   23  C   UNL     1      -5.125   6.340  65.759  1.00  0.00    -0.013 C  
HETATM   24  C   UNL     1      -5.159   5.590  67.048  1.00  0.00    -0.005 C  
ENDBRANCH  15  22
ENDBRANCH  10  12
ENDBRANCH   5   6
ENDBRANCH   4   5
TORSDOF 4
ENDMDL
MODEL      149
REMARK 921   NORMALIZED FREE ENERGY PREDICTED BY IDOCK:   -4.37 KCAL/MOL
REMARK 922        TOTAL FREE ENERGY PREDICTED BY IDOCK:   -6.28 KCAL/MOL
REMARK 923 INTER-LIGAND FREE ENERGY PREDICTED BY IDOCK:   -5.91 KCAL/MOL
REMARK 924 INTRA-LIGAND FREE ENERGY PREDICTED BY IDOCK:   -0.37 KCAL/MOL
REMARK 927      BINDING AFFINITY PREDICTED BY RF-SCORE:    0.00 PKD
ROOT
HETATM    1  O   UNL     1      -5.557  12.394  71.602  1.00  0.00    -0.394 OA 
HETATM    2  C   UNL     1      -5.674  13.741  71.502  1.00  0.00    -0.172 C  
HETATM    3  O   UNL     1      -5.487  14.472  72.458  1.00  0.00    -0.122 OA 
HETATM    4  C   UNL     1      -5.972  14.255  70.103  1.00  0.00    -0.151 C  
ENDROOT
BRANCH   4   5
HETATM    5  S   UNL     1      -6.852  13.012  69.073  1.00  0.00    -0.048 SA 
BRANCH   5   6
HETATM    6  C   UNL     1      -7.742  14.081  68.027  1.00  0.00    -0.149 A  
HETATM    7  N   UNL     1      -7.128  14.778  67.098  1.00  0.00    -0.168 NA 
HETATM    8  N   UNL     1      -8.036  15.626  66.545  1.00  0.00    -0.211 NA 
HETATM    9  C   UNL     1      -9.186  15.437  67.156  1.00  0.00    -0.213 A  
HETATM   10  N   UNL     1      -9.121  14.309  67.976  1.00  0.00    -0.184 NA 
HETATM   11 BR   UNL     1     -10.522  16.759  67.068  1.00  0.00    -0.246 Br 
BRANCH  10  12
HETATM   12  C   UNL     1     -10.216  13.679  68.669  1.00  0.00    -0.197 A  
HETATM   13  C   UNL     1     -10.555  12.367  68.335  1.00  0.00    -0.251 A  
HETATM   14  C   UNL     1     -11.495  11.662  69.082  1.00  0.00    -0.364 A  
HETATM   15  C   UNL     1     -12.102  12.201  70.225  1.00  0.00    -0.385 A  
HETATM   16  C   UNL     1     -12.455  14.175  71.650  1.00  0.00    -0.395 A  
HETATM   17  C   UNL     1     -11.827  13.558  70.542  1.00  0.00    -0.254 A  
HETATM   18  C   UNL     1     -12.246  15.512  71.978  1.00  0.00    -0.484 A  
HETATM   19  C   UNL     1     -10.927  14.330  69.738  1.00  0.00    -0.112 A  
HETATM   20  C   UNL     1     -10.847  15.719  70.038  1.00  0.00    -0.348 A  
HETATM   21  C   UNL     1     -11.460  16.292  71.155  1.00  0.00    -0.364 A  
BRANCH  15  22
HETATM   22  C   UNL     1     -13.053  11.299  71.005  1.00  0.00    -0.171 C  
HETATM   23  C   UNL     1     -13.142   9.837  70.603  1.00  0.00    -0.090 C  
HETATM   24  C   UNL     1     -12.577  10.207  71.932  1.00  0.00    -0.437 C  
ENDBRANCH  15  22
ENDBRANCH  10  12
ENDBRANCH   5   6
ENDBRANCH   4   5
TORSDOF 4
ENDMDL
MODEL      150
REMARK 921   NORMALIZED FREE ENERGY PREDICTED BY IDOCK:   -4.37 KCAL/MOL
REMARK 922        TOTAL FREE ENERGY PREDICTED BY IDOCK:   -6.28 KCAL/MOL
REMARK 923 INTER-LIGAND FREE ENERGY PREDICTED BY IDOCK:   -5.81 KCAL/MOL
REMARK 924 INTRA-LIGAND FREE ENERGY PREDICTED BY IDOCK:   -0.47 KCAL/MOL
REMARK 927      BINDING AFFINITY PREDICTED BY RF-SCORE:    0.00 PKD
ROOT
HETATM    1  O   UNL     1     -11.813  16.159  71.400  1.00  0.00    -0.441 OA 
HETATM    2  C   UNL     1     -12.854  15.444  71.890  1.00  0.00    -0.396 C  
HETATM    3  O   UNL     1     -13.374  15.721  72.957  1.00  0.00    -0.508 OA 
HETATM    4  C   UNL     1     -13.359  14.340  70.976  1.00  0.00    -0.265 C  
ENDROOT
BRANCH   4   5
HETATM    5  S   UNL     1     -12.052  13.712  69.846  1.00  0.00    -0.325 SA 
BRANCH   5   6
HETATM    6  C   UNL     1     -12.008  12.048  70.351  1.00  0.00    -0.291 A  
HETATM    7  N   UNL     1     -12.889  11.581  71.208  1.00  0.00    -0.399 NA 
HETATM    8  N   UNL     1     -12.525  10.311  71.529  1.00  0.00    -0.405 NA 
HETATM    9  C   UNL     1     -11.421  10.031  70.870  1.00  0.00    -0.371 A  
HETATM   10  N   UNL     1     -11.150  11.027  69.930  1.00  0.00    -0.241 NA 
HETATM   11 BR   UNL     1     -10.322   8.614  71.441  1.00  0.00    -0.358 Br 
BRANCH  10  12
HETATM   12  C   UNL     1     -10.136  10.997  68.906  1.00  0.00    -0.199 A  
HETATM   13  C   UNL     1      -9.249  12.070  68.810  1.00  0.00     0.059 A  
HETATM   14  C   UNL     1      -8.158  12.017  67.947  1.00  0.00    -0.150 A  
HETATM   15  C   UNL     1      -7.862  10.880  67.181  1.00  0.00    -0.127 A  
HETATM   16  C   UNL     1      -8.575   8.655  66.412  1.00  0.00    -0.130 A  
HETATM   17  C   UNL     1      -8.789   9.805  67.209  1.00  0.00    -0.139 A  
HETATM   18  C   UNL     1      -9.474   7.592  66.378  1.00  0.00    -0.224 A  
HETATM   19  C   UNL     1      -9.964   9.872  68.025  1.00  0.00    -0.179 A  
HETATM   20  C   UNL     1     -10.911   8.822  67.858  1.00  0.00    -0.078 A  
HETATM   21  C   UNL     1     -10.656   7.687  67.082  1.00  0.00    -0.410 A  
BRANCH  15  22
HETATM   22  C   UNL     1      -6.592  10.915  66.337  1.00  0.00    -0.134 C  
HETATM   23  C   UNL     1      -5.487  11.872  66.748  1.00  0.00    -0.058 C  
HETATM   24  C   UNL     1      -5.262  10.400  66.830  1.00  0.00    -0.042 C  
ENDBRANCH  15  22
ENDBRANCH  10  12
ENDBRANCH   5   6
ENDBRANCH   4   5
TORSDOF 4
ENDMDL
MODEL      151
REMARK 921   NORMALIZED FREE ENERGY PREDICTED BY IDOCK:   -4.36 KCAL/MOL
REMARK 922        TOTAL FREE ENERGY PREDICTED BY IDOCK:   -6.27 KCAL/MOL
REMARK 923 INTER-LIGAND FREE ENERGY PREDICTED BY IDOCK:   -5.12 KCAL/MOL
REMARK 924 INTRA-LIGAND FREE ENERGY PREDICTED BY IDOCK:   -1.14 KCAL/MOL
REMARK 927      BINDING AFFINITY PREDICTED BY RF-SCORE:    0.00 PKD
ROOT
HETATM    1  O   UNL     1     -11.457   5.384  72.451  1.00  0.00    -0.235 OA 
HETATM    2  C   UNL     1     -10.717   6.112  73.321  1.00  0.00    -0.260 C  
HETATM    3  O   UNL     1      -9.968   5.582  74.122  1.00  0.00    -0.179 OA 
HETATM    4  C   UNL     1     -10.840   7.619  73.161  1.00  0.00    -0.382 C  
ENDROOT
BRANCH   4   5
HETATM    5  S   UNL     1     -12.452   8.117  72.430  1.00  0.00    -0.207 SA 
BRANCH   5   6
HETATM    6  C   UNL     1     -11.889   9.253  71.239  1.00  0.00    -0.343 A  
HETATM    7  N   UNL     1     -12.175  10.532  71.340  1.00  0.00    -0.350 NA 
HETATM    8  N   UNL     1     -11.742  11.147  70.208  1.00  0.00    -0.333 NA 
HETATM    9  C   UNL     1     -11.210  10.229  69.431  1.00  0.00    -0.239 A  
HETATM   10  N   UNL     1     -11.080   9.023  70.122  1.00  0.00    -0.232 NA 
HETATM   11 BR   UNL     1     -10.996  10.566  67.591  1.00  0.00    -0.373 Br 
BRANCH  10  12
HETATM   12  C   UNL     1     -10.389   7.840  69.675  1.00  0.00    -0.212 A  
HETATM   13  C   UNL     1     -11.142   6.742  69.256  1.00  0.00    -0.289 A  
HETATM   14  C   UNL     1     -10.528   5.640  68.667  1.00  0.00    -0.277 A  
HETATM   15  C   UNL     1      -9.149   5.595  68.414  1.00  0.00    -0.121 A  
HETATM   16  C   UNL     1      -6.950   6.653  68.723  1.00  0.00    -0.080 A  
HETATM   17  C   UNL     1      -8.354   6.669  68.896  1.00  0.00    -0.120 A  
HETATM   18  C   UNL     1      -6.125   7.664  69.210  1.00  0.00    -0.034 A  
HETATM   19  C   UNL     1      -8.954   7.775  69.581  1.00  0.00    -0.143 A  
HETATM   20  C   UNL     1      -8.060   8.714  70.168  1.00  0.00    -0.113 A  
HETATM   21  C   UNL     1      -6.679   8.683  69.956  1.00  0.00    -0.039 A  
BRANCH  15  22
HETATM   22  C   UNL     1      -8.609   4.367  67.689  1.00  0.00    -0.108 C  
HETATM   23  C   UNL     1      -9.324   3.043  67.895  1.00  0.00    -0.255 C  
HETATM   24  C   UNL     1      -9.341   3.694  66.554  1.00  0.00    -0.202 C  
ENDBRANCH  15  22
ENDBRANCH  10  12
ENDBRANCH   5   6
ENDBRANCH   4   5
TORSDOF 4
ENDMDL
MODEL      152
REMARK 921   NORMALIZED FREE ENERGY PREDICTED BY IDOCK:   -4.36 KCAL/MOL
REMARK 922        TOTAL FREE ENERGY PREDICTED BY IDOCK:   -6.26 KCAL/MOL
REMARK 923 INTER-LIGAND FREE ENERGY PREDICTED BY IDOCK:   -5.66 KCAL/MOL
REMARK 924 INTRA-LIGAND FREE ENERGY PREDICTED BY IDOCK:   -0.60 KCAL/MOL
REMARK 927      BINDING AFFINITY PREDICTED BY RF-SCORE:    0.00 PKD
ROOT
HETATM    1  O   UNL     1     -11.403   5.003  72.685  1.00  0.00    -0.213 OA 
HETATM    2  C   UNL     1     -10.202   5.602  72.498  1.00  0.00    -0.190 C  
HETATM    3  O   UNL     1      -9.381   5.680  73.394  1.00  0.00    -0.135 OA 
HETATM    4  C   UNL     1      -9.941   6.085  71.080  1.00  0.00    -0.186 C  
ENDROOT
BRANCH   4   5
HETATM    5  S   UNL     1     -11.494   6.468  70.174  1.00  0.00    -0.389 SA 
BRANCH   5   6
HETATM    6  C   UNL     1     -11.999   7.883  71.050  1.00  0.00    -0.252 A  
HETATM    7  N   UNL     1     -12.976   7.818  71.928  1.00  0.00    -0.306 NA 
HETATM    8  N   UNL     1     -13.251   9.085  72.339  1.00  0.00    -0.445 NA 
HETATM    9  C   UNL     1     -12.444   9.900  71.694  1.00  0.00    -0.415 A  
HETATM   10  N   UNL     1     -11.468   9.176  71.007  1.00  0.00    -0.286 NA 
HETATM   11 BR   UNL     1     -12.864  11.730  71.571  1.00  0.00    -0.360 Br 
BRANCH  10  12
HETATM   12  C   UNL     1     -10.311   9.708  70.333  1.00  0.00    -0.291 A  
HETATM   13  C   UNL     1      -9.046   9.434  70.857  1.00  0.00    -0.220 A  
HETATM   14  C   UNL     1      -7.895   9.787  70.157  1.00  0.00    -0.196 A  
HETATM   15  C   UNL     1      -7.940  10.375  68.885  1.00  0.00    -0.123 A  
HETATM   16  C   UNL     1      -9.320  11.377  67.112  1.00  0.00    -0.180 A  
HETATM   17  C   UNL     1      -9.213  10.728  68.365  1.00  0.00    -0.164 A  
HETATM   18  C   UNL     1     -10.542  11.774  66.578  1.00  0.00    -0.289 A  
HETATM   19  C   UNL     1     -10.409  10.451  69.104  1.00  0.00    -0.241 A  
HETATM   20  C   UNL     1     -11.617  10.990  68.577  1.00  0.00    -0.380 A  
HETATM   21  C   UNL     1     -11.690  11.604  67.324  1.00  0.00    -0.255 A  
BRANCH  15  22
HETATM   22  C   UNL     1      -6.610  10.638  68.187  1.00  0.00    -0.063 C  
HETATM   23  C   UNL     1      -5.407   9.811  68.606  1.00  0.00    -0.036 C  
HETATM   24  C   UNL     1      -5.972   9.657  67.234  1.00  0.00    -0.052 C  
ENDBRANCH  15  22
ENDBRANCH  10  12
ENDBRANCH   5   6
ENDBRANCH   4   5
TORSDOF 4
ENDMDL
MODEL      153
REMARK 921   NORMALIZED FREE ENERGY PREDICTED BY IDOCK:   -4.33 KCAL/MOL
REMARK 922        TOTAL FREE ENERGY PREDICTED BY IDOCK:   -6.22 KCAL/MOL
REMARK 923 INTER-LIGAND FREE ENERGY PREDICTED BY IDOCK:   -5.13 KCAL/MOL
REMARK 924 INTRA-LIGAND FREE ENERGY PREDICTED BY IDOCK:   -1.09 KCAL/MOL
REMARK 927      BINDING AFFINITY PREDICTED BY RF-SCORE:    0.00 PKD
ROOT
HETATM    1  O   UNL     1      -9.916   9.595  66.568  1.00  0.00    -0.214 OA 
HETATM    2  C   UNL     1      -9.248   9.156  65.473  1.00  0.00    -0.224 C  
HETATM    3  O   UNL     1      -9.397   9.677  64.383  1.00  0.00    -0.254 OA 
HETATM    4  C   UNL     1      -8.257   8.034  65.736  1.00  0.00    -0.132 C  
ENDROOT
BRANCH   4   5
HETATM    5  S   UNL     1      -8.714   7.024  67.202  1.00  0.00    -0.123 SA 
BRANCH   5   6
HETATM    6  C   UNL     1      -7.470   7.536  68.306  1.00  0.00    -0.109 A  
HETATM    7  N   UNL     1      -6.231   7.691  67.898  1.00  0.00    -0.047 NA 
HETATM    8  N   UNL     1      -5.462   7.946  68.990  1.00  0.00    -0.029 NA 
HETATM    9  C   UNL     1      -6.246   7.930  70.046  1.00  0.00    -0.030 A  
HETATM   10  N   UNL     1      -7.586   7.883  69.656  1.00  0.00    -0.095 NA 
HETATM   11 BR   UNL     1      -5.506   7.699  71.761  1.00  0.00    -0.035 Br 
BRANCH  10  12
HETATM   12  C   UNL     1      -8.740   8.026  70.507  1.00  0.00    -0.135 A  
HETATM   13  C   UNL     1      -9.342   9.281  70.614  1.00  0.00    -0.329 A  
HETATM   14  C   UNL     1     -10.548   9.436  71.292  1.00  0.00    -0.400 A  
HETATM   15  C   UNL     1     -11.243   8.352  71.846  1.00  0.00    -0.379 A  
HETATM   16  C   UNL     1     -11.240   5.957  72.407  1.00  0.00    -0.340 A  
HETATM   17  C   UNL     1     -10.615   7.078  71.812  1.00  0.00    -0.234 A  
HETATM   18  C   UNL     1     -10.648   4.697  72.431  1.00  0.00    -0.225 A  
HETATM   19  C   UNL     1      -9.334   6.909  71.194  1.00  0.00    -0.162 A  
HETATM   20  C   UNL     1      -8.717   5.637  71.357  1.00  0.00    -0.133 A  
HETATM   21  C   UNL     1      -9.373   4.542  71.927  1.00  0.00    -0.189 A  
BRANCH  15  22
HETATM   22  C   UNL     1     -12.594   8.641  72.491  1.00  0.00    -0.367 C  
HETATM   23  C   UNL     1     -13.440   9.760  71.908  1.00  0.00    -0.485 C  
HETATM   24  C   UNL     1     -13.910   8.348  71.811  1.00  0.00    -0.458 C  
ENDBRANCH  15  22
ENDBRANCH  10  12
ENDBRANCH   5   6
ENDBRANCH   4   5
TORSDOF 4
ENDMDL
MODEL      154
REMARK 921   NORMALIZED FREE ENERGY PREDICTED BY IDOCK:   -4.31 KCAL/MOL
REMARK 922        TOTAL FREE ENERGY PREDICTED BY IDOCK:   -6.20 KCAL/MOL
REMARK 923 INTER-LIGAND FREE ENERGY PREDICTED BY IDOCK:   -5.24 KCAL/MOL
REMARK 924 INTRA-LIGAND FREE ENERGY PREDICTED BY IDOCK:   -0.96 KCAL/MOL
REMARK 927      BINDING AFFINITY PREDICTED BY RF-SCORE:    0.00 PKD
ROOT
HETATM    1  O   UNL     1      -9.617   3.269  67.257  1.00  0.00    -0.193 OA 
HETATM    2  C   UNL     1      -8.953   4.073  68.123  1.00  0.00    -0.121 C  
HETATM    3  O   UNL     1      -8.993   3.887  69.326  1.00  0.00    -0.095 OA 
HETATM    4  C   UNL     1      -8.108   5.155  67.472  1.00  0.00    -0.099 C  
ENDROOT
BRANCH   4   5
HETATM    5  S   UNL     1      -8.743   5.639  65.815  1.00  0.00    -0.149 SA 
BRANCH   5   6
HETATM    6  C   UNL     1      -7.645   6.939  65.454  1.00  0.00    -0.093 A  
HETATM    7  N   UNL     1      -6.495   6.705  64.863  1.00  0.00    -0.041 NA 
HETATM    8  N   UNL     1      -5.791   7.868  64.845  1.00  0.00    -0.044 NA 
HETATM    9  C   UNL     1      -6.522   8.788  65.436  1.00  0.00    -0.067 A  
HETATM   10  N   UNL     1      -7.814   8.312  65.664  1.00  0.00    -0.098 NA 
HETATM   11 BR   UNL     1      -5.708  10.355  66.089  1.00  0.00    -0.093 Br 
BRANCH  10  12
HETATM   12  C   UNL     1      -8.947   9.072  66.127  1.00  0.00    -0.177 A  
HETATM   13  C   UNL     1      -9.401   8.869  67.432  1.00  0.00    -0.165 A  
HETATM   14  C   UNL     1     -10.385   9.688  67.979  1.00  0.00    -0.262 A  
HETATM   15  C   UNL     1     -10.926  10.779  67.282  1.00  0.00    -0.359 A  
HETATM   16  C   UNL     1     -11.087  12.008  65.158  1.00  0.00    -0.369 A  
HETATM   17  C   UNL     1     -10.532  10.960  65.930  1.00  0.00    -0.285 A  
HETATM   18  C   UNL     1     -10.760  12.203  63.819  1.00  0.00    -0.488 A  
HETATM   19  C   UNL     1      -9.583  10.078  65.319  1.00  0.00    -0.355 A  
HETATM   20  C   UNL     1      -9.380  10.241  63.919  1.00  0.00    -0.337 A  
HETATM   21  C   UNL     1      -9.924  11.302  63.191  1.00  0.00    -0.398 A  
BRANCH  15  22
HETATM   22  C   UNL     1     -11.937  11.650  68.020  1.00  0.00    -0.187 C  
HETATM   23  C   UNL     1     -11.965  11.584  69.537  1.00  0.00    -0.402 C  
HETATM   24  C   UNL     1     -11.541  12.841  68.857  1.00  0.00    -0.362 C  
ENDBRANCH  15  22
ENDBRANCH  10  12
ENDBRANCH   5   6
ENDBRANCH   4   5
TORSDOF 4
ENDMDL
MODEL      155
REMARK 921   NORMALIZED FREE ENERGY PREDICTED BY IDOCK:   -4.31 KCAL/MOL
REMARK 922        TOTAL FREE ENERGY PREDICTED BY IDOCK:   -6.19 KCAL/MOL
REMARK 923 INTER-LIGAND FREE ENERGY PREDICTED BY IDOCK:   -5.17 KCAL/MOL
REMARK 924 INTRA-LIGAND FREE ENERGY PREDICTED BY IDOCK:   -1.02 KCAL/MOL
REMARK 927      BINDING AFFINITY PREDICTED BY RF-SCORE:    0.00 PKD
ROOT
HETATM    1  O   UNL     1      -8.763   4.035  72.537  1.00  0.00    -0.101 OA 
HETATM    2  C   UNL     1      -9.493   3.625  71.472  1.00  0.00    -0.150 C  
HETATM    3  O   UNL     1      -9.886   2.476  71.371  1.00  0.00    -0.155 OA 
HETATM    4  C   UNL     1      -9.841   4.718  70.475  1.00  0.00    -0.230 C  
ENDROOT
BRANCH   4   5
HETATM    5  S   UNL     1      -8.619   6.091  70.485  1.00  0.00    -0.138 SA 
BRANCH   5   6
HETATM    6  C   UNL     1      -9.605   7.352  71.165  1.00  0.00    -0.159 A  
HETATM    7  N   UNL     1     -10.016   7.288  72.411  1.00  0.00    -0.171 NA 
HETATM    8  N   UNL     1     -10.880   8.316  72.619  1.00  0.00    -0.346 NA 
HETATM    9  C   UNL     1     -10.990   8.983  71.490  1.00  0.00    -0.348 A  
HETATM   10  N   UNL     1     -10.034   8.545  70.572  1.00  0.00    -0.184 NA 
HETATM   11 BR   UNL     1     -12.467  10.115  71.210  1.00  0.00    -0.547 Br 
BRANCH  10  12
HETATM   12  C   UNL     1      -9.722   9.140  69.297  1.00  0.00    -0.164 A  
HETATM   13  C   UNL     1     -10.571   8.894  68.217  1.00  0.00    -0.203 A  
HETATM   14  C   UNL     1     -10.403   9.572  67.012  1.00  0.00    -0.319 A  
HETATM   15  C   UNL     1      -9.426  10.562  66.837  1.00  0.00    -0.191 A  
HETATM   16  C   UNL     1      -7.462  11.722  67.758  1.00  0.00    -0.117 A  
HETATM   17  C   UNL     1      -8.507  10.778  67.898  1.00  0.00    -0.122 A  
HETATM   18  C   UNL     1      -6.516  11.942  68.755  1.00  0.00    -0.071 A  
HETATM   19  C   UNL     1      -8.607  10.032  69.117  1.00  0.00    -0.158 A  
HETATM   20  C   UNL     1      -7.544  10.200  70.049  1.00  0.00    -0.164 A  
HETATM   21  C   UNL     1      -6.541  11.161  69.892  1.00  0.00    -0.129 A  
BRANCH  15  22
HETATM   22  C   UNL     1      -9.397  11.290  65.497  1.00  0.00    -0.243 C  
HETATM   23  C   UNL     1     -10.263  10.750  64.372  1.00  0.00    -0.432 C  
HETATM   24  C   UNL     1     -10.566  12.083  64.966  1.00  0.00    -0.332 C  
ENDBRANCH  15  22
ENDBRANCH  10  12
ENDBRANCH   5   6
ENDBRANCH   4   5
TORSDOF 4
ENDMDL
MODEL      156
REMARK 921   NORMALIZED FREE ENERGY PREDICTED BY IDOCK:   -4.29 KCAL/MOL
REMARK 922        TOTAL FREE ENERGY PREDICTED BY IDOCK:   -6.17 KCAL/MOL
REMARK 923 INTER-LIGAND FREE ENERGY PREDICTED BY IDOCK:   -5.10 KCAL/MOL
REMARK 924 INTRA-LIGAND FREE ENERGY PREDICTED BY IDOCK:   -1.07 KCAL/MOL
REMARK 927      BINDING AFFINITY PREDICTED BY RF-SCORE:    0.00 PKD
ROOT
HETATM    1  O   UNL     1      -8.706   8.678  72.013  1.00  0.00    -0.229 OA 
HETATM    2  C   UNL     1      -9.754   8.150  72.692  1.00  0.00    -0.290 C  
HETATM    3  O   UNL     1      -9.630   7.719  73.824  1.00  0.00    -0.288 OA 
HETATM    4  C   UNL     1     -11.086   8.217  71.963  1.00  0.00    -0.311 C  
ENDROOT
BRANCH   4   5
HETATM    5  S   UNL     1     -10.886   8.249  70.136  1.00  0.00    -0.215 SA 
BRANCH   5   6
HETATM    6  C   UNL     1     -11.146   9.944  69.846  1.00  0.00    -0.275 A  
HETATM    7  N   UNL     1     -11.809  10.681  70.710  1.00  0.00    -0.347 NA 
HETATM    8  N   UNL     1     -11.986  11.911  70.158  1.00  0.00    -0.346 NA 
HETATM    9  C   UNL     1     -11.439  11.898  68.962  1.00  0.00    -0.297 A  
HETATM   10  N   UNL     1     -10.695  10.731  68.781  1.00  0.00    -0.193 NA 
HETATM   11 BR   UNL     1     -11.934  13.193  67.690  1.00  0.00    -0.307 Br 
BRANCH  10  12
HETATM   12  C   UNL     1      -9.813  10.428  67.682  1.00  0.00    -0.170 A  
HETATM   13  C   UNL     1     -10.310   9.687  66.609  1.00  0.00    -0.279 A  
HETATM   14  C   UNL     1      -9.551   9.506  65.456  1.00  0.00    -0.349 A  
HETATM   15  C   UNL     1      -8.290  10.096  65.288  1.00  0.00    -0.162 A  
HETATM   16  C   UNL     1      -6.440  11.360  66.304  1.00  0.00     0.033 A  
HETATM   17  C   UNL     1      -7.734  10.794  66.392  1.00  0.00    -0.145 A  
HETATM   18  C   UNL     1      -5.839  12.021  67.371  1.00  0.00    -0.125 A  
HETATM   19  C   UNL     1      -8.462  10.921  67.620  1.00  0.00    -0.123 A  
HETATM   20  C   UNL     1      -7.756  11.491  68.717  1.00  0.00    -0.124 A  
HETATM   21  C   UNL     1      -6.488  12.064  68.588  1.00  0.00    -0.063 A  
BRANCH  15  22
HETATM   22  C   UNL     1      -7.593   9.891  63.946  1.00  0.00    -0.141 C  
HETATM   23  C   UNL     1      -8.192   8.886  62.977  1.00  0.00    -0.187 C  
HETATM   24  C   UNL     1      -8.188  10.337  62.633  1.00  0.00    -0.170 C  
ENDBRANCH  15  22
ENDBRANCH  10  12
ENDBRANCH   5   6
ENDBRANCH   4   5
TORSDOF 4
ENDMDL
MODEL      157
REMARK 921   NORMALIZED FREE ENERGY PREDICTED BY IDOCK:   -4.28 KCAL/MOL
REMARK 922        TOTAL FREE ENERGY PREDICTED BY IDOCK:   -6.16 KCAL/MOL
REMARK 923 INTER-LIGAND FREE ENERGY PREDICTED BY IDOCK:   -5.27 KCAL/MOL
REMARK 924 INTRA-LIGAND FREE ENERGY PREDICTED BY IDOCK:   -0.89 KCAL/MOL
REMARK 927      BINDING AFFINITY PREDICTED BY RF-SCORE:    0.00 PKD
ROOT
HETATM    1  O   UNL     1      -7.211  15.503  68.883  1.00  0.00    -0.124 OA 
HETATM    2  C   UNL     1      -6.434  15.213  67.811  1.00  0.00    -0.161 C  
HETATM    3  O   UNL     1      -6.350  15.969  66.860  1.00  0.00    -0.306 OA 
HETATM    4  C   UNL     1      -5.631  13.928  67.931  1.00  0.00    -0.100 C  
ENDROOT
BRANCH   4   5
HETATM    5  S   UNL     1      -6.425  12.708  69.054  1.00  0.00    -0.101 SA 
BRANCH   5   6
HETATM    6  C   UNL     1      -7.019  11.574  67.876  1.00  0.00    -0.075 A  
HETATM    7  N   UNL     1      -6.369  11.369  66.752  1.00  0.00    -0.137 NA 
HETATM    8  N   UNL     1      -7.133  10.559  65.971  1.00  0.00    -0.133 NA 
HETATM    9  C   UNL     1      -8.241  10.295  66.629  1.00  0.00    -0.125 A  
HETATM   10  N   UNL     1      -8.142  10.743  67.948  1.00  0.00    -0.110 NA 
HETATM   11 BR   UNL     1      -9.758   9.677  65.702  1.00  0.00    -0.350 Br 
BRANCH  10  12
HETATM   12  C   UNL     1      -9.070  10.488  69.021  1.00  0.00    -0.181 A  
HETATM   13  C   UNL     1     -10.327  11.094  68.978  1.00  0.00    -0.214 A  
HETATM   14  C   UNL     1     -11.312  10.755  69.901  1.00  0.00    -0.385 A  
HETATM   15  C   UNL     1     -11.120   9.763  70.873  1.00  0.00    -0.428 A  
HETATM   16  C   UNL     1      -9.556   8.221  71.981  1.00  0.00    -0.316 A  
HETATM   17  C   UNL     1      -9.828   9.185  70.981  1.00  0.00    -0.366 A  
HETATM   18  C   UNL     1      -8.296   7.654  72.149  1.00  0.00    -0.134 A  
HETATM   19  C   UNL     1      -8.772   9.579  70.096  1.00  0.00    -0.258 A  
HETATM   20  C   UNL     1      -7.477   9.068  70.390  1.00  0.00    -0.089 A  
HETATM   21  C   UNL     1      -7.248   8.097  71.369  1.00  0.00    -0.074 A  
BRANCH  15  22
HETATM   22  C   UNL     1     -12.304   9.425  71.773  1.00  0.00    -0.471 C  
HETATM   23  C   UNL     1     -13.456  10.413  71.840  1.00  0.00    -0.384 C  
HETATM   24  C   UNL     1     -13.669   9.066  71.238  1.00  0.00    -0.246 C  
ENDBRANCH  15  22
ENDBRANCH  10  12
ENDBRANCH   5   6
ENDBRANCH   4   5
TORSDOF 4
ENDMDL
MODEL      158
REMARK 921   NORMALIZED FREE ENERGY PREDICTED BY IDOCK:   -4.28 KCAL/MOL
REMARK 922        TOTAL FREE ENERGY PREDICTED BY IDOCK:   -6.16 KCAL/MOL
REMARK 923 INTER-LIGAND FREE ENERGY PREDICTED BY IDOCK:   -5.30 KCAL/MOL
REMARK 924 INTRA-LIGAND FREE ENERGY PREDICTED BY IDOCK:   -0.86 KCAL/MOL
REMARK 927      BINDING AFFINITY PREDICTED BY RF-SCORE:    0.00 PKD
ROOT
HETATM    1  O   UNL     1     -10.586   4.102  65.056  1.00  0.00    -0.240 OA 
HETATM    2  C   UNL     1      -9.617   4.042  66.002  1.00  0.00    -0.194 C  
HETATM    3  O   UNL     1      -8.928   3.049  66.148  1.00  0.00    -0.137 OA 
HETATM    4  C   UNL     1      -9.415   5.324  66.792  1.00  0.00    -0.140 C  
ENDROOT
BRANCH   4   5
HETATM    5  S   UNL     1     -10.940   6.349  66.868  1.00  0.00    -0.232 SA 
BRANCH   5   6
HETATM    6  C   UNL     1     -10.816   6.931  68.503  1.00  0.00    -0.180 A  
HETATM    7  N   UNL     1     -10.817   6.096  69.517  1.00  0.00    -0.322 NA 
HETATM    8  N   UNL     1     -10.861   6.829  70.661  1.00  0.00    -0.238 NA 
HETATM    9  C   UNL     1     -10.898   8.100  70.322  1.00  0.00    -0.244 A  
HETATM   10  N   UNL     1     -10.658   8.246  68.955  1.00  0.00    -0.191 NA 
HETATM   11 BR   UNL     1     -11.503   9.383  71.559  1.00  0.00    -0.469 Br 
BRANCH  10  12
HETATM   12  C   UNL     1     -10.447   9.479  68.240  1.00  0.00    -0.223 A  
HETATM   13  C   UNL     1     -11.503  10.386  68.143  1.00  0.00    -0.194 A  
HETATM   14  C   UNL     1     -11.305  11.655  67.605  1.00  0.00    -0.362 A  
HETATM   15  C   UNL     1     -10.043  12.106  67.191  1.00  0.00    -0.220 A  
HETATM   16  C   UNL     1      -7.686  11.555  66.753  1.00  0.00    -0.136 A  
HETATM   17  C   UNL     1      -8.969  11.177  67.214  1.00  0.00    -0.147 A  
HETATM   18  C   UNL     1      -6.612  10.669  66.722  1.00  0.00    -0.091 A  
HETATM   19  C   UNL     1      -9.169   9.838  67.684  1.00  0.00    -0.143 A  
HETATM   20  C   UNL     1      -8.078   8.939  67.513  1.00  0.00    -0.109 A  
HETATM   21  C   UNL     1      -6.815   9.352  67.079  1.00  0.00    -0.084 A  
BRANCH  15  22
HETATM   22  C   UNL     1      -9.940  13.545  66.696  1.00  0.00    -0.282 C  
HETATM   23  C   UNL     1     -10.403  13.848  65.281  1.00  0.00    -0.396 C  
HETATM   24  C   UNL     1     -11.146  14.415  66.442  1.00  0.00    -0.326 C  
ENDBRANCH  15  22
ENDBRANCH  10  12
ENDBRANCH   5   6
ENDBRANCH   4   5
TORSDOF 4
ENDMDL
MODEL      159
REMARK 921   NORMALIZED FREE ENERGY PREDICTED BY IDOCK:   -4.27 KCAL/MOL
REMARK 922        TOTAL FREE ENERGY PREDICTED BY IDOCK:   -6.15 KCAL/MOL
REMARK 923 INTER-LIGAND FREE ENERGY PREDICTED BY IDOCK:   -5.13 KCAL/MOL
REMARK 924 INTRA-LIGAND FREE ENERGY PREDICTED BY IDOCK:   -1.03 KCAL/MOL
REMARK 927      BINDING AFFINITY PREDICTED BY RF-SCORE:    0.00 PKD
ROOT
HETATM    1  O   UNL     1     -11.304   5.467  72.256  1.00  0.00    -0.255 OA 
HETATM    2  C   UNL     1     -10.912   6.353  73.204  1.00  0.00    -0.220 C  
HETATM    3  O   UNL     1     -10.385   5.989  74.239  1.00  0.00    -0.281 OA 
HETATM    4  C   UNL     1     -11.110   7.814  72.835  1.00  0.00    -0.398 C  
ENDROOT
BRANCH   4   5
HETATM    5  S   UNL     1     -12.477   8.054  71.628  1.00  0.00    -0.328 SA 
BRANCH   5   6
HETATM    6  C   UNL     1     -11.956   9.542  70.894  1.00  0.00    -0.295 A  
HETATM    7  N   UNL     1     -12.646  10.649  71.052  1.00  0.00    -0.381 NA 
HETATM    8  N   UNL     1     -12.095  11.602  70.253  1.00  0.00    -0.358 NA 
HETATM    9  C   UNL     1     -11.085  11.054  69.613  1.00  0.00    -0.256 A  
HETATM   10  N   UNL     1     -10.806   9.789  70.135  1.00  0.00    -0.268 NA 
HETATM   11 BR   UNL     1     -10.421  11.858  68.046  1.00  0.00    -0.243 Br 
BRANCH  10  12
HETATM   12  C   UNL     1      -9.675   8.954  69.822  1.00  0.00    -0.175 A  
HETATM   13  C   UNL     1      -8.501   9.111  70.561  1.00  0.00    -0.236 A  
HETATM   14  C   UNL     1      -7.439   8.224  70.406  1.00  0.00    -0.067 A  
HETATM   15  C   UNL     1      -7.508   7.110  69.557  1.00  0.00    -0.095 A  
HETATM   16  C   UNL     1      -8.766   5.901  67.823  1.00  0.00    -0.104 A  
HETATM   17  C   UNL     1      -8.663   6.971  68.743  1.00  0.00    -0.127 A  
HETATM   18  C   UNL     1      -9.862   5.744  66.978  1.00  0.00    -0.171 A  
HETATM   19  C   UNL     1      -9.734   7.920  68.823  1.00  0.00    -0.159 A  
HETATM   20  C   UNL     1     -10.768   7.788  67.853  1.00  0.00    -0.165 A  
HETATM   21  C   UNL     1     -10.853   6.704  66.975  1.00  0.00    -0.467 A  
BRANCH  15  22
HETATM   22  C   UNL     1      -6.310   6.167  69.537  1.00  0.00    -0.038 C  
HETATM   23  C   UNL     1      -5.656   5.815  70.863  1.00  0.00    -0.013 C  
HETATM   24  C   UNL     1      -6.361   4.760  70.079  1.00  0.00    -0.030 C  
ENDBRANCH  15  22
ENDBRANCH  10  12
ENDBRANCH   5   6
ENDBRANCH   4   5
TORSDOF 4
ENDMDL
MODEL      160
REMARK 921   NORMALIZED FREE ENERGY PREDICTED BY IDOCK:   -4.27 KCAL/MOL
REMARK 922        TOTAL FREE ENERGY PREDICTED BY IDOCK:   -6.15 KCAL/MOL
REMARK 923 INTER-LIGAND FREE ENERGY PREDICTED BY IDOCK:   -4.99 KCAL/MOL
REMARK 924 INTRA-LIGAND FREE ENERGY PREDICTED BY IDOCK:   -1.16 KCAL/MOL
REMARK 927      BINDING AFFINITY PREDICTED BY RF-SCORE:    0.00 PKD
ROOT
HETATM    1  O   UNL     1      -7.513   8.998  73.695  1.00  0.00    -0.324 OA 
HETATM    2  C   UNL     1      -7.063   7.746  73.433  1.00  0.00    -0.092 C  
HETATM    3  O   UNL     1      -6.390   7.128  74.239  1.00  0.00    -0.077 OA 
HETATM    4  C   UNL     1      -7.528   7.163  72.109  1.00  0.00    -0.085 C  
ENDROOT
BRANCH   4   5
HETATM    5  S   UNL     1      -7.901   8.461  70.863  1.00  0.00    -0.109 SA 
BRANCH   5   6
HETATM    6  C   UNL     1      -9.632   8.521  71.016  1.00  0.00    -0.192 A  
HETATM    7  N   UNL     1     -10.212   9.441  71.754  1.00  0.00    -0.096 NA 
HETATM    8  N   UNL     1     -11.540   9.155  71.810  1.00  0.00    -0.371 NA 
HETATM    9  C   UNL     1     -11.744   8.058  71.113  1.00  0.00    -0.284 A  
HETATM   10  N   UNL     1     -10.595   7.714  70.399  1.00  0.00    -0.225 NA 
HETATM   11 BR   UNL     1     -13.310   7.050  71.388  1.00  0.00    -0.243 Br 
BRANCH  10  12
HETATM   12  C   UNL     1     -10.474   6.687  69.396  1.00  0.00    -0.219 A  
HETATM   13  C   UNL     1     -10.633   7.039  68.054  1.00  0.00    -0.260 A  
HETATM   14  C   UNL     1     -10.368   6.121  67.041  1.00  0.00    -0.295 A  
HETATM   15  C   UNL     1      -9.882   4.832  67.305  1.00  0.00    -0.218 A  
HETATM   16  C   UNL     1      -9.354   3.120  68.990  1.00  0.00    -0.230 A  
HETATM   17  C   UNL     1      -9.782   4.428  68.663  1.00  0.00    -0.190 A  
HETATM   18  C   UNL     1      -9.275   2.667  70.304  1.00  0.00    -0.202 A  
HETATM   19  C   UNL     1     -10.130   5.328  69.722  1.00  0.00    -0.334 A  
HETATM   20  C   UNL     1     -10.155   4.779  71.035  1.00  0.00    -0.269 A  
HETATM   21  C   UNL     1      -9.701   3.490  71.327  1.00  0.00    -0.237 A  
BRANCH  15  22
HETATM   22  C   UNL     1      -9.553   3.948  66.106  1.00  0.00    -0.193 C  
HETATM   23  C   UNL     1      -8.960   4.608  64.873  1.00  0.00    -0.153 C  
HETATM   24  C   UNL     1      -8.140   3.649  65.668  1.00  0.00    -0.093 C  
ENDBRANCH  15  22
ENDBRANCH  10  12
ENDBRANCH   5   6
ENDBRANCH   4   5
TORSDOF 4
ENDMDL
MODEL      161
REMARK 921   NORMALIZED FREE ENERGY PREDICTED BY IDOCK:   -4.26 KCAL/MOL
REMARK 922        TOTAL FREE ENERGY PREDICTED BY IDOCK:   -6.14 KCAL/MOL
REMARK 923 INTER-LIGAND FREE ENERGY PREDICTED BY IDOCK:   -6.17 KCAL/MOL
REMARK 924 INTRA-LIGAND FREE ENERGY PREDICTED BY IDOCK:    0.03 KCAL/MOL
REMARK 927      BINDING AFFINITY PREDICTED BY RF-SCORE:    0.00 PKD
ROOT
HETATM    1  O   UNL     1      -6.109  17.081  68.506  1.00  0.00    -0.141 OA 
HETATM    2  C   UNL     1      -6.174  18.415  68.273  1.00  0.00    -0.189 C  
HETATM    3  O   UNL     1      -5.172  19.105  68.227  1.00  0.00    -0.179 OA 
HETATM    4  C   UNL     1      -7.571  18.949  67.999  1.00  0.00    -0.265 C  
ENDROOT
BRANCH   4   5
HETATM    5  S   UNL     1      -8.880  17.921  68.780  1.00  0.00    -0.134 SA 
BRANCH   5   6
HETATM    6  C   UNL     1      -9.077  16.715  67.543  1.00  0.00    -0.202 A  
HETATM    7  N   UNL     1      -8.410  16.793  66.413  1.00  0.00    -0.284 NA 
HETATM    8  N   UNL     1      -8.870  15.815  65.588  1.00  0.00    -0.005 NA 
HETATM    9  C   UNL     1      -9.818  15.164  66.227  1.00  0.00    -0.295 A  
HETATM   10  N   UNL     1      -9.858  15.554  67.567  1.00  0.00    -0.220 NA 
HETATM   11 BR   UNL     1     -11.053  14.122  65.262  1.00  0.00    -0.353 Br 
BRANCH  10  12
HETATM   12  C   UNL     1     -10.634  14.951  68.621  1.00  0.00    -0.251 A  
HETATM   13  C   UNL     1     -11.405  15.776  69.441  1.00  0.00    -0.348 A  
HETATM   14  C   UNL     1     -12.293  15.232  70.365  1.00  0.00    -0.422 A  
HETATM   15  C   UNL     1     -12.500  13.850  70.483  1.00  0.00    -0.422 A  
HETATM   16  C   UNL     1     -11.796  11.585  69.831  1.00  0.00    -0.430 A  
HETATM   17  C   UNL     1     -11.675  12.990  69.711  1.00  0.00    -0.346 A  
HETATM   18  C   UNL     1     -10.985  10.703  69.123  1.00  0.00    -0.296 A  
HETATM   19  C   UNL     1     -10.694  13.526  68.814  1.00  0.00    -0.261 A  
HETATM   20  C   UNL     1      -9.808  12.588  68.213  1.00  0.00    -0.227 A  
HETATM   21  C   UNL     1      -9.972  11.205  68.332  1.00  0.00    -0.193 A  
BRANCH  15  22
HETATM   22  C   UNL     1     -13.560  13.382  71.475  1.00  0.00    -0.207 C  
HETATM   23  C   UNL     1     -13.198  13.364  72.951  1.00  0.00    -0.007 C  
HETATM   24  C   UNL     1     -14.238  14.310  72.453  1.00  0.00    -0.489 C  
ENDBRANCH  15  22
ENDBRANCH  10  12
ENDBRANCH   5   6
ENDBRANCH   4   5
TORSDOF 4
ENDMDL
MODEL      162
REMARK 921   NORMALIZED FREE ENERGY PREDICTED BY IDOCK:   -4.24 KCAL/MOL
REMARK 922        TOTAL FREE ENERGY PREDICTED BY IDOCK:   -6.12 KCAL/MOL
REMARK 923 INTER-LIGAND FREE ENERGY PREDICTED BY IDOCK:   -5.19 KCAL/MOL
REMARK 924 INTRA-LIGAND FREE ENERGY PREDICTED BY IDOCK:   -0.92 KCAL/MOL
REMARK 927      BINDING AFFINITY PREDICTED BY RF-SCORE:    0.00 PKD
ROOT
HETATM    1  O   UNL     1      -6.051  12.537  70.062  1.00  0.00    -0.143 OA 
HETATM    2  C   UNL     1      -5.935  13.824  70.471  1.00  0.00    -0.161 C  
HETATM    3  O   UNL     1      -6.221  14.162  71.606  1.00  0.00    -0.139 OA 
HETATM    4  C   UNL     1      -5.354  14.774  69.437  1.00  0.00    -0.086 C  
ENDROOT
BRANCH   4   5
HETATM    5  S   UNL     1      -5.662  14.209  67.714  1.00  0.00     0.010 SA 
BRANCH   5   6
HETATM    6  C   UNL     1      -6.838  15.394  67.227  1.00  0.00    -0.108 A  
HETATM    7  N   UNL     1      -6.463  16.569  66.773  1.00  0.00    -0.265 NA 
HETATM    8  N   UNL     1      -7.577  17.331  66.616  1.00  0.00    -0.230 NA 
HETATM    9  C   UNL     1      -8.612  16.611  66.989  1.00  0.00    -0.195 A  
HETATM   10  N   UNL     1      -8.232  15.283  67.193  1.00  0.00    -0.203 NA 
HETATM   11 BR   UNL     1     -10.233  17.458  67.434  1.00  0.00    -0.336 Br 
BRANCH  10  12
HETATM   12  C   UNL     1      -9.104  14.161  67.438  1.00  0.00    -0.198 A  
HETATM   13  C   UNL     1      -9.015  13.499  68.663  1.00  0.00    -0.002 A  
HETATM   14  C   UNL     1      -9.939  12.516  69.009  1.00  0.00     0.209 A  
HETATM   15  C   UNL     1     -11.024  12.183  68.186  1.00  0.00    -0.271 A  
HETATM   16  C   UNL     1     -12.132  12.452  66.006  1.00  0.00    -0.327 A  
HETATM   17  C   UNL     1     -11.093  12.792  66.905  1.00  0.00    -0.308 A  
HETATM   18  C   UNL     1     -12.220  12.995  64.727  1.00  0.00    -0.487 A  
HETATM   19  C   UNL     1     -10.105  13.744  66.492  1.00  0.00    -0.286 A  
HETATM   20  C   UNL     1     -10.167  14.171  65.136  1.00  0.00    -0.411 A  
HETATM   21  C   UNL     1     -11.222  13.836  64.282  1.00  0.00    -0.321 A  
BRANCH  15  22
HETATM   22  C   UNL     1     -12.013  11.149  68.714  1.00  0.00    -0.337 C  
HETATM   23  C   UNL     1     -11.479  10.038  69.601  1.00  0.00    -0.210 C  
HETATM   24  C   UNL     1     -12.409  11.056  70.167  1.00  0.00    -0.389 C  
ENDBRANCH  15  22
ENDBRANCH  10  12
ENDBRANCH   5   6
ENDBRANCH   4   5
TORSDOF 4
ENDMDL
MODEL      163
REMARK 921   NORMALIZED FREE ENERGY PREDICTED BY IDOCK:   -4.24 KCAL/MOL
REMARK 922        TOTAL FREE ENERGY PREDICTED BY IDOCK:   -6.11 KCAL/MOL
REMARK 923 INTER-LIGAND FREE ENERGY PREDICTED BY IDOCK:   -5.08 KCAL/MOL
REMARK 924 INTRA-LIGAND FREE ENERGY PREDICTED BY IDOCK:   -1.03 KCAL/MOL
REMARK 927      BINDING AFFINITY PREDICTED BY RF-SCORE:    0.00 PKD
ROOT
HETATM    1  O   UNL     1     -11.227   4.489  65.077  1.00  0.00    -0.183 OA 
HETATM    2  C   UNL     1      -9.912   4.193  64.933  1.00  0.00    -0.199 C  
HETATM    3  O   UNL     1      -9.544   3.159  64.406  1.00  0.00    -0.142 OA 
HETATM    4  C   UNL     1      -8.957   5.278  65.404  1.00  0.00    -0.144 C  
ENDROOT
BRANCH   4   5
HETATM    5  S   UNL     1      -9.691   6.339  66.714  1.00  0.00    -0.158 SA 
BRANCH   5   6
HETATM    6  C   UNL     1      -8.988   7.868  66.276  1.00  0.00    -0.171 A  
HETATM    7  N   UNL     1      -8.412   8.034  65.106  1.00  0.00    -0.135 NA 
HETATM    8  N   UNL     1      -7.827   9.262  65.100  1.00  0.00    -0.106 NA 
HETATM    9  C   UNL     1      -8.047   9.817  66.272  1.00  0.00    -0.113 A  
HETATM   10  N   UNL     1      -8.968   9.064  67.002  1.00  0.00    -0.125 NA 
HETATM   11 BR   UNL     1      -6.969  11.248  66.849  1.00  0.00    -0.139 Br 
BRANCH  10  12
HETATM   12  C   UNL     1      -9.593   9.431  68.248  1.00  0.00    -0.142 A  
HETATM   13  C   UNL     1     -10.741  10.223  68.214  1.00  0.00    -0.276 A  
HETATM   14  C   UNL     1     -11.470  10.470  69.374  1.00  0.00    -0.329 A  
HETATM   15  C   UNL     1     -11.130   9.901  70.610  1.00  0.00    -0.409 A  
HETATM   16  C   UNL     1      -9.500   8.601  71.915  1.00  0.00    -0.369 A  
HETATM   17  C   UNL     1      -9.926   9.151  70.683  1.00  0.00    -0.307 A  
HETATM   18  C   UNL     1      -8.310   7.890  72.043  1.00  0.00    -0.161 A  
HETATM   19  C   UNL     1      -9.114   8.954  69.519  1.00  0.00    -0.146 A  
HETATM   20  C   UNL     1      -7.851   8.333  69.729  1.00  0.00    -0.100 A  
HETATM   21  C   UNL     1      -7.471   7.778  70.954  1.00  0.00    -0.073 A  
BRANCH  15  22
HETATM   22  C   UNL     1     -12.055  10.182  71.790  1.00  0.00    -0.259 C  
HETATM   23  C   UNL     1     -13.258  11.079  71.556  1.00  0.00    -0.400 C  
HETATM   24  C   UNL     1     -13.460   9.638  71.881  1.00  0.00    -0.496 C  
ENDBRANCH  15  22
ENDBRANCH  10  12
ENDBRANCH   5   6
ENDBRANCH   4   5
TORSDOF 4
ENDMDL
MODEL      164
REMARK 921   NORMALIZED FREE ENERGY PREDICTED BY IDOCK:   -4.23 KCAL/MOL
REMARK 922        TOTAL FREE ENERGY PREDICTED BY IDOCK:   -6.10 KCAL/MOL
REMARK 923 INTER-LIGAND FREE ENERGY PREDICTED BY IDOCK:   -4.82 KCAL/MOL
REMARK 924 INTRA-LIGAND FREE ENERGY PREDICTED BY IDOCK:   -1.28 KCAL/MOL
REMARK 927      BINDING AFFINITY PREDICTED BY RF-SCORE:    0.00 PKD
ROOT
HETATM    1  O   UNL     1      -9.214   6.669  67.566  1.00  0.00    -0.116 OA 
HETATM    2  C   UNL     1      -8.355   5.631  67.417  1.00  0.00    -0.100 C  
HETATM    3  O   UNL     1      -7.748   5.449  66.377  1.00  0.00    -0.097 OA 
HETATM    4  C   UNL     1      -8.159   4.779  68.660  1.00  0.00    -0.083 C  
ENDROOT
BRANCH   4   5
HETATM    5  S   UNL     1      -9.617   4.825  69.779  1.00  0.00    -0.197 SA 
BRANCH   5   6
HETATM    6  C   UNL     1      -8.842   5.362  71.241  1.00  0.00    -0.130 A  
HETATM    7  N   UNL     1      -8.361   4.497  72.106  1.00  0.00    -0.108 NA 
HETATM    8  N   UNL     1      -7.956   5.187  73.205  1.00  0.00    -0.107 NA 
HETATM    9  C   UNL     1      -8.210   6.461  72.995  1.00  0.00    -0.116 A  
HETATM   10  N   UNL     1      -8.585   6.670  71.667  1.00  0.00    -0.124 NA 
HETATM   11 BR   UNL     1      -8.305   7.650  74.451  1.00  0.00    -0.256 Br 
BRANCH  10  12
HETATM   12  C   UNL     1      -8.772   7.939  71.010  1.00  0.00    -0.133 A  
HETATM   13  C   UNL     1      -7.738   8.442  70.219  1.00  0.00    -0.080 A  
HETATM   14  C   UNL     1      -7.929   9.580  69.438  1.00  0.00    -0.099 A  
HETATM   15  C   UNL     1      -9.164  10.238  69.360  1.00  0.00    -0.206 A  
HETATM   16  C   UNL     1     -11.460  10.447  70.219  1.00  0.00    -0.406 A  
HETATM   17  C   UNL     1     -10.209   9.786  70.210  1.00  0.00    -0.346 A  
HETATM   18  C   UNL     1     -12.501  10.064  71.061  1.00  0.00    -0.460 A  
HETATM   19  C   UNL     1     -10.010   8.669  71.085  1.00  0.00    -0.289 A  
HETATM   20  C   UNL     1     -11.055   8.400  72.013  1.00  0.00    -0.397 A  
HETATM   21  C   UNL     1     -12.289   9.055  71.977  1.00  0.00    -0.455 A  
BRANCH  15  22
HETATM   22  C   UNL     1      -9.268  11.423  68.406  1.00  0.00    -0.183 C  
HETATM   23  C   UNL     1      -8.095  11.701  67.482  1.00  0.00    -0.144 C  
HETATM   24  C   UNL     1      -9.402  11.267  66.911  1.00  0.00    -0.190 C  
ENDBRANCH  15  22
ENDBRANCH  10  12
ENDBRANCH   5   6
ENDBRANCH   4   5
TORSDOF 4
ENDMDL
MODEL      165
REMARK 921   NORMALIZED FREE ENERGY PREDICTED BY IDOCK:   -4.22 KCAL/MOL
REMARK 922        TOTAL FREE ENERGY PREDICTED BY IDOCK:   -6.09 KCAL/MOL
REMARK 923 INTER-LIGAND FREE ENERGY PREDICTED BY IDOCK:   -5.01 KCAL/MOL
REMARK 924 INTRA-LIGAND FREE ENERGY PREDICTED BY IDOCK:   -1.08 KCAL/MOL
REMARK 927      BINDING AFFINITY PREDICTED BY RF-SCORE:    0.00 PKD
ROOT
HETATM    1  O   UNL     1      -8.641   5.311  65.496  1.00  0.00    -0.135 OA 
HETATM    2  C   UNL     1      -9.763   5.490  66.235  1.00  0.00    -0.151 C  
HETATM    3  O   UNL     1     -10.579   4.598  66.383  1.00  0.00    -0.252 OA 
HETATM    4  C   UNL     1      -9.872   6.844  66.916  1.00  0.00    -0.183 C  
ENDROOT
BRANCH   4   5
HETATM    5  S   UNL     1      -8.947   8.156  66.020  1.00  0.00    -0.149 SA 
BRANCH   5   6
HETATM    6  C   UNL     1      -7.759   8.549  67.229  1.00  0.00    -0.097 A  
HETATM    7  N   UNL     1      -6.704   7.786  67.410  1.00  0.00    -0.066 NA 
HETATM    8  N   UNL     1      -6.040   8.246  68.504  1.00  0.00    -0.044 NA 
HETATM    9  C   UNL     1      -6.710   9.275  68.977  1.00  0.00    -0.051 A  
HETATM   10  N   UNL     1      -7.710   9.657  68.082  1.00  0.00    -0.086 NA 
HETATM   11 BR   UNL     1      -6.434   9.837  70.752  1.00  0.00    -0.070 Br 
BRANCH  10  12
HETATM   12  C   UNL     1      -8.535  10.837  68.158  1.00  0.00    -0.125 A  
HETATM   13  C   UNL     1      -8.205  11.936  67.364  1.00  0.00    -0.164 A  
HETATM   14  C   UNL     1      -9.057  13.035  67.281  1.00  0.00    -0.209 A  
HETATM   15  C   UNL     1     -10.298  13.073  67.933  1.00  0.00    -0.233 A  
HETATM   16  C   UNL     1     -11.833  12.009  69.534  1.00  0.00    -0.390 A  
HETATM   17  C   UNL     1     -10.621  11.998  68.802  1.00  0.00    -0.237 A  
HETATM   18  C   UNL     1     -12.176  10.996  70.425  1.00  0.00    -0.461 A  
HETATM   19  C   UNL     1      -9.721  10.896  68.970  1.00  0.00    -0.181 A  
HETATM   20  C   UNL     1     -10.058   9.955  69.984  1.00  0.00    -0.308 A  
HETATM   21  C   UNL     1     -11.275   9.980  70.670  1.00  0.00    -0.425 A  
BRANCH  15  22
HETATM   22  C   UNL     1     -11.176  14.298  67.697  1.00  0.00    -0.321 C  
HETATM   23  C   UNL     1     -10.891  15.157  66.477  1.00  0.00    -0.317 C  
HETATM   24  C   UNL     1     -12.168  14.392  66.564  1.00  0.00    -0.358 C  
ENDBRANCH  15  22
ENDBRANCH  10  12
ENDBRANCH   5   6
ENDBRANCH   4   5
TORSDOF 4
ENDMDL
MODEL      166
REMARK 921   NORMALIZED FREE ENERGY PREDICTED BY IDOCK:   -4.20 KCAL/MOL
REMARK 922        TOTAL FREE ENERGY PREDICTED BY IDOCK:   -6.07 KCAL/MOL
REMARK 923 INTER-LIGAND FREE ENERGY PREDICTED BY IDOCK:   -5.03 KCAL/MOL
REMARK 924 INTRA-LIGAND FREE ENERGY PREDICTED BY IDOCK:   -1.03 KCAL/MOL
REMARK 927      BINDING AFFINITY PREDICTED BY RF-SCORE:    0.00 PKD
ROOT
HETATM    1  O   UNL     1      -5.606  17.915  68.363  1.00  0.00    -0.160 OA 
HETATM    2  C   UNL     1      -6.332  19.024  68.075  1.00  0.00    -0.216 C  
HETATM    3  O   UNL     1      -6.327  19.998  68.806  1.00  0.00    -0.273 OA 
HETATM    4  C   UNL     1      -7.072  18.977  66.749  1.00  0.00    -0.205 C  
ENDROOT
BRANCH   4   5
HETATM    5  S   UNL     1      -7.468  17.259  66.226  1.00  0.00    -0.297 SA 
BRANCH   5   6
HETATM    6  C   UNL     1      -9.020  17.074  66.990  1.00  0.00    -0.221 A  
HETATM    7  N   UNL     1      -9.802  18.112  67.184  1.00  0.00    -0.304 NA 
HETATM    8  N   UNL     1     -10.865  17.700  67.925  1.00  0.00    -0.324 NA 
HETATM    9  C   UNL     1     -10.705  16.419  68.179  1.00  0.00    -0.336 A  
HETATM   10  N   UNL     1      -9.646  15.903  67.429  1.00  0.00    -0.220 NA 
HETATM   11 BR   UNL     1     -11.647  15.620  69.599  1.00  0.00    -0.386 Br 
BRANCH  10  12
HETATM   12  C   UNL     1      -9.273  14.517  67.298  1.00  0.00    -0.207 A  
HETATM   13  C   UNL     1     -10.057  13.685  66.498  1.00  0.00    -0.286 A  
HETATM   14  C   UNL     1      -9.651  12.384  66.212  1.00  0.00    -0.245 A  
HETATM   15  C   UNL     1      -8.426  11.866  66.656  1.00  0.00    -0.143 A  
HETATM   16  C   UNL     1      -6.429  12.177  68.058  1.00  0.00    -0.069 A  
HETATM   17  C   UNL     1      -7.646  12.669  67.530  1.00  0.00    -0.160 A  
HETATM   18  C   UNL     1      -5.649  12.913  68.946  1.00  0.00    -0.072 A  
HETATM   19  C   UNL     1      -8.085  13.980  67.907  1.00  0.00    -0.156 A  
HETATM   20  C   UNL     1      -7.321  14.636  68.913  1.00  0.00    -0.128 A  
HETATM   21  C   UNL     1      -6.109  14.134  69.394  1.00  0.00    -0.104 A  
BRANCH  15  22
HETATM   22  C   UNL     1      -8.057  10.456  66.206  1.00  0.00    -0.136 C  
HETATM   23  C   UNL     1      -9.136   9.387  66.250  1.00  0.00    -0.204 C  
HETATM   24  C   UNL     1      -8.586   9.832  64.938  1.00  0.00    -0.183 C  
ENDBRANCH  15  22
ENDBRANCH  10  12
ENDBRANCH   5   6
ENDBRANCH   4   5
TORSDOF 4
ENDMDL
MODEL      167
REMARK 921   NORMALIZED FREE ENERGY PREDICTED BY IDOCK:   -4.20 KCAL/MOL
REMARK 922        TOTAL FREE ENERGY PREDICTED BY IDOCK:   -6.06 KCAL/MOL
REMARK 923 INTER-LIGAND FREE ENERGY PREDICTED BY IDOCK:   -5.48 KCAL/MOL
REMARK 924 INTRA-LIGAND FREE ENERGY PREDICTED BY IDOCK:   -0.57 KCAL/MOL
REMARK 927      BINDING AFFINITY PREDICTED BY RF-SCORE:    0.00 PKD
ROOT
HETATM    1  O   UNL     1     -13.628  15.483  70.884  1.00  0.00    -0.520 OA 
HETATM    2  C   UNL     1     -13.059  14.257  70.977  1.00  0.00    -0.328 C  
HETATM    3  O   UNL     1     -13.142  13.590  71.993  1.00  0.00    -0.373 OA 
HETATM    4  C   UNL     1     -12.394  13.762  69.703  1.00  0.00    -0.232 C  
ENDROOT
BRANCH   4   5
HETATM    5  S   UNL     1     -11.823  15.140  68.629  1.00  0.00    -0.259 SA 
BRANCH   5   6
HETATM    6  C   UNL     1     -11.826  14.328  67.091  1.00  0.00    -0.425 A  
HETATM    7  N   UNL     1     -12.751  14.587  66.194  1.00  0.00    -0.089 NA 
HETATM    8  N   UNL     1     -12.594  13.710  65.168  1.00  0.00    -0.605 NA 
HETATM    9  C   UNL     1     -11.582  12.923  65.463  1.00  0.00    -0.358 A  
HETATM   10  N   UNL     1     -10.907  13.401  66.588  1.00  0.00    -0.281 NA 
HETATM   11 BR   UNL     1     -11.393  11.270  64.585  1.00  0.00     0.069 Br 
BRANCH  10  12
HETATM   12  C   UNL     1      -9.656  12.919  67.115  1.00  0.00    -0.225 A  
HETATM   13  C   UNL     1      -8.500  13.668  66.887  1.00  0.00    -0.073 A  
HETATM   14  C   UNL     1      -7.300  13.332  67.507  1.00  0.00    -0.159 A  
HETATM   15  C   UNL     1      -7.199  12.277  68.425  1.00  0.00    -0.102 A  
HETATM   16  C   UNL     1      -8.286  10.342  69.486  1.00  0.00    -0.165 A  
HETATM   17  C   UNL     1      -8.343  11.458  68.618  1.00  0.00    -0.136 A  
HETATM   18  C   UNL     1      -9.369   9.489  69.680  1.00  0.00    -0.213 A  
HETATM   19  C   UNL     1      -9.566  11.733  67.925  1.00  0.00    -0.187 A  
HETATM   20  C   UNL     1     -10.599  10.762  68.057  1.00  0.00    -0.245 A  
HETATM   21  C   UNL     1     -10.520   9.685  68.944  1.00  0.00    -0.234 A  
BRANCH  15  22
HETATM   22  C   UNL     1      -5.848  12.061  69.100  1.00  0.00    -0.068 C  
HETATM   23  C   UNL     1      -5.462  12.991  70.237  1.00  0.00    -0.132 C  
HETATM   24  C   UNL     1      -5.707  11.546  70.511  1.00  0.00    -0.146 C  
ENDBRANCH  15  22
ENDBRANCH  10  12
ENDBRANCH   5   6
ENDBRANCH   4   5
TORSDOF 4
ENDMDL
MODEL      168
REMARK 921   NORMALIZED FREE ENERGY PREDICTED BY IDOCK:   -4.19 KCAL/MOL
REMARK 922        TOTAL FREE ENERGY PREDICTED BY IDOCK:   -6.05 KCAL/MOL
REMARK 923 INTER-LIGAND FREE ENERGY PREDICTED BY IDOCK:   -5.04 KCAL/MOL
REMARK 924 INTRA-LIGAND FREE ENERGY PREDICTED BY IDOCK:   -1.00 KCAL/MOL
REMARK 927      BINDING AFFINITY PREDICTED BY RF-SCORE:    0.00 PKD
ROOT
HETATM    1  O   UNL     1      -7.948   6.476  65.146  1.00  0.00    -0.111 OA 
HETATM    2  C   UNL     1      -8.071   5.483  66.060  1.00  0.00    -0.108 C  
HETATM    3  O   UNL     1      -7.513   4.410  65.916  1.00  0.00    -0.079 OA 
HETATM    4  C   UNL     1      -8.883   5.845  67.293  1.00  0.00    -0.106 C  
ENDROOT
BRANCH   4   5
HETATM    5  S   UNL     1     -10.117   7.166  66.957  1.00  0.00    -0.256 SA 
BRANCH   5   6
HETATM    6  C   UNL     1     -10.395   7.722  68.581  1.00  0.00    -0.199 A  
HETATM    7  N   UNL     1     -10.490   6.870  69.578  1.00  0.00    -0.213 NA 
HETATM    8  N   UNL     1     -10.853   7.566  70.688  1.00  0.00    -0.235 NA 
HETATM    9  C   UNL     1     -10.986   8.829  70.344  1.00  0.00    -0.235 A  
HETATM   10  N   UNL     1     -10.500   9.035  69.052  1.00  0.00    -0.223 NA 
HETATM   11 BR   UNL     1     -11.984   9.997  71.432  1.00  0.00    -0.450 Br 
BRANCH  10  12
HETATM   12  C   UNL     1     -10.312  10.301  68.390  1.00  0.00    -0.177 A  
HETATM   13  C   UNL     1     -11.365  10.827  67.639  1.00  0.00    -0.328 A  
HETATM   14  C   UNL     1     -11.291  12.115  67.115  1.00  0.00    -0.393 A  
HETATM   15  C   UNL     1     -10.199  12.962  67.355  1.00  0.00    -0.230 A  
HETATM   16  C   UNL     1      -7.932  13.210  68.277  1.00  0.00    -0.148 A  
HETATM   17  C   UNL     1      -9.087  12.423  68.055  1.00  0.00    -0.195 A  
HETATM   18  C   UNL     1      -6.804  12.715  68.925  1.00  0.00    -0.097 A  
HETATM   19  C   UNL     1      -9.105  11.072  68.531  1.00  0.00    -0.173 A  
HETATM   20  C   UNL     1      -7.885  10.576  69.071  1.00  0.00    -0.129 A  
HETATM   21  C   UNL     1      -6.771  11.388  69.300  1.00  0.00    -0.113 A  
BRANCH  15  22
HETATM   22  C   UNL     1     -10.274  14.379  66.795  1.00  0.00    -0.270 C  
HETATM   23  C   UNL     1     -10.627  14.549  65.328  1.00  0.00    -0.400 C  
HETATM   24  C   UNL     1     -11.569  15.031  66.378  1.00  0.00    -0.172 C  
ENDBRANCH  15  22
ENDBRANCH  10  12
ENDBRANCH   5   6
ENDBRANCH   4   5
TORSDOF 4
ENDMDL
MODEL      169
REMARK 921   NORMALIZED FREE ENERGY PREDICTED BY IDOCK:   -4.18 KCAL/MOL
REMARK 922        TOTAL FREE ENERGY PREDICTED BY IDOCK:   -6.04 KCAL/MOL
REMARK 923 INTER-LIGAND FREE ENERGY PREDICTED BY IDOCK:   -5.24 KCAL/MOL
REMARK 924 INTRA-LIGAND FREE ENERGY PREDICTED BY IDOCK:   -0.80 KCAL/MOL
REMARK 927      BINDING AFFINITY PREDICTED BY RF-SCORE:    0.00 PKD
ROOT
HETATM    1  O   UNL     1      -9.833   7.543  72.427  1.00  0.00    -0.158 OA 
HETATM    2  C   UNL     1     -11.033   7.598  71.799  1.00  0.00    -0.239 C  
HETATM    3  O   UNL     1     -11.849   6.700  71.902  1.00  0.00    -0.303 OA 
HETATM    4  C   UNL     1     -11.298   8.886  71.037  1.00  0.00    -0.291 C  
ENDROOT
BRANCH   4   5
HETATM    5  S   UNL     1      -9.748   9.704  70.481  1.00  0.00    -0.139 SA 
BRANCH   5   6
HETATM    6  C   UNL     1     -10.083   9.833  68.780  1.00  0.00    -0.174 A  
HETATM    7  N   UNL     1     -10.653   8.845  68.128  1.00  0.00    -0.194 NA 
HETATM    8  N   UNL     1     -10.653   9.161  66.806  1.00  0.00    -0.191 NA 
HETATM    9  C   UNL     1     -10.071  10.334  66.674  1.00  0.00    -0.223 A  
HETATM   10  N   UNL     1      -9.870  10.920  67.925  1.00  0.00    -0.169 NA 
HETATM   11 BR   UNL     1      -9.396  10.862  64.999  1.00  0.00    -0.273 Br 
BRANCH  10  12
HETATM   12  C   UNL     1      -9.423  12.265  68.188  1.00  0.00    -0.213 A  
HETATM   13  C   UNL     1      -8.134  12.632  67.797  1.00  0.00    -0.166 A  
HETATM   14  C   UNL     1      -7.715  13.957  67.883  1.00  0.00    -0.161 A  
HETATM   15  C   UNL     1      -8.566  14.988  68.306  1.00  0.00    -0.156 A  
HETATM   16  C   UNL     1     -10.739  15.618  69.270  1.00  0.00    -0.239 A  
HETATM   17  C   UNL     1      -9.856  14.628  68.776  1.00  0.00    -0.227 A  
HETATM   18  C   UNL     1     -11.999  15.309  69.775  1.00  0.00    -0.374 A  
HETATM   19  C   UNL     1     -10.281  13.260  68.777  1.00  0.00    -0.119 A  
HETATM   20  C   UNL     1     -11.521  12.984  69.418  1.00  0.00    -0.323 A  
HETATM   21  C   UNL     1     -12.381  13.987  69.873  1.00  0.00    -0.367 A  
BRANCH  15  22
HETATM   22  C   UNL     1      -8.013  16.409  68.278  1.00  0.00    -0.170 C  
HETATM   23  C   UNL     1      -6.987  16.797  69.329  1.00  0.00    -0.216 C  
HETATM   24  C   UNL     1      -6.589  16.731  67.893  1.00  0.00    -0.153 C  
ENDBRANCH  15  22
ENDBRANCH  10  12
ENDBRANCH   5   6
ENDBRANCH   4   5
TORSDOF 4
ENDMDL
MODEL      170
REMARK 921   NORMALIZED FREE ENERGY PREDICTED BY IDOCK:   -4.18 KCAL/MOL
REMARK 922        TOTAL FREE ENERGY PREDICTED BY IDOCK:   -6.04 KCAL/MOL
REMARK 923 INTER-LIGAND FREE ENERGY PREDICTED BY IDOCK:   -5.07 KCAL/MOL
REMARK 924 INTRA-LIGAND FREE ENERGY PREDICTED BY IDOCK:   -0.97 KCAL/MOL
REMARK 927      BINDING AFFINITY PREDICTED BY RF-SCORE:    0.00 PKD
ROOT
HETATM    1  O   UNL     1      -8.119   8.845  72.292  1.00  0.00    -0.376 OA 
HETATM    2  C   UNL     1      -8.470   7.748  71.576  1.00  0.00    -0.117 C  
HETATM    3  O   UNL     1      -7.943   6.667  71.765  1.00  0.00    -0.102 OA 
HETATM    4  C   UNL     1      -9.611   7.963  70.595  1.00  0.00    -0.166 C  
ENDROOT
BRANCH   4   5
HETATM    5  S   UNL     1      -9.730   9.709  70.029  1.00  0.00    -0.249 SA 
BRANCH   5   6
HETATM    6  C   UNL     1      -9.259   9.507  68.367  1.00  0.00    -0.130 A  
HETATM    7  N   UNL     1      -9.220   8.313  67.818  1.00  0.00    -0.134 NA 
HETATM    8  N   UNL     1      -8.680   8.442  66.577  1.00  0.00    -0.128 NA 
HETATM    9  C   UNL     1      -8.388   9.712  66.397  1.00  0.00    -0.119 A  
HETATM   10  N   UNL     1      -8.928  10.486  67.425  1.00  0.00    -0.135 NA 
HETATM   11 BR   UNL     1      -7.155  10.210  65.065  1.00  0.00    -0.117 Br 
BRANCH  10  12
HETATM   12  C   UNL     1      -8.975  11.925  67.492  1.00  0.00    -0.171 A  
HETATM   13  C   UNL     1      -7.892  12.605  68.053  1.00  0.00    -0.149 A  
HETATM   14  C   UNL     1      -7.817  13.994  67.996  1.00  0.00    -0.152 A  
HETATM   15  C   UNL     1      -8.778  14.771  67.333  1.00  0.00    -0.210 A  
HETATM   16  C   UNL     1     -10.956  14.845  66.192  1.00  0.00    -0.334 A  
HETATM   17  C   UNL     1      -9.924  14.108  66.818  1.00  0.00    -0.267 A  
HETATM   18  C   UNL     1     -12.113  14.244  65.704  1.00  0.00    -0.399 A  
HETATM   19  C   UNL     1     -10.064  12.687  66.940  1.00  0.00    -0.234 A  
HETATM   20  C   UNL     1     -11.317  12.140  66.543  1.00  0.00    -0.405 A  
HETATM   21  C   UNL     1     -12.305  12.893  65.903  1.00  0.00    -0.378 A  
BRANCH  15  22
HETATM   22  C   UNL     1      -8.541  16.276  67.270  1.00  0.00    -0.199 C  
HETATM   23  C   UNL     1      -7.116  16.767  67.080  1.00  0.00    -0.222 C  
HETATM   24  C   UNL     1      -8.126  16.991  66.007  1.00  0.00    -0.178 C  
ENDBRANCH  15  22
ENDBRANCH  10  12
ENDBRANCH   5   6
ENDBRANCH   4   5
TORSDOF 4
ENDMDL
MODEL      171
REMARK 921   NORMALIZED FREE ENERGY PREDICTED BY IDOCK:   -4.16 KCAL/MOL
REMARK 922        TOTAL FREE ENERGY PREDICTED BY IDOCK:   -6.01 KCAL/MOL
REMARK 923 INTER-LIGAND FREE ENERGY PREDICTED BY IDOCK:   -5.03 KCAL/MOL
REMARK 924 INTRA-LIGAND FREE ENERGY PREDICTED BY IDOCK:   -0.98 KCAL/MOL
REMARK 927      BINDING AFFINITY PREDICTED BY RF-SCORE:    0.00 PKD
ROOT
HETATM    1  O   UNL     1      -9.483   7.838  73.439  1.00  0.00    -0.250 OA 
HETATM    2  C   UNL     1     -10.711   7.433  73.032  1.00  0.00    -0.364 C  
HETATM    3  O   UNL     1     -11.217   6.409  73.454  1.00  0.00    -0.125 OA 
HETATM    4  C   UNL     1     -11.419   8.389  72.086  1.00  0.00    -0.372 C  
ENDROOT
BRANCH   4   5
HETATM    5  S   UNL     1     -10.243   9.417  71.117  1.00  0.00    -0.238 SA 
BRANCH   5   6
HETATM    6  C   UNL     1     -10.217   8.507  69.635  1.00  0.00    -0.209 A  
HETATM    7  N   UNL     1     -10.419   7.209  69.638  1.00  0.00    -0.222 NA 
HETATM    8  N   UNL     1     -10.194   6.748  68.379  1.00  0.00    -0.169 NA 
HETATM    9  C   UNL     1      -9.847   7.775  67.633  1.00  0.00    -0.163 A  
HETATM   10  N   UNL     1     -10.048   8.970  68.326  1.00  0.00    -0.185 NA 
HETATM   11 BR   UNL     1      -8.944   7.489  66.007  1.00  0.00    -0.126 Br 
BRANCH  10  12
HETATM   12  C   UNL     1      -9.952  10.306  67.793  1.00  0.00    -0.173 A  
HETATM   13  C   UNL     1     -11.122  10.952  67.392  1.00  0.00    -0.373 A  
HETATM   14  C   UNL     1     -11.103  12.295  67.023  1.00  0.00    -0.339 A  
HETATM   15  C   UNL     1      -9.939  13.074  67.087  1.00  0.00    -0.235 A  
HETATM   16  C   UNL     1      -7.506  13.141  67.446  1.00  0.00    -0.131 A  
HETATM   17  C   UNL     1      -8.724  12.420  67.423  1.00  0.00    -0.183 A  
HETATM   18  C   UNL     1      -6.286  12.537  67.734  1.00  0.00    -0.119 A  
HETATM   19  C   UNL     1      -8.704  11.020  67.724  1.00  0.00    -0.130 A  
HETATM   20  C   UNL     1      -7.421  10.426  67.885  1.00  0.00    -0.087 A  
HETATM   21  C   UNL     1      -6.239  11.172  67.928  1.00  0.00    -0.053 A  
BRANCH  15  22
HETATM   22  C   UNL     1     -10.065  14.553  66.735  1.00  0.00    -0.264 C  
HETATM   23  C   UNL     1     -11.420  15.065  66.279  1.00  0.00    -0.214 C  
HETATM   24  C   UNL     1     -10.846  15.534  67.574  1.00  0.00    -0.306 C  
ENDBRANCH  15  22
ENDBRANCH  10  12
ENDBRANCH   5   6
ENDBRANCH   4   5
TORSDOF 4
ENDMDL
MODEL      172
REMARK 921   NORMALIZED FREE ENERGY PREDICTED BY IDOCK:   -4.15 KCAL/MOL
REMARK 922        TOTAL FREE ENERGY PREDICTED BY IDOCK:   -6.00 KCAL/MOL
REMARK 923 INTER-LIGAND FREE ENERGY PREDICTED BY IDOCK:   -5.21 KCAL/MOL
REMARK 924 INTRA-LIGAND FREE ENERGY PREDICTED BY IDOCK:   -0.79 KCAL/MOL
REMARK 927      BINDING AFFINITY PREDICTED BY RF-SCORE:    0.00 PKD
ROOT
HETATM    1  O   UNL     1      -9.506   7.368  67.115  1.00  0.00    -0.137 OA 
HETATM    2  C   UNL     1      -9.566   6.524  68.173  1.00  0.00    -0.123 C  
HETATM    3  O   UNL     1     -10.615   6.015  68.526  1.00  0.00    -0.210 OA 
HETATM    4  C   UNL     1      -8.226   6.210  68.819  1.00  0.00    -0.108 C  
ENDROOT
BRANCH   4   5
HETATM    5  S   UNL     1      -6.999   7.558  68.579  1.00  0.00    -0.081 SA 
BRANCH   5   6
HETATM    6  C   UNL     1      -6.792   8.058  70.232  1.00  0.00    -0.037 A  
HETATM    7  N   UNL     1      -5.591   8.180  70.753  1.00  0.00    -0.029 NA 
HETATM    8  N   UNL     1      -5.737   8.432  72.081  1.00  0.00    -0.042 NA 
HETATM    9  C   UNL     1      -7.025   8.448  72.347  1.00  0.00    -0.088 A  
HETATM   10  N   UNL     1      -7.767   8.426  71.165  1.00  0.00    -0.090 NA 
HETATM   11 BR   UNL     1      -7.619   8.224  74.119  1.00  0.00    -0.235 Br 
BRANCH  10  12
HETATM   12  C   UNL     1      -9.191   8.606  71.033  1.00  0.00    -0.203 A  
HETATM   13  C   UNL     1     -10.042   7.766  71.752  1.00  0.00    -0.223 A  
HETATM   14  C   UNL     1     -11.414   8.001  71.784  1.00  0.00    -0.324 A  
HETATM   15  C   UNL     1     -12.001   9.108  71.154  1.00  0.00    -0.374 A  
HETATM   16  C   UNL     1     -11.709  11.032  69.649  1.00  0.00    -0.401 A  
HETATM   17  C   UNL     1     -11.165   9.935  70.357  1.00  0.00    -0.379 A  
HETATM   18  C   UNL     1     -10.936  11.849  68.828  1.00  0.00    -0.280 A  
HETATM   19  C   UNL     1      -9.763   9.663  70.241  1.00  0.00    -0.314 A  
HETATM   20  C   UNL     1      -9.044  10.445  69.293  1.00  0.00    -0.188 A  
HETATM   21  C   UNL     1      -9.607  11.539  68.629  1.00  0.00    -0.159 A  
BRANCH  15  22
HETATM   22  C   UNL     1     -13.503   9.301  71.331  1.00  0.00    -0.384 C  
HETATM   23  C   UNL     1     -14.364   8.065  71.529  1.00  0.00    -0.546 C  
HETATM   24  C   UNL     1     -14.216   9.052  72.637  1.00  0.00    -0.254 C  
ENDBRANCH  15  22
ENDBRANCH  10  12
ENDBRANCH   5   6
ENDBRANCH   4   5
TORSDOF 4
ENDMDL
MODEL      173
REMARK 921   NORMALIZED FREE ENERGY PREDICTED BY IDOCK:   -4.15 KCAL/MOL
REMARK 922        TOTAL FREE ENERGY PREDICTED BY IDOCK:   -6.00 KCAL/MOL
REMARK 923 INTER-LIGAND FREE ENERGY PREDICTED BY IDOCK:   -4.92 KCAL/MOL
REMARK 924 INTRA-LIGAND FREE ENERGY PREDICTED BY IDOCK:   -1.08 KCAL/MOL
REMARK 927      BINDING AFFINITY PREDICTED BY RF-SCORE:    0.00 PKD
ROOT
HETATM    1  O   UNL     1      -6.890   9.017  73.177  1.00  0.00    -0.324 OA 
HETATM    2  C   UNL     1      -6.933   7.712  72.813  1.00  0.00    -0.071 C  
HETATM    3  O   UNL     1      -5.921   7.038  72.731  1.00  0.00    -0.042 OA 
HETATM    4  C   UNL     1      -8.330   7.153  72.600  1.00  0.00    -0.107 C  
ENDROOT
BRANCH   4   5
HETATM    5  S   UNL     1      -9.539   8.452  72.117  1.00  0.00    -0.319 SA 
BRANCH   5   6
HETATM    6  C   UNL     1     -10.313   7.645  70.785  1.00  0.00    -0.203 A  
HETATM    7  N   UNL     1     -10.754   6.413  70.909  1.00  0.00    -0.239 NA 
HETATM    8  N   UNL     1     -11.169   5.993  69.684  1.00  0.00    -0.408 NA 
HETATM    9  C   UNL     1     -10.961   6.975  68.832  1.00  0.00    -0.118 A  
HETATM   10  N   UNL     1     -10.610   8.142  69.512  1.00  0.00    -0.227 NA 
HETATM   11 BR   UNL     1     -10.890   6.615  66.986  1.00  0.00    -0.432 Br 
BRANCH  10  12
HETATM   12  C   UNL     1     -10.474   9.463  68.951  1.00  0.00    -0.216 A  
HETATM   13  C   UNL     1     -11.595  10.295  68.917  1.00  0.00    -0.132 A  
HETATM   14  C   UNL     1     -11.479  11.629  68.535  1.00  0.00    -0.358 A  
HETATM   15  C   UNL     1     -10.245  12.216  68.223  1.00  0.00    -0.209 A  
HETATM   16  C   UNL     1      -7.840  11.894  67.815  1.00  0.00    -0.138 A  
HETATM   17  C   UNL     1      -9.103  11.372  68.181  1.00  0.00    -0.174 A  
HETATM   18  C   UNL     1      -6.701  11.099  67.724  1.00  0.00    -0.065 A  
HETATM   19  C   UNL     1      -9.212   9.976  68.488  1.00  0.00    -0.141 A  
HETATM   20  C   UNL     1      -8.051   9.186  68.257  1.00  0.00    -0.104 A  
HETATM   21  C   UNL     1      -6.812   9.738  67.920  1.00  0.00    -0.073 A  
BRANCH  15  22
HETATM   22  C   UNL     1     -10.239  13.706  67.899  1.00  0.00    -0.250 C  
HETATM   23  C   UNL     1     -11.499  14.504  68.185  1.00  0.00    -0.337 C  
HETATM   24  C   UNL     1     -10.256  14.779  68.960  1.00  0.00    -0.237 C  
ENDBRANCH  15  22
ENDBRANCH  10  12
ENDBRANCH   5   6
ENDBRANCH   4   5
TORSDOF 4
ENDMDL
MODEL      174
REMARK 921   NORMALIZED FREE ENERGY PREDICTED BY IDOCK:   -4.14 KCAL/MOL
REMARK 922        TOTAL FREE ENERGY PREDICTED BY IDOCK:   -5.99 KCAL/MOL
REMARK 923 INTER-LIGAND FREE ENERGY PREDICTED BY IDOCK:   -4.89 KCAL/MOL
REMARK 924 INTRA-LIGAND FREE ENERGY PREDICTED BY IDOCK:   -1.10 KCAL/MOL
REMARK 927      BINDING AFFINITY PREDICTED BY RF-SCORE:    0.00 PKD
ROOT
HETATM    1  O   UNL     1     -11.451  12.098  68.358  1.00  0.00    -0.256 OA 
HETATM    2  C   UNL     1     -11.082  13.148  67.585  1.00  0.00    -0.270 C  
HETATM    3  O   UNL     1     -11.802  14.120  67.441  1.00  0.00    -0.374 OA 
HETATM    4  C   UNL     1      -9.686  13.045  66.991  1.00  0.00    -0.235 C  
ENDROOT
BRANCH   4   5
HETATM    5  S   UNL     1      -9.140  11.302  66.783  1.00  0.00    -0.180 SA 
BRANCH   5   6
HETATM    6  C   UNL     1      -8.078  11.166  68.154  1.00  0.00    -0.128 A  
HETATM    7  N   UNL     1      -7.374  12.197  68.565  1.00  0.00    -0.101 NA 
HETATM    8  N   UNL     1      -6.534  11.766  69.543  1.00  0.00    -0.118 NA 
HETATM    9  C   UNL     1      -6.733  10.475  69.702  1.00  0.00    -0.108 A  
HETATM   10  N   UNL     1      -7.861  10.065  68.989  1.00  0.00    -0.093 NA 
HETATM   11 BR   UNL     1      -5.422   9.422  70.548  1.00  0.00    -0.040 Br 
BRANCH  10  12
HETATM   12  C   UNL     1      -8.501   8.776  69.049  1.00  0.00    -0.130 A  
HETATM   13  C   UNL     1      -7.992   7.738  68.266  1.00  0.00    -0.122 A  
HETATM   14  C   UNL     1      -8.471   6.439  68.407  1.00  0.00    -0.116 A  
HETATM   15  C   UNL     1      -9.434   6.094  69.366  1.00  0.00    -0.153 A  
HETATM   16  C   UNL     1     -11.037   6.866  71.065  1.00  0.00    -0.305 A  
HETATM   17  C   UNL     1     -10.018   7.144  70.123  1.00  0.00    -0.190 A  
HETATM   18  C   UNL     1     -11.664   7.866  71.803  1.00  0.00    -0.329 A  
HETATM   19  C   UNL     1      -9.601   8.502  69.936  1.00  0.00    -0.171 A  
HETATM   20  C   UNL     1     -10.358   9.495  70.618  1.00  0.00    -0.369 A  
HETATM   21  C   UNL     1     -11.342   9.185  71.561  1.00  0.00    -0.439 A  
BRANCH  15  22
HETATM   22  C   UNL     1      -9.817   4.622  69.478  1.00  0.00    -0.286 C  
HETATM   23  C   UNL     1      -9.377   3.683  68.368  1.00  0.00    -0.225 C  
HETATM   24  C   UNL     1      -8.811   3.528  69.738  1.00  0.00    -0.151 C  
ENDBRANCH  15  22
ENDBRANCH  10  12
ENDBRANCH   5   6
ENDBRANCH   4   5
TORSDOF 4
ENDMDL
MODEL      175
REMARK 921   NORMALIZED FREE ENERGY PREDICTED BY IDOCK:   -4.14 KCAL/MOL
REMARK 922        TOTAL FREE ENERGY PREDICTED BY IDOCK:   -5.98 KCAL/MOL
REMARK 923 INTER-LIGAND FREE ENERGY PREDICTED BY IDOCK:   -5.26 KCAL/MOL
REMARK 924 INTRA-LIGAND FREE ENERGY PREDICTED BY IDOCK:   -0.72 KCAL/MOL
REMARK 927      BINDING AFFINITY PREDICTED BY RF-SCORE:    0.00 PKD
ROOT
HETATM    1  O   UNL     1     -13.520  13.980  70.341  1.00  0.00     0.126 OA 
HETATM    2  C   UNL     1     -12.824  13.596  71.439  1.00  0.00    -0.360 C  
HETATM    3  O   UNL     1     -12.358  14.409  72.217  1.00  0.00    -0.285 OA 
HETATM    4  C   UNL     1     -12.748  12.094  71.655  1.00  0.00    -0.209 C  
ENDROOT
BRANCH   4   5
HETATM    5  S   UNL     1     -12.896  11.151  70.084  1.00  0.00     0.112 SA 
BRANCH   5   6
HETATM    6  C   UNL     1     -11.304  11.419  69.435  1.00  0.00    -0.297 A  
HETATM    7  N   UNL     1     -10.977  12.580  68.913  1.00  0.00    -0.240 NA 
HETATM    8  N   UNL     1      -9.742  12.454  68.358  1.00  0.00    -0.213 NA 
HETATM    9  C   UNL     1      -9.344  11.214  68.541  1.00  0.00    -0.190 A  
HETATM   10  N   UNL     1     -10.209  10.549  69.412  1.00  0.00    -0.228 NA 
HETATM   11 BR   UNL     1      -7.967  10.503  67.472  1.00  0.00    -0.107 Br 
BRANCH  10  12
HETATM   12  C   UNL     1     -10.019   9.244  69.992  1.00  0.00    -0.209 A  
HETATM   13  C   UNL     1      -9.657   9.154  71.337  1.00  0.00    -0.316 A  
HETATM   14  C   UNL     1      -9.618   7.921  71.983  1.00  0.00    -0.242 A  
HETATM   15  C   UNL     1      -9.988   6.728  71.346  1.00  0.00    -0.191 A  
HETATM   16  C   UNL     1     -10.614   5.606  69.248  1.00  0.00    -0.359 A  
HETATM   17  C   UNL     1     -10.290   6.785  69.960  1.00  0.00    -0.225 A  
HETATM   18  C   UNL     1     -10.881   5.607  67.882  1.00  0.00    -0.171 A  
HETATM   19  C   UNL     1     -10.255   8.031  69.253  1.00  0.00    -0.214 A  
HETATM   20  C   UNL     1     -10.409   7.960  67.840  1.00  0.00    -0.281 A  
HETATM   21  C   UNL     1     -10.753   6.782  67.171  1.00  0.00    -0.441 A  
BRANCH  15  22
HETATM   22  C   UNL     1      -9.982   5.454  72.185  1.00  0.00    -0.226 C  
HETATM   23  C   UNL     1     -10.227   5.582  73.679  1.00  0.00    -0.237 C  
HETATM   24  C   UNL     1     -11.226   4.882  72.820  1.00  0.00    -0.260 C  
ENDBRANCH  15  22
ENDBRANCH  10  12
ENDBRANCH   5   6
ENDBRANCH   4   5
TORSDOF 4
ENDMDL
MODEL      176
REMARK 921   NORMALIZED FREE ENERGY PREDICTED BY IDOCK:   -4.13 KCAL/MOL
REMARK 922        TOTAL FREE ENERGY PREDICTED BY IDOCK:   -5.98 KCAL/MOL
REMARK 923 INTER-LIGAND FREE ENERGY PREDICTED BY IDOCK:   -5.14 KCAL/MOL
REMARK 924 INTRA-LIGAND FREE ENERGY PREDICTED BY IDOCK:   -0.84 KCAL/MOL
REMARK 927      BINDING AFFINITY PREDICTED BY RF-SCORE:    0.00 PKD
ROOT
HETATM    1  O   UNL     1     -11.662  14.468  66.129  1.00  0.00    -0.366 OA 
HETATM    2  C   UNL     1     -12.083  13.227  65.784  1.00  0.00    -0.441 C  
HETATM    3  O   UNL     1     -12.941  13.055  64.937  1.00  0.00    -0.739 OA 
HETATM    4  C   UNL     1     -11.349  12.088  66.473  1.00  0.00    -0.354 C  
ENDROOT
BRANCH   4   5
HETATM    5  S   UNL     1     -10.660  12.583  68.104  1.00  0.00    -0.233 SA 
BRANCH   5   6
HETATM    6  C   UNL     1     -11.368  11.348  69.103  1.00  0.00    -0.288 A  
HETATM    7  N   UNL     1     -12.637  11.399  69.439  1.00  0.00    -0.140 NA 
HETATM    8  N   UNL     1     -12.872  10.403  70.334  1.00  0.00    -0.265 NA 
HETATM    9  C   UNL     1     -11.737   9.769  70.537  1.00  0.00    -0.268 A  
HETATM   10  N   UNL     1     -10.775  10.189  69.617  1.00  0.00    -0.245 NA 
HETATM   11 BR   UNL     1     -11.518   8.707  72.075  1.00  0.00    -0.444 Br 
BRANCH  10  12
HETATM   12  C   UNL     1      -9.471   9.613  69.404  1.00  0.00    -0.192 A  
HETATM   13  C   UNL     1      -8.520   9.713  70.421  1.00  0.00    -0.187 A  
HETATM   14  C   UNL     1      -7.306   9.037  70.329  1.00  0.00    -0.076 A  
HETATM   15  C   UNL     1      -7.000   8.187  69.257  1.00  0.00    -0.055 A  
HETATM   16  C   UNL     1      -7.640   7.332  67.041  1.00  0.00    -0.106 A  
HETATM   17  C   UNL     1      -7.921   8.126  68.178  1.00  0.00    -0.127 A  
HETATM   18  C   UNL     1      -8.495   7.268  65.944  1.00  0.00    -0.148 A  
HETATM   19  C   UNL     1      -9.140   8.880  68.211  1.00  0.00    -0.140 A  
HETATM   20  C   UNL     1      -9.914   8.881  67.017  1.00  0.00    -0.300 A  
HETATM   21  C   UNL     1      -9.621   8.065  65.921  1.00  0.00     0.038 A  
BRANCH  15  22
HETATM   22  C   UNL     1      -5.672   7.439  69.312  1.00  0.00    -0.026 C  
HETATM   23  C   UNL     1      -5.129   7.049  70.676  1.00  0.00    -0.023 C  
HETATM   24  C   UNL     1      -5.560   5.990  69.718  1.00  0.00    -0.013 C  
ENDBRANCH  15  22
ENDBRANCH  10  12
ENDBRANCH   5   6
ENDBRANCH   4   5
TORSDOF 4
ENDMDL
MODEL      177
REMARK 921   NORMALIZED FREE ENERGY PREDICTED BY IDOCK:   -4.11 KCAL/MOL
REMARK 922        TOTAL FREE ENERGY PREDICTED BY IDOCK:   -5.96 KCAL/MOL
REMARK 923 INTER-LIGAND FREE ENERGY PREDICTED BY IDOCK:   -5.13 KCAL/MOL
REMARK 924 INTRA-LIGAND FREE ENERGY PREDICTED BY IDOCK:   -0.83 KCAL/MOL
REMARK 927      BINDING AFFINITY PREDICTED BY RF-SCORE:    0.00 PKD
ROOT
HETATM    1  O   UNL     1      -8.038  12.237  66.652  1.00  0.00    -0.079 OA 
HETATM    2  C   UNL     1      -9.070  11.511  66.158  1.00  0.00    -0.209 C  
HETATM    3  O   UNL     1      -9.517  11.714  65.043  1.00  0.00    -0.205 OA 
HETATM    4  C   UNL     1      -9.558  10.394  67.065  1.00  0.00    -0.166 C  
ENDROOT
BRANCH   4   5
HETATM    5  S   UNL     1      -9.229  10.737  68.841  1.00  0.00    -0.146 SA 
BRANCH   5   6
HETATM    6  C   UNL     1     -10.848  10.611  69.465  1.00  0.00    -0.259 A  
HETATM    7  N   UNL     1     -11.780  11.461  69.097  1.00  0.00    -0.313 NA 
HETATM    8  N   UNL     1     -12.887  11.217  69.847  1.00  0.00    -0.009 NA 
HETATM    9  C   UNL     1     -12.605  10.228  70.668  1.00  0.00    -0.304 A  
HETATM   10  N   UNL     1     -11.380   9.650  70.331  1.00  0.00    -0.264 NA 
HETATM   11 BR   UNL     1     -13.655   9.959  72.207  1.00  0.00    -0.197 Br 
BRANCH  10  12
HETATM   12  C   UNL     1     -10.814   8.442  70.877  1.00  0.00    -0.231 A  
HETATM   13  C   UNL     1     -10.479   8.413  72.232  1.00  0.00    -0.407 A  
HETATM   14  C   UNL     1     -10.081   7.226  72.841  1.00  0.00    -0.272 A  
HETATM   15  C   UNL     1     -10.049   6.004  72.154  1.00  0.00    -0.208 A  
HETATM   16  C   UNL     1     -10.241   4.831  70.000  1.00  0.00    -0.251 A  
HETATM   17  C   UNL     1     -10.315   6.023  70.759  1.00  0.00    -0.280 A  
HETATM   18  C   UNL     1     -10.458   4.806  68.625  1.00  0.00     0.171 A  
HETATM   19  C   UNL     1     -10.645   7.247  70.093  1.00  0.00    -0.245 A  
HETATM   20  C   UNL     1     -10.731   7.191  68.673  1.00  0.00    -0.198 A  
HETATM   21  C   UNL     1     -10.678   5.992  67.956  1.00  0.00    -0.359 A  
BRANCH  15  22
HETATM   22  C   UNL     1      -9.674   4.760  72.953  1.00  0.00    -0.167 C  
HETATM   23  C   UNL     1      -9.989   4.744  74.439  1.00  0.00    -0.225 C  
HETATM   24  C   UNL     1     -10.698   3.807  73.520  1.00  0.00    -0.304 C  
ENDBRANCH  15  22
ENDBRANCH  10  12
ENDBRANCH   5   6
ENDBRANCH   4   5
TORSDOF 4
ENDMDL
MODEL      178
REMARK 921   NORMALIZED FREE ENERGY PREDICTED BY IDOCK:   -4.06 KCAL/MOL
REMARK 922        TOTAL FREE ENERGY PREDICTED BY IDOCK:   -5.89 KCAL/MOL
REMARK 923 INTER-LIGAND FREE ENERGY PREDICTED BY IDOCK:   -4.90 KCAL/MOL
REMARK 924 INTRA-LIGAND FREE ENERGY PREDICTED BY IDOCK:   -1.00 KCAL/MOL
REMARK 927      BINDING AFFINITY PREDICTED BY RF-SCORE:    0.00 PKD
ROOT
HETATM    1  O   UNL     1     -10.616   7.964  72.103  1.00  0.00    -0.221 OA 
HETATM    2  C   UNL     1      -9.559   8.769  71.837  1.00  0.00    -0.302 C  
HETATM    3  O   UNL     1      -8.537   8.721  72.498  1.00  0.00    -0.403 OA 
HETATM    4  C   UNL     1      -9.725   9.662  70.618  1.00  0.00    -0.172 C  
ENDROOT
BRANCH   4   5
HETATM    5  S   UNL     1     -11.489  10.038  70.260  1.00  0.00    -0.306 SA 
BRANCH   5   6
HETATM    6  C   UNL     1     -11.293  11.006  68.828  1.00  0.00    -0.283 A  
HETATM    7  N   UNL     1     -11.703  12.254  68.798  1.00  0.00    -0.324 NA 
HETATM    8  N   UNL     1     -11.561  12.709  67.524  1.00  0.00    -0.339 NA 
HETATM    9  C   UNL     1     -11.079  11.724  66.797  1.00  0.00    -0.306 A  
HETATM   10  N   UNL     1     -10.683  10.664  67.616  1.00  0.00    -0.246 NA 
HETATM   11 BR   UNL     1     -11.251  11.770  64.924  1.00  0.00    -0.291 Br 
BRANCH  10  12
HETATM   12  C   UNL     1      -9.954   9.487  67.216  1.00  0.00    -0.189 A  
HETATM   13  C   UNL     1     -10.655   8.293  67.040  1.00  0.00    -0.328 A  
HETATM   14  C   UNL     1     -10.028   7.172  66.502  1.00  0.00    -0.173 A  
HETATM   15  C   UNL     1      -8.697   7.196  66.061  1.00  0.00    -0.162 A  
HETATM   16  C   UNL     1      -6.580   8.442  65.926  1.00  0.00    -0.053 A  
HETATM   17  C   UNL     1      -7.944   8.378  66.295  1.00  0.00    -0.099 A  
HETATM   18  C   UNL     1      -5.793   9.564  66.169  1.00  0.00    -0.057 A  
HETATM   19  C   UNL     1      -8.545   9.516  66.925  1.00  0.00    -0.132 A  
HETATM   20  C   UNL     1      -7.669  10.585  67.265  1.00  0.00    -0.106 A  
HETATM   21  C   UNL     1      -6.331  10.628  66.862  1.00  0.00    -0.082 A  
BRANCH  15  22
HETATM   22  C   UNL     1      -8.149   5.928  65.414  1.00  0.00    -0.130 C  
HETATM   23  C   UNL     1      -9.131   4.821  65.069  1.00  0.00    -0.150 C  
HETATM   24  C   UNL     1      -8.424   5.553  63.979  1.00  0.00    -0.043 C  
ENDBRANCH  15  22
ENDBRANCH  10  12
ENDBRANCH   5   6
ENDBRANCH   4   5
TORSDOF 4
ENDMDL
MODEL      179
REMARK 921   NORMALIZED FREE ENERGY PREDICTED BY IDOCK:   -4.03 KCAL/MOL
REMARK 922        TOTAL FREE ENERGY PREDICTED BY IDOCK:   -5.85 KCAL/MOL
REMARK 923 INTER-LIGAND FREE ENERGY PREDICTED BY IDOCK:   -5.60 KCAL/MOL
REMARK 924 INTRA-LIGAND FREE ENERGY PREDICTED BY IDOCK:   -0.25 KCAL/MOL
REMARK 927      BINDING AFFINITY PREDICTED BY RF-SCORE:    0.00 PKD
ROOT
HETATM    1  O   UNL     1     -11.236  17.212  68.596  1.00  0.00    -0.164 OA 
HETATM    2  C   UNL     1     -10.857  16.486  69.676  1.00  0.00    -0.322 C  
HETATM    3  O   UNL     1     -11.548  16.424  70.677  1.00  0.00    -0.300 OA 
HETATM    4  C   UNL     1      -9.563  15.709  69.504  1.00  0.00    -0.279 C  
ENDROOT
BRANCH   4   5
HETATM    5  S   UNL     1      -8.438  16.484  68.273  1.00  0.00    -0.207 SA 
BRANCH   5   6
HETATM    6  C   UNL     1      -9.313  16.123  66.814  1.00  0.00    -0.234 A  
HETATM    7  N   UNL     1      -9.561  17.061  65.927  1.00  0.00    -0.526 NA 
HETATM    8  N   UNL     1     -10.379  16.533  64.979  1.00  0.00    -0.594 NA 
HETATM    9  C   UNL     1     -10.626  15.285  65.311  1.00  0.00    -0.417 A  
HETATM   10  N   UNL     1      -9.802  14.891  66.367  1.00  0.00    -0.259 NA 
HETATM   11 BR   UNL     1     -12.113  14.396  64.578  1.00  0.00    -0.477 Br 
BRANCH  10  12
HETATM   12  C   UNL     1      -9.650  13.559  66.896  1.00  0.00    -0.258 A  
HETATM   13  C   UNL     1      -8.543  12.804  66.502  1.00  0.00     0.078 A  
HETATM   14  C   UNL     1      -8.266  11.580  67.104  1.00  0.00    -0.161 A  
HETATM   15  C   UNL     1      -9.036  11.071  68.160  1.00  0.00    -0.155 A  
HETATM   16  C   UNL     1     -11.057  11.292  69.546  1.00  0.00    -0.299 A  
HETATM   17  C   UNL     1     -10.207  11.786  68.528  1.00  0.00    -0.215 A  
HETATM   18  C   UNL     1     -12.233  11.937  69.915  1.00  0.00    -0.269 A  
HETATM   19  C   UNL     1     -10.559  13.006  67.864  1.00  0.00    -0.239 A  
HETATM   20  C   UNL     1     -11.831  13.557  68.188  1.00  0.00    -0.400 A  
HETATM   21  C   UNL     1     -12.635  13.058  69.218  1.00  0.00     0.447 A  
BRANCH  15  22
HETATM   22  C   UNL     1      -8.582   9.759  68.790  1.00  0.00    -0.127 C  
HETATM   23  C   UNL     1      -7.127   9.353  68.625  1.00  0.00    -0.070 C  
HETATM   24  C   UNL     1      -7.653   9.695  69.978  1.00  0.00    -0.151 C  
ENDBRANCH  15  22
ENDBRANCH  10  12
ENDBRANCH   5   6
ENDBRANCH   4   5
TORSDOF 4
ENDMDL
MODEL      180
REMARK 921   NORMALIZED FREE ENERGY PREDICTED BY IDOCK:   -4.02 KCAL/MOL
REMARK 922        TOTAL FREE ENERGY PREDICTED BY IDOCK:   -5.84 KCAL/MOL
REMARK 923 INTER-LIGAND FREE ENERGY PREDICTED BY IDOCK:   -4.72 KCAL/MOL
REMARK 924 INTRA-LIGAND FREE ENERGY PREDICTED BY IDOCK:   -1.12 KCAL/MOL
REMARK 927      BINDING AFFINITY PREDICTED BY RF-SCORE:    0.00 PKD
ROOT
HETATM    1  O   UNL     1      -6.475   3.575  71.727  1.00  0.00    -0.014 OA 
HETATM    2  C   UNL     1      -6.446   2.433  70.997  1.00  0.00    -0.023 C  
HETATM    3  O   UNL     1      -5.408   2.001  70.529  1.00  0.00    -0.004 OA 
HETATM    4  C   UNL     1      -7.779   1.712  70.886  1.00  0.00    -0.032 C  
ENDROOT
BRANCH   4   5
HETATM    5  S   UNL     1      -9.211   2.853  71.053  1.00  0.00    -0.142 SA 
BRANCH   5   6
HETATM    6  C   UNL     1      -9.171   3.598  69.481  1.00  0.00    -0.155 A  
HETATM    7  N   UNL     1      -8.801   2.916  68.421  1.00  0.00    -0.108 NA 
HETATM    8  N   UNL     1      -8.721   3.781  67.375  1.00  0.00    -0.106 NA 
HETATM    9  C   UNL     1      -9.033   4.979  67.820  1.00  0.00    -0.111 A  
HETATM   10  N   UNL     1      -9.539   4.899  69.119  1.00  0.00    -0.148 NA 
HETATM   11 BR   UNL     1      -8.524   6.504  66.842  1.00  0.00    -0.116 Br 
BRANCH  10  12
HETATM   12  C   UNL     1     -10.147   5.962  69.878  1.00  0.00    -0.198 A  
HETATM   13  C   UNL     1     -11.490   6.265  69.648  1.00  0.00    -0.425 A  
HETATM   14  C   UNL     1     -12.165   7.171  70.463  1.00  0.00    -0.173 A  
HETATM   15  C   UNL     1     -11.560   7.775  71.575  1.00  0.00    -0.303 A  
HETATM   16  C   UNL     1      -9.496   8.165  72.855  1.00  0.00    -0.345 A  
HETATM   17  C   UNL     1     -10.176   7.537  71.785  1.00  0.00    -0.216 A  
HETATM   18  C   UNL     1      -8.133   7.991  73.079  1.00  0.00    -0.222 A  
HETATM   19  C   UNL     1      -9.439   6.675  70.908  1.00  0.00    -0.169 A  
HETATM   20  C   UNL     1      -8.030   6.632  71.102  1.00  0.00    -0.107 A  
HETATM   21  C   UNL     1      -7.393   7.244  72.186  1.00  0.00    -0.079 A  
BRANCH  15  22
HETATM   22  C   UNL     1     -12.429   8.684  72.438  1.00  0.00    -0.428 C  
HETATM   23  C   UNL     1     -12.926   9.984  71.829  1.00  0.00    -0.560 C  
HETATM   24  C   UNL     1     -13.898   8.908  72.177  1.00  0.00    -0.531 C  
ENDBRANCH  15  22
ENDBRANCH  10  12
ENDBRANCH   5   6
ENDBRANCH   4   5
TORSDOF 4
ENDMDL
MODEL      181
REMARK 921   NORMALIZED FREE ENERGY PREDICTED BY IDOCK:   -4.01 KCAL/MOL
REMARK 922        TOTAL FREE ENERGY PREDICTED BY IDOCK:   -5.83 KCAL/MOL
REMARK 923 INTER-LIGAND FREE ENERGY PREDICTED BY IDOCK:   -4.79 KCAL/MOL
REMARK 924 INTRA-LIGAND FREE ENERGY PREDICTED BY IDOCK:   -1.04 KCAL/MOL
REMARK 927      BINDING AFFINITY PREDICTED BY RF-SCORE:    0.00 PKD
ROOT
HETATM    1  O   UNL     1      -6.757   4.744  70.838  1.00  0.00    -0.030 OA 
HETATM    2  C   UNL     1      -7.778   4.222  71.560  1.00  0.00    -0.073 C  
HETATM    3  O   UNL     1      -8.029   3.030  71.541  1.00  0.00    -0.054 OA 
HETATM    4  C   UNL     1      -8.517   5.218  72.438  1.00  0.00    -0.122 C  
ENDROOT
BRANCH   4   5
HETATM    5  S   UNL     1      -8.419   6.935  71.787  1.00  0.00    -0.115 SA 
BRANCH   5   6
HETATM    6  C   UNL     1     -10.042   7.463  72.122  1.00  0.00    -0.190 A  
HETATM    7  N   UNL     1     -10.521   7.433  73.345  1.00  0.00    -0.363 NA 
HETATM    8  N   UNL     1     -11.841   7.755  73.285  1.00  0.00     0.072 NA 
HETATM    9  C   UNL     1     -12.145   7.964  72.022  1.00  0.00    -0.320 A  
HETATM   10  N   UNL     1     -10.988   8.001  71.242  1.00  0.00    -0.232 NA 
HETATM   11 BR   UNL     1     -13.942   7.894  71.467  1.00  0.00    -0.442 Br 
BRANCH  10  12
HETATM   12  C   UNL     1     -10.892   8.376  69.854  1.00  0.00    -0.207 A  
HETATM   13  C   UNL     1     -10.882   9.733  69.526  1.00  0.00    -0.264 A  
HETATM   14  C   UNL     1     -10.630  10.148  68.221  1.00  0.00    -0.262 A  
HETATM   15  C   UNL     1     -10.321   9.245  67.193  1.00  0.00    -0.330 A  
HETATM   16  C   UNL     1     -10.152   6.898  66.476  1.00  0.00    -0.140 A  
HETATM   17  C   UNL     1     -10.396   7.858  67.487  1.00  0.00    -0.329 A  
HETATM   18  C   UNL     1     -10.249   5.529  66.707  1.00  0.00    -0.277 A  
HETATM   19  C   UNL     1     -10.736   7.405  68.803  1.00  0.00    -0.145 A  
HETATM   20  C   UNL     1     -10.947   6.006  68.955  1.00  0.00    -0.395 A  
HETATM   21  C   UNL     1     -10.672   5.082  67.942  1.00  0.00     0.200 A  
BRANCH  15  22
HETATM   22  C   UNL     1      -9.984   9.830  65.825  1.00  0.00    -0.349 C  
HETATM   23  C   UNL     1      -9.639  11.307  65.745  1.00  0.00    -0.256 C  
HETATM   24  C   UNL     1      -8.596  10.284  65.445  1.00  0.00    -0.169 C  
ENDBRANCH  15  22
ENDBRANCH  10  12
ENDBRANCH   5   6
ENDBRANCH   4   5
TORSDOF 4
ENDMDL
MODEL      182
REMARK 921   NORMALIZED FREE ENERGY PREDICTED BY IDOCK:   -4.00 KCAL/MOL
REMARK 922        TOTAL FREE ENERGY PREDICTED BY IDOCK:   -5.81 KCAL/MOL
REMARK 923 INTER-LIGAND FREE ENERGY PREDICTED BY IDOCK:   -4.74 KCAL/MOL
REMARK 924 INTRA-LIGAND FREE ENERGY PREDICTED BY IDOCK:   -1.07 KCAL/MOL
REMARK 927      BINDING AFFINITY PREDICTED BY RF-SCORE:    0.00 PKD
ROOT
HETATM    1  O   UNL     1     -11.638   7.648  72.031  1.00  0.00    -0.269 OA 
HETATM    2  C   UNL     1     -10.351   7.344  72.329  1.00  0.00    -0.214 C  
HETATM    3  O   UNL     1      -9.935   7.379  73.473  1.00  0.00    -0.276 OA 
HETATM    4  C   UNL     1      -9.512   6.885  71.148  1.00  0.00    -0.166 C  
ENDROOT
BRANCH   4   5
HETATM    5  S   UNL     1     -10.122   7.561  69.550  1.00  0.00    -0.194 SA 
BRANCH   5   6
HETATM    6  C   UNL     1      -8.771   7.156  68.531  1.00  0.00    -0.126 A  
HETATM    7  N   UNL     1      -8.133   6.017  68.679  1.00  0.00    -0.106 NA 
HETATM    8  N   UNL     1      -7.047   6.038  67.862  1.00  0.00    -0.073 NA 
HETATM    9  C   UNL     1      -7.035   7.197  67.239  1.00  0.00    -0.078 A  
HETATM   10  N   UNL     1      -8.232   7.881  67.463  1.00  0.00    -0.123 NA 
HETATM   11 BR   UNL     1      -5.443   7.825  66.456  1.00  0.00    -0.025 Br 
BRANCH  10  12
HETATM   12  C   UNL     1      -8.669   9.093  66.818  1.00  0.00    -0.127 A  
HETATM   13  C   UNL     1      -9.398   8.995  65.631  1.00  0.00    -0.289 A  
HETATM   14  C   UNL     1      -9.978  10.124  65.058  1.00  0.00    -0.375 A  
HETATM   15  C   UNL     1      -9.913  11.389  65.658  1.00  0.00    -0.282 A  
HETATM   16  C   UNL     1      -8.964  12.789  67.445  1.00  0.00    -0.195 A  
HETATM   17  C   UNL     1      -9.117  11.526  66.826  1.00  0.00    -0.184 A  
HETATM   18  C   UNL     1      -8.165  12.979  68.569  1.00  0.00    -0.067 A  
HETATM   19  C   UNL     1      -8.440  10.394  67.388  1.00  0.00    -0.121 A  
HETATM   20  C   UNL     1      -7.538  10.664  68.456  1.00  0.00    -0.097 A  
HETATM   21  C   UNL     1      -7.431  11.920  69.060  1.00  0.00    -0.006 A  
BRANCH  15  22
HETATM   22  C   UNL     1     -10.659  12.530  64.974  1.00  0.00    -0.329 C  
HETATM   23  C   UNL     1     -11.811  12.176  64.050  1.00  0.00    -0.523 C  
HETATM   24  C   UNL     1     -12.078  12.909  65.320  1.00  0.00    -0.496 C  
ENDBRANCH  15  22
ENDBRANCH  10  12
ENDBRANCH   5   6
ENDBRANCH   4   5
TORSDOF 4
ENDMDL
MODEL      183
REMARK 921   NORMALIZED FREE ENERGY PREDICTED BY IDOCK:   -3.99 KCAL/MOL
REMARK 922        TOTAL FREE ENERGY PREDICTED BY IDOCK:   -5.81 KCAL/MOL
REMARK 923 INTER-LIGAND FREE ENERGY PREDICTED BY IDOCK:   -4.77 KCAL/MOL
REMARK 924 INTRA-LIGAND FREE ENERGY PREDICTED BY IDOCK:   -1.03 KCAL/MOL
REMARK 927      BINDING AFFINITY PREDICTED BY RF-SCORE:    0.00 PKD
ROOT
HETATM    1  O   UNL     1      -9.708   9.972  64.030  1.00  0.00    -0.273 OA 
HETATM    2  C   UNL     1     -10.212  11.226  63.925  1.00  0.00    -0.365 C  
HETATM    3  O   UNL     1     -10.482  11.717  62.843  1.00  0.00    -0.232 OA 
HETATM    4  C   UNL     1     -10.481  11.921  65.249  1.00  0.00    -0.275 C  
ENDROOT
BRANCH   4   5
HETATM    5  S   UNL     1      -9.399  11.300  66.599  1.00  0.00    -0.185 SA 
BRANCH   5   6
HETATM    6  C   UNL     1     -10.608  10.946  67.799  1.00  0.00    -0.217 A  
HETATM    7  N   UNL     1     -11.669  11.709  67.931  1.00  0.00    -0.532 NA 
HETATM    8  N   UNL     1     -12.352  11.287  69.028  1.00  0.00    -0.425 NA 
HETATM    9  C   UNL     1     -11.687  10.281  69.553  1.00  0.00    -0.122 A  
HETATM   10  N   UNL     1     -10.667   9.871  68.692  1.00  0.00    -0.223 NA 
HETATM   11 BR   UNL     1     -11.995   9.784  71.342  1.00  0.00    -0.506 Br 
BRANCH  10  12
HETATM   12  C   UNL     1      -9.839   8.699  68.829  1.00  0.00    -0.172 A  
HETATM   13  C   UNL     1     -10.363   7.461  68.456  1.00  0.00    -0.221 A  
HETATM   14  C   UNL     1      -9.554   6.328  68.417  1.00  0.00    -0.121 A  
HETATM   15  C   UNL     1      -8.180   6.378  68.690  1.00  0.00    -0.121 A  
HETATM   16  C   UNL     1      -6.271   7.709  69.487  1.00  0.00    -0.031 A  
HETATM   17  C   UNL     1      -7.639   7.611  69.140  1.00  0.00    -0.100 A  
HETATM   18  C   UNL     1      -5.705   8.887  69.968  1.00  0.00    -0.031 A  
HETATM   19  C   UNL     1      -8.471   8.771  69.270  1.00  0.00    -0.122 A  
HETATM   20  C   UNL     1      -7.875   9.909  69.884  1.00  0.00    -0.182 A  
HETATM   21  C   UNL     1      -6.514   9.982  70.191  1.00  0.00    -0.107 A  
BRANCH  15  22
HETATM   22  C   UNL     1      -7.386   5.084  68.533  1.00  0.00    -0.063 C  
HETATM   23  C   UNL     1      -8.073   3.901  67.873  1.00  0.00    -0.088 C  
HETATM   24  C   UNL     1      -6.920   4.562  67.196  1.00  0.00    -0.060 C  
ENDBRANCH  15  22
ENDBRANCH  10  12
ENDBRANCH   5   6
ENDBRANCH   4   5
TORSDOF 4
ENDMDL
MODEL      184
REMARK 921   NORMALIZED FREE ENERGY PREDICTED BY IDOCK:   -3.96 KCAL/MOL
REMARK 922        TOTAL FREE ENERGY PREDICTED BY IDOCK:   -5.76 KCAL/MOL
REMARK 923 INTER-LIGAND FREE ENERGY PREDICTED BY IDOCK:   -4.72 KCAL/MOL
REMARK 924 INTRA-LIGAND FREE ENERGY PREDICTED BY IDOCK:   -1.04 KCAL/MOL
REMARK 927      BINDING AFFINITY PREDICTED BY RF-SCORE:    0.00 PKD
ROOT
HETATM    1  O   UNL     1      -9.705   6.402  67.005  1.00  0.00    -0.137 OA 
HETATM    2  C   UNL     1     -10.098   5.880  68.192  1.00  0.00    -0.166 C  
HETATM    3  O   UNL     1     -11.265   5.899  68.542  1.00  0.00    -0.221 OA 
HETATM    4  C   UNL     1      -8.995   5.209  68.993  1.00  0.00    -0.100 C  
ENDROOT
BRANCH   4   5
HETATM    5  S   UNL     1      -7.334   5.899  68.613  1.00  0.00    -0.086 SA 
BRANCH   5   6
HETATM    6  C   UNL     1      -6.809   6.294  70.223  1.00  0.00    -0.054 A  
HETATM    7  N   UNL     1      -5.652   5.866  70.679  1.00  0.00    -0.013 NA 
HETATM    8  N   UNL     1      -5.576   6.195  71.996  1.00  0.00    -0.030 NA 
HETATM    9  C   UNL     1      -6.694   6.806  72.323  1.00  0.00    -0.059 A  
HETATM   10  N   UNL     1      -7.443   7.093  71.181  1.00  0.00    -0.079 NA 
HETATM   11 BR   UNL     1      -7.201   6.928  74.131  1.00  0.00    -0.098 Br 
BRANCH  10  12
HETATM   12  C   UNL     1      -8.634   7.902  71.107  1.00  0.00    -0.128 A  
HETATM   13  C   UNL     1      -8.543   9.177  70.546  1.00  0.00    -0.252 A  
HETATM   14  C   UNL     1      -9.689   9.931  70.306  1.00  0.00    -0.211 A  
HETATM   15  C   UNL     1     -10.978   9.440  70.558  1.00  0.00    -0.332 A  
HETATM   16  C   UNL     1     -12.362   7.653  71.528  1.00  0.00    -0.356 A  
HETATM   17  C   UNL     1     -11.090   8.176  71.195  1.00  0.00    -0.279 A  
HETATM   18  C   UNL     1     -12.521   6.436  72.186  1.00  0.00    -0.173 A  
HETATM   19  C   UNL     1      -9.921   7.417  71.529  1.00  0.00    -0.193 A  
HETATM   20  C   UNL     1     -10.130   6.246  72.311  1.00  0.00    -0.197 A  
HETATM   21  C   UNL     1     -11.402   5.743  72.600  1.00  0.00    -0.349 A  
BRANCH  15  22
HETATM   22  C   UNL     1     -12.155  10.331  70.176  1.00  0.00    -0.279 C  
HETATM   23  C   UNL     1     -12.678  11.307  71.215  1.00  0.00    -0.510 C  
HETATM   24  C   UNL     1     -12.028  11.821  69.975  1.00  0.00    -0.421 C  
ENDBRANCH  15  22
ENDBRANCH  10  12
ENDBRANCH   5   6
ENDBRANCH   4   5
TORSDOF 4
ENDMDL
MODEL      185
REMARK 921   NORMALIZED FREE ENERGY PREDICTED BY IDOCK:   -3.94 KCAL/MOL
REMARK 922        TOTAL FREE ENERGY PREDICTED BY IDOCK:   -5.75 KCAL/MOL
REMARK 923 INTER-LIGAND FREE ENERGY PREDICTED BY IDOCK:   -4.79 KCAL/MOL
REMARK 924 INTRA-LIGAND FREE ENERGY PREDICTED BY IDOCK:   -0.96 KCAL/MOL
REMARK 927      BINDING AFFINITY PREDICTED BY RF-SCORE:    0.00 PKD
ROOT
HETATM    1  O   UNL     1      -5.794  10.942  71.451  1.00  0.00    -0.348 OA 
HETATM    2  C   UNL     1      -5.802  11.978  70.576  1.00  0.00    -0.122 C  
HETATM    3  O   UNL     1      -5.975  13.125  70.946  1.00  0.00    -0.205 OA 
HETATM    4  C   UNL     1      -5.502  11.600  69.135  1.00  0.00    -0.047 C  
ENDROOT
BRANCH   4   5
HETATM    5  S   UNL     1      -5.959   9.860  68.756  1.00  0.00    -0.037 SA 
BRANCH   5   6
HETATM    6  C   UNL     1      -7.128  10.135  67.497  1.00  0.00    -0.087 A  
HETATM    7  N   UNL     1      -6.748  10.507  66.295  1.00  0.00    -0.114 NA 
HETATM    8  N   UNL     1      -7.865  10.791  65.574  1.00  0.00    -0.096 NA 
HETATM    9  C   UNL     1      -8.906  10.598  66.354  1.00  0.00    -0.154 A  
HETATM   10  N   UNL     1      -8.517   9.972  67.540  1.00  0.00    -0.118 NA 
HETATM   11 BR   UNL     1     -10.560  11.385  65.922  1.00  0.00    -0.307 Br 
BRANCH  10  12
HETATM   12  C   UNL     1      -9.382   9.442  68.563  1.00  0.00    -0.138 A  
HETATM   13  C   UNL     1     -10.074  10.334  69.383  1.00  0.00    -0.255 A  
HETATM   14  C   UNL     1     -11.040   9.876  70.276  1.00  0.00    -0.368 A  
HETATM   15  C   UNL     1     -11.406   8.525  70.359  1.00  0.00    -0.193 A  
HETATM   16  C   UNL     1     -10.947   6.207  69.672  1.00  0.00    -0.459 A  
HETATM   17  C   UNL     1     -10.665   7.591  69.586  1.00  0.00    -0.236 A  
HETATM   18  C   UNL     1     -10.225   5.252  68.963  1.00  0.00    -0.269 A  
HETATM   19  C   UNL     1      -9.608   8.029  68.723  1.00  0.00    -0.149 A  
HETATM   20  C   UNL     1      -8.820   7.008  68.121  1.00  0.00    -0.129 A  
HETATM   21  C   UNL     1      -9.143   5.651  68.206  1.00  0.00    -0.112 A  
BRANCH  15  22
HETATM   22  C   UNL     1     -12.535   8.162  71.317  1.00  0.00    -0.269 C  
HETATM   23  C   UNL     1     -12.191   7.956  72.782  1.00  0.00    -0.081 C  
HETATM   24  C   UNL     1     -13.051   9.105  72.376  1.00  0.00    -0.493 C  
ENDBRANCH  15  22
ENDBRANCH  10  12
ENDBRANCH   5   6
ENDBRANCH   4   5
TORSDOF 4
ENDMDL
MODEL      186
REMARK 921   NORMALIZED FREE ENERGY PREDICTED BY IDOCK:   -3.94 KCAL/MOL
REMARK 922        TOTAL FREE ENERGY PREDICTED BY IDOCK:   -5.75 KCAL/MOL
REMARK 923 INTER-LIGAND FREE ENERGY PREDICTED BY IDOCK:   -4.88 KCAL/MOL
REMARK 924 INTRA-LIGAND FREE ENERGY PREDICTED BY IDOCK:   -0.87 KCAL/MOL
REMARK 927      BINDING AFFINITY PREDICTED BY RF-SCORE:    0.00 PKD
ROOT
HETATM    1  O   UNL     1     -13.311  12.047  72.180  1.00  0.00    -0.510 OA 
HETATM    2  C   UNL     1     -12.793  12.723  71.125  1.00  0.00    -0.226 C  
HETATM    3  O   UNL     1     -12.996  13.914  70.968  1.00  0.00    -0.324 OA 
HETATM    4  C   UNL     1     -11.889  11.902  70.221  1.00  0.00    -0.281 C  
ENDROOT
BRANCH   4   5
HETATM    5  S   UNL     1     -12.297  10.110  70.262  1.00  0.00    -0.073 SA 
BRANCH   5   6
HETATM    6  C   UNL     1     -10.753   9.473  70.750  1.00  0.00    -0.321 A  
HETATM    7  N   UNL     1     -10.572   9.001  71.962  1.00  0.00    -0.325 NA 
HETATM    8  N   UNL     1      -9.250   8.717  72.106  1.00  0.00    -0.371 NA 
HETATM    9  C   UNL     1      -8.646   9.034  70.981  1.00  0.00    -0.210 A  
HETATM   10  N   UNL     1      -9.586   9.328  69.991  1.00  0.00    -0.194 NA 
HETATM   11 BR   UNL     1      -6.784   9.303  70.959  1.00  0.00    -0.074 Br 
BRANCH  10  12
HETATM   12  C   UNL     1      -9.328   9.547  68.591  1.00  0.00    -0.142 A  
HETATM   13  C   UNL     1      -9.350   8.451  67.726  1.00  0.00    -0.150 A  
HETATM   14  C   UNL     1      -9.267   8.630  66.348  1.00  0.00    -0.245 A  
HETATM   15  C   UNL     1      -9.214   9.901  65.758  1.00  0.00    -0.228 A  
HETATM   16  C   UNL     1      -9.002  12.331  66.083  1.00  0.00    -0.009 A  
HETATM   17  C   UNL     1      -9.118  11.026  66.620  1.00  0.00    -0.177 A  
HETATM   18  C   UNL     1      -8.869  13.460  66.887  1.00  0.00    -0.185 A  
HETATM   19  C   UNL     1      -9.116  10.861  68.043  1.00  0.00    -0.152 A  
HETATM   20  C   UNL     1      -8.850  12.027  68.814  1.00  0.00     0.079 A  
HETATM   21  C   UNL     1      -8.767  13.305  68.254  1.00  0.00    -0.168 A  
BRANCH  15  22
HETATM   22  C   UNL     1      -9.208   9.968  64.234  1.00  0.00    -0.318 C  
HETATM   23  C   UNL     1      -7.931  10.414  63.543  1.00  0.00    -0.101 C  
HETATM   24  C   UNL     1      -8.417   9.015  63.372  1.00  0.00    -0.176 C  
ENDBRANCH  15  22
ENDBRANCH  10  12
ENDBRANCH   5   6
ENDBRANCH   4   5
TORSDOF 4
ENDMDL
MODEL      187
REMARK 921   NORMALIZED FREE ENERGY PREDICTED BY IDOCK:   -3.89 KCAL/MOL
REMARK 922        TOTAL FREE ENERGY PREDICTED BY IDOCK:   -5.68 KCAL/MOL
REMARK 923 INTER-LIGAND FREE ENERGY PREDICTED BY IDOCK:   -4.89 KCAL/MOL
REMARK 924 INTRA-LIGAND FREE ENERGY PREDICTED BY IDOCK:   -0.79 KCAL/MOL
REMARK 927      BINDING AFFINITY PREDICTED BY RF-SCORE:    0.00 PKD
ROOT
HETATM    1  O   UNL     1      -9.770  16.099  67.671  1.00  0.00    -0.229 OA 
HETATM    2  C   UNL     1      -9.906  15.353  66.547  1.00  0.00    -0.272 C  
HETATM    3  O   UNL     1     -10.616  15.712  65.625  1.00  0.00    -0.334 OA 
HETATM    4  C   UNL     1      -9.050  14.098  66.504  1.00  0.00    -0.173 C  
ENDROOT
BRANCH   4   5
HETATM    5  S   UNL     1      -8.654  13.462  68.183  1.00  0.00    -0.174 SA 
BRANCH   5   6
HETATM    6  C   UNL     1      -7.692  12.079  67.749  1.00  0.00    -0.139 A  
HETATM    7  N   UNL     1      -6.723  12.183  66.867  1.00  0.00    -0.063 NA 
HETATM    8  N   UNL     1      -6.251  10.933  66.617  1.00  0.00    -0.100 NA 
HETATM    9  C   UNL     1      -6.950  10.087  67.343  1.00  0.00    -0.083 A  
HETATM   10  N   UNL     1      -7.752  10.776  68.254  1.00  0.00    -0.104 NA 
HETATM   11 BR   UNL     1      -6.980   8.262  66.887  1.00  0.00    -0.071 Br 
BRANCH  10  12
HETATM   12  C   UNL     1      -8.524  10.208  69.330  1.00  0.00    -0.171 A  
HETATM   13  C   UNL     1      -9.917  10.278  69.265  1.00  0.00    -0.244 A  
HETATM   14  C   UNL     1     -10.707   9.606  70.194  1.00  0.00    -0.321 A  
HETATM   15  C   UNL     1     -10.161   8.790  71.194  1.00  0.00    -0.317 A  
HETATM   16  C   UNL     1      -8.138   8.003  72.352  1.00  0.00    -0.175 A  
HETATM   17  C   UNL     1      -8.747   8.762  71.324  1.00  0.00    -0.273 A  
HETATM   18  C   UNL     1      -6.759   7.974  72.542  1.00  0.00    -0.083 A  
HETATM   19  C   UNL     1      -7.914   9.513  70.433  1.00  0.00    -0.200 A  
HETATM   20  C   UNL     1      -6.526   9.551  70.746  1.00  0.00    -0.097 A  
HETATM   21  C   UNL     1      -5.953   8.769  71.754  1.00  0.00    -0.061 A  
BRANCH  15  22
HETATM   22  C   UNL     1     -11.134   8.042  72.099  1.00  0.00    -0.372 C  
HETATM   23  C   UNL     1     -12.550   8.577  72.222  1.00  0.00    -0.438 C  
HETATM   24  C   UNL     1     -12.310   7.257  71.571  1.00  0.00    -0.397 C  
ENDBRANCH  15  22
ENDBRANCH  10  12
ENDBRANCH   5   6
ENDBRANCH   4   5
TORSDOF 4
ENDMDL
MODEL      188
REMARK 921   NORMALIZED FREE ENERGY PREDICTED BY IDOCK:   -3.89 KCAL/MOL
REMARK 922        TOTAL FREE ENERGY PREDICTED BY IDOCK:   -5.68 KCAL/MOL
REMARK 923 INTER-LIGAND FREE ENERGY PREDICTED BY IDOCK:   -4.63 KCAL/MOL
REMARK 924 INTRA-LIGAND FREE ENERGY PREDICTED BY IDOCK:   -1.05 KCAL/MOL
REMARK 927      BINDING AFFINITY PREDICTED BY RF-SCORE:    0.00 PKD
ROOT
HETATM    1  O   UNL     1      -9.523  10.968  65.047  1.00  0.00    -0.216 OA 
HETATM    2  C   UNL     1     -10.325  11.835  65.713  1.00  0.00    -0.253 C  
HETATM    3  O   UNL     1     -10.799  12.815  65.166  1.00  0.00    -0.279 OA 
HETATM    4  C   UNL     1     -10.639  11.444  67.147  1.00  0.00    -0.243 C  
ENDROOT
BRANCH   4   5
HETATM    5  S   UNL     1      -9.326  10.395  67.892  1.00  0.00    -0.139 SA 
BRANCH   5   6
HETATM    6  C   UNL     1     -10.281   9.512  69.047  1.00  0.00    -0.200 A  
HETATM    7  N   UNL     1     -10.966  10.141  69.976  1.00  0.00    -0.286 NA 
HETATM    8  N   UNL     1     -11.485   9.207  70.816  1.00  0.00    -0.275 NA 
HETATM    9  C   UNL     1     -11.097   8.024  70.390  1.00  0.00    -0.238 A  
HETATM   10  N   UNL     1     -10.495   8.132  69.135  1.00  0.00    -0.220 NA 
HETATM   11 BR   UNL     1     -11.143   6.547  71.555  1.00  0.00    -0.326 Br 
BRANCH  10  12
HETATM   12  C   UNL     1     -10.100   7.051  68.269  1.00  0.00    -0.167 A  
HETATM   13  C   UNL     1     -11.015   6.578  67.326  1.00  0.00    -0.475 A  
HETATM   14  C   UNL     1     -10.629   5.649  66.364  1.00  0.00    -0.254 A  
HETATM   15  C   UNL     1      -9.310   5.186  66.253  1.00  0.00    -0.155 A  
HETATM   16  C   UNL     1      -7.049   5.117  67.220  1.00  0.00    -0.069 A  
HETATM   17  C   UNL     1      -8.380   5.598  67.244  1.00  0.00    -0.100 A  
HETATM   18  C   UNL     1      -6.113   5.463  68.190  1.00  0.00    -0.026 A  
HETATM   19  C   UNL     1      -8.776   6.488  68.295  1.00  0.00    -0.117 A  
HETATM   20  C   UNL     1      -7.822   6.707  69.329  1.00  0.00    -0.110 A  
HETATM   21  C   UNL     1      -6.507   6.239  69.261  1.00  0.00    -0.043 A  
BRANCH  15  22
HETATM   22  C   UNL     1      -8.996   4.232  65.105  1.00  0.00    -0.139 C  
HETATM   23  C   UNL     1      -9.096   2.740  65.369  1.00  0.00    -0.145 C  
HETATM   24  C   UNL     1     -10.047   3.392  64.423  1.00  0.00    -0.151 C  
ENDBRANCH  15  22
ENDBRANCH  10  12
ENDBRANCH   5   6
ENDBRANCH   4   5
TORSDOF 4
ENDMDL
MODEL      189
REMARK 921   NORMALIZED FREE ENERGY PREDICTED BY IDOCK:   -3.88 KCAL/MOL
REMARK 922        TOTAL FREE ENERGY PREDICTED BY IDOCK:   -5.67 KCAL/MOL
REMARK 923 INTER-LIGAND FREE ENERGY PREDICTED BY IDOCK:   -4.61 KCAL/MOL
REMARK 924 INTRA-LIGAND FREE ENERGY PREDICTED BY IDOCK:   -1.06 KCAL/MOL
REMARK 927      BINDING AFFINITY PREDICTED BY RF-SCORE:    0.00 PKD
ROOT
HETATM    1  O   UNL     1     -11.653   5.058  72.985  1.00  0.00    -0.312 OA 
HETATM    2  C   UNL     1     -10.826   6.070  73.344  1.00  0.00    -0.231 C  
HETATM    3  O   UNL     1     -10.377   6.158  74.473  1.00  0.00    -0.305 OA 
HETATM    4  C   UNL     1     -10.451   7.021  72.219  1.00  0.00    -0.208 C  
ENDROOT
BRANCH   4   5
HETATM    5  S   UNL     1     -11.731   7.085  70.900  1.00  0.00    -0.354 SA 
BRANCH   5   6
HETATM    6  C   UNL     1     -11.027   8.300  69.873  1.00  0.00    -0.166 A  
HETATM    7  N   UNL     1     -11.053   9.569  70.216  1.00  0.00    -0.257 NA 
HETATM    8  N   UNL     1     -10.574  10.293  69.170  1.00  0.00    -0.215 NA 
HETATM    9  C   UNL     1     -10.275   9.453  68.203  1.00  0.00    -0.200 A  
HETATM   10  N   UNL     1     -10.342   8.137  68.664  1.00  0.00    -0.208 NA 
HETATM   11 BR   UNL     1     -10.105  10.079  66.437  1.00  0.00    -0.299 Br 
BRANCH  10  12
HETATM   12  C   UNL     1      -9.920   6.951  67.962  1.00  0.00    -0.154 A  
HETATM   13  C   UNL     1     -10.824   6.325  67.102  1.00  0.00    -0.460 A  
HETATM   14  C   UNL     1     -10.416   5.276  66.282  1.00  0.00    -0.311 A  
HETATM   15  C   UNL     1      -9.086   4.835  66.234  1.00  0.00    -0.122 A  
HETATM   16  C   UNL     1      -6.824   4.962  67.192  1.00  0.00    -0.056 A  
HETATM   17  C   UNL     1      -8.166   5.408  67.152  1.00  0.00    -0.104 A  
HETATM   18  C   UNL     1      -5.895   5.467  68.098  1.00  0.00    -0.017 A  
HETATM   19  C   UNL     1      -8.583   6.431  68.065  1.00  0.00    -0.117 A  
HETATM   20  C   UNL     1      -7.634   6.821  69.052  1.00  0.00    -0.101 A  
HETATM   21  C   UNL     1      -6.308   6.380  69.047  1.00  0.00    -0.038 A  
BRANCH  15  22
HETATM   22  C   UNL     1      -8.749   3.733  65.235  1.00  0.00    -0.116 C  
HETATM   23  C   UNL     1      -9.668   3.545  64.041  1.00  0.00    -0.165 C  
HETATM   24  C   UNL     1      -8.268   4.013  63.832  1.00  0.00    -0.092 C  
ENDBRANCH  15  22
ENDBRANCH  10  12
ENDBRANCH   5   6
ENDBRANCH   4   5
TORSDOF 4
ENDMDL
MODEL      190
REMARK 921   NORMALIZED FREE ENERGY PREDICTED BY IDOCK:   -3.83 KCAL/MOL
REMARK 922        TOTAL FREE ENERGY PREDICTED BY IDOCK:   -5.61 KCAL/MOL
REMARK 923 INTER-LIGAND FREE ENERGY PREDICTED BY IDOCK:   -4.59 KCAL/MOL
REMARK 924 INTRA-LIGAND FREE ENERGY PREDICTED BY IDOCK:   -1.02 KCAL/MOL
REMARK 927      BINDING AFFINITY PREDICTED BY RF-SCORE:    0.00 PKD
ROOT
HETATM    1  O   UNL     1      -6.119   3.801  73.302  1.00  0.00    -0.010 OA 
HETATM    2  C   UNL     1      -6.145   5.153  73.387  1.00  0.00    -0.042 C  
HETATM    3  O   UNL     1      -5.130   5.801  73.571  1.00  0.00    -0.021 OA 
HETATM    4  C   UNL     1      -7.509   5.783  73.157  1.00  0.00    -0.095 C  
ENDROOT
BRANCH   4   5
HETATM    5  S   UNL     1      -8.888   4.645  73.587  1.00  0.00    -0.104 SA 
BRANCH   5   6
HETATM    6  C   UNL     1      -9.298   4.075  71.996  1.00  0.00    -0.130 A  
HETATM    7  N   UNL     1      -9.186   2.802  71.687  1.00  0.00    -0.100 NA 
HETATM    8  N   UNL     1      -9.427   2.674  70.355  1.00  0.00    -0.138 NA 
HETATM    9  C   UNL     1      -9.669   3.874  69.873  1.00  0.00    -0.164 A  
HETATM   10  N   UNL     1      -9.812   4.795  70.912  1.00  0.00    -0.195 NA 
HETATM   11 BR   UNL     1      -9.510   4.192  68.025  1.00  0.00    -0.201 Br 
BRANCH  10  12
HETATM   12  C   UNL     1     -10.251   6.163  70.801  1.00  0.00    -0.198 A  
HETATM   13  C   UNL     1     -11.564   6.477  71.158  1.00  0.00    -0.390 A  
HETATM   14  C   UNL     1     -11.987   7.802  71.222  1.00  0.00    -0.324 A  
HETATM   15  C   UNL     1     -11.120   8.879  70.991  1.00  0.00    -0.340 A  
HETATM   16  C   UNL     1      -8.897   9.628  70.250  1.00  0.00    -0.253 A  
HETATM   17  C   UNL     1      -9.800   8.583  70.556  1.00  0.00    -0.206 A  
HETATM   18  C   UNL     1      -7.606   9.388  69.785  1.00  0.00    -0.095 A  
HETATM   19  C   UNL     1      -9.367   7.226  70.401  1.00  0.00    -0.158 A  
HETATM   20  C   UNL     1      -8.089   7.035  69.804  1.00  0.00    -0.126 A  
HETATM   21  C   UNL     1      -7.210   8.089  69.538  1.00  0.00    -0.070 A  
BRANCH  15  22
HETATM   22  C   UNL     1     -11.683  10.284  71.172  1.00  0.00    -0.430 C  
HETATM   23  C   UNL     1     -12.879  10.689  70.328  1.00  0.00    -0.211 C  
HETATM   24  C   UNL     1     -13.025  10.557  71.806  1.00  0.00    -0.582 C  
ENDBRANCH  15  22
ENDBRANCH  10  12
ENDBRANCH   5   6
ENDBRANCH   4   5
TORSDOF 4
ENDMDL
MODEL      191
REMARK 921   NORMALIZED FREE ENERGY PREDICTED BY IDOCK:   -3.82 KCAL/MOL
REMARK 922        TOTAL FREE ENERGY PREDICTED BY IDOCK:   -5.59 KCAL/MOL
REMARK 923 INTER-LIGAND FREE ENERGY PREDICTED BY IDOCK:   -4.68 KCAL/MOL
REMARK 924 INTRA-LIGAND FREE ENERGY PREDICTED BY IDOCK:   -0.91 KCAL/MOL
REMARK 927      BINDING AFFINITY PREDICTED BY RF-SCORE:    0.00 PKD
ROOT
HETATM    1  O   UNL     1     -11.487  12.904  69.427  1.00  0.00    -0.273 OA 
HETATM    2  C   UNL     1     -11.928  11.770  70.023  1.00  0.00    -0.344 C  
HETATM    3  O   UNL     1     -12.771  11.796  70.902  1.00  0.00    -0.314 OA 
HETATM    4  C   UNL     1     -11.351  10.483  69.457  1.00  0.00    -0.278 C  
ENDROOT
BRANCH   4   5
HETATM    5  S   UNL     1      -9.696  10.732  68.695  1.00  0.00    -0.191 SA 
BRANCH   5   6
HETATM    6  C   UNL     1      -9.575   9.258  67.780  1.00  0.00    -0.142 A  
HETATM    7  N   UNL     1      -9.377   9.286  66.481  1.00  0.00    -0.165 NA 
HETATM    8  N   UNL     1      -9.475   8.012  66.016  1.00  0.00    -0.112 NA 
HETATM    9  C   UNL     1      -9.743   7.231  67.040  1.00  0.00    -0.181 A  
HETATM   10  N   UNL     1      -9.611   7.937  68.238  1.00  0.00    -0.153 NA 
HETATM   11 BR   UNL     1     -10.478   5.524  66.749  1.00  0.00    -0.367 Br 
BRANCH  10  12
HETATM   12  C   UNL     1      -9.650   7.392  69.571  1.00  0.00    -0.155 A  
HETATM   13  C   UNL     1     -10.892   7.116  70.145  1.00  0.00    -0.279 A  
HETATM   14  C   UNL     1     -10.980   6.443  71.362  1.00  0.00    -0.316 A  
HETATM   15  C   UNL     1      -9.849   5.965  72.038  1.00  0.00    -0.181 A  
HETATM   16  C   UNL     1      -7.394   5.894  72.180  1.00  0.00    -0.094 A  
HETATM   17  C   UNL     1      -8.573   6.297  71.510  1.00  0.00    -0.131 A  
HETATM   18  C   UNL     1      -6.123   6.227  71.721  1.00  0.00    -0.041 A  
HETATM   19  C   UNL     1      -8.457   7.062  70.304  1.00  0.00    -0.138 A  
HETATM   20  C   UNL     1      -7.144   7.484  69.948  1.00  0.00    -0.064 A  
HETATM   21  C   UNL     1      -5.998   7.045  70.617  1.00  0.00    -0.027 A  
BRANCH  15  22
HETATM   22  C   UNL     1     -10.082   5.171  73.320  1.00  0.00    -0.198 C  
HETATM   23  C   UNL     1     -11.391   4.415  73.464  1.00  0.00    -0.334 C  
HETATM   24  C   UNL     1     -10.108   3.663  73.361  1.00  0.00    -0.202 C  
ENDBRANCH  15  22
ENDBRANCH  10  12
ENDBRANCH   5   6
ENDBRANCH   4   5
TORSDOF 4
ENDMDL
MODEL      192
REMARK 921   NORMALIZED FREE ENERGY PREDICTED BY IDOCK:   -3.79 KCAL/MOL
REMARK 922        TOTAL FREE ENERGY PREDICTED BY IDOCK:   -5.56 KCAL/MOL
REMARK 923 INTER-LIGAND FREE ENERGY PREDICTED BY IDOCK:   -4.66 KCAL/MOL
REMARK 924 INTRA-LIGAND FREE ENERGY PREDICTED BY IDOCK:   -0.91 KCAL/MOL
REMARK 927      BINDING AFFINITY PREDICTED BY RF-SCORE:    0.00 PKD
ROOT
HETATM    1  O   UNL     1     -10.409  10.329  65.360  1.00  0.00    -0.269 OA 
HETATM    2  C   UNL     1      -9.189   9.820  65.062  1.00  0.00    -0.249 C  
HETATM    3  O   UNL     1      -8.672   9.996  63.973  1.00  0.00    -0.172 OA 
HETATM    4  C   UNL     1      -8.502   9.093  66.206  1.00  0.00    -0.124 C  
ENDROOT
BRANCH   4   5
HETATM    5  S   UNL     1      -9.700   8.396  67.414  1.00  0.00    -0.185 SA 
BRANCH   5   6
HETATM    6  C   UNL     1      -9.216   6.726  67.370  1.00  0.00    -0.127 A  
HETATM    7  N   UNL     1      -8.976   6.124  66.226  1.00  0.00    -0.151 NA 
HETATM    8  N   UNL     1      -8.769   4.805  66.484  1.00  0.00    -0.112 NA 
HETATM    9  C   UNL     1      -8.899   4.625  67.781  1.00  0.00    -0.106 A  
HETATM   10  N   UNL     1      -8.977   5.854  68.438  1.00  0.00    -0.113 NA 
HETATM   11 BR   UNL     1      -9.225   2.899  68.459  1.00  0.00    -0.245 Br 
BRANCH  10  12
HETATM   12  C   UNL     1      -8.949   6.077  69.861  1.00  0.00    -0.141 A  
HETATM   13  C   UNL     1      -7.737   5.937  70.538  1.00  0.00    -0.100 A  
HETATM   14  C   UNL     1      -7.624   6.297  71.878  1.00  0.00    -0.096 A  
HETATM   15  C   UNL     1      -8.687   6.863  72.595  1.00  0.00    -0.132 A  
HETATM   16  C   UNL     1     -11.075   7.455  72.641  1.00  0.00    -0.378 A  
HETATM   17  C   UNL     1      -9.949   6.948  71.949  1.00  0.00    -0.183 A  
HETATM   18  C   UNL     1     -12.339   7.524  72.061  1.00  0.00    -0.305 A  
HETATM   19  C   UNL     1     -10.110   6.505  70.596  1.00  0.00    -0.212 A  
HETATM   20  C   UNL     1     -11.443   6.477  70.095  1.00  0.00    -0.477 A  
HETATM   21  C   UNL     1     -12.529   7.010  70.795  1.00  0.00    -0.253 A  
BRANCH  15  22
HETATM   22  C   UNL     1      -8.414   7.291  74.034  1.00  0.00    -0.214 C  
HETATM   23  C   UNL     1      -6.990   7.191  74.550  1.00  0.00    -0.102 C  
HETATM   24  C   UNL     1      -7.627   8.529  74.388  1.00  0.00    -0.208 C  
ENDBRANCH  15  22
ENDBRANCH  10  12
ENDBRANCH   5   6
ENDBRANCH   4   5
TORSDOF 4
ENDMDL
MODEL      193
REMARK 921   NORMALIZED FREE ENERGY PREDICTED BY IDOCK:   -3.77 KCAL/MOL
REMARK 922        TOTAL FREE ENERGY PREDICTED BY IDOCK:   -5.53 KCAL/MOL
REMARK 923 INTER-LIGAND FREE ENERGY PREDICTED BY IDOCK:   -4.42 KCAL/MOL
REMARK 924 INTRA-LIGAND FREE ENERGY PREDICTED BY IDOCK:   -1.12 KCAL/MOL
REMARK 927      BINDING AFFINITY PREDICTED BY RF-SCORE:    0.00 PKD
ROOT
HETATM    1  O   UNL     1     -10.688   9.151  68.524  1.00  0.00    -0.196 OA 
HETATM    2  C   UNL     1     -10.501   9.470  67.220  1.00  0.00    -0.262 C  
HETATM    3  O   UNL     1     -10.900  10.524  66.757  1.00  0.00    -0.224 OA 
HETATM    4  C   UNL     1      -9.697   8.457  66.422  1.00  0.00    -0.242 C  
ENDROOT
BRANCH   4   5
HETATM    5  S   UNL     1      -9.827   6.758  67.112  1.00  0.00    -0.174 SA 
BRANCH   5   6
HETATM    6  C   UNL     1      -8.314   6.676  67.966  1.00  0.00    -0.117 A  
HETATM    7  N   UNL     1      -7.242   7.273  67.496  1.00  0.00    -0.088 NA 
HETATM    8  N   UNL     1      -6.189   6.918  68.280  1.00  0.00    -0.033 NA 
HETATM    9  C   UNL     1      -6.637   6.100  69.208  1.00  0.00    -0.047 A  
HETATM   10  N   UNL     1      -8.033   6.068  69.194  1.00  0.00    -0.102 NA 
HETATM   11 BR   UNL     1      -5.438   4.980  70.129  1.00  0.00    -0.012 Br 
BRANCH  10  12
HETATM   12  C   UNL     1      -8.893   5.432  70.160  1.00  0.00    -0.127 A  
HETATM   13  C   UNL     1      -9.173   4.072  70.016  1.00  0.00    -0.215 A  
HETATM   14  C   UNL     1      -9.864   3.379  71.007  1.00  0.00    -0.136 A  
HETATM   15  C   UNL     1     -10.260   3.983  72.208  1.00  0.00    -0.227 A  
HETATM   16  C   UNL     1     -10.482   6.058  73.511  1.00  0.00    -0.275 A  
HETATM   17  C   UNL     1     -10.050   5.381  72.346  1.00  0.00    -0.225 A  
HETATM   18  C   UNL     1     -10.331   7.432  73.675  1.00  0.00    -0.367 A  
HETATM   19  C   UNL     1      -9.417   6.133  71.303  1.00  0.00    -0.177 A  
HETATM   20  C   UNL     1      -9.402   7.547  71.464  1.00  0.00    -0.154 A  
HETATM   21  C   UNL     1      -9.814   8.182  72.639  1.00  0.00    -0.364 A  
BRANCH  15  22
HETATM   22  C   UNL     1     -10.937   3.097  73.249  1.00  0.00    -0.263 C  
HETATM   23  C   UNL     1     -10.616   1.612  73.240  1.00  0.00    -0.208 C  
HETATM   24  C   UNL     1     -10.192   2.456  74.394  1.00  0.00    -0.181 C  
ENDBRANCH  15  22
ENDBRANCH  10  12
ENDBRANCH   5   6
ENDBRANCH   4   5
TORSDOF 4
ENDMDL
MODEL      194
REMARK 921   NORMALIZED FREE ENERGY PREDICTED BY IDOCK:   -3.74 KCAL/MOL
REMARK 922        TOTAL FREE ENERGY PREDICTED BY IDOCK:   -5.49 KCAL/MOL
REMARK 923 INTER-LIGAND FREE ENERGY PREDICTED BY IDOCK:   -4.41 KCAL/MOL
REMARK 924 INTRA-LIGAND FREE ENERGY PREDICTED BY IDOCK:   -1.08 KCAL/MOL
REMARK 927      BINDING AFFINITY PREDICTED BY RF-SCORE:    0.00 PKD
ROOT
HETATM    1  O   UNL     1      -9.958   2.989  68.202  1.00  0.00     0.148 OA 
HETATM    2  C   UNL     1      -8.848   2.798  67.448  1.00  0.00    -0.142 C  
HETATM    3  O   UNL     1      -7.892   2.171  67.866  1.00  0.00    -0.058 OA 
HETATM    4  C   UNL     1      -8.931   3.353  66.035  1.00  0.00    -0.143 C  
ENDROOT
BRANCH   4   5
HETATM    5  S   UNL     1     -10.097   4.769  65.905  1.00  0.00    -0.235 SA 
BRANCH   5   6
HETATM    6  C   UNL     1      -8.964   6.085  65.998  1.00  0.00    -0.147 A  
HETATM    7  N   UNL     1      -8.169   6.362  64.989  1.00  0.00    -0.141 NA 
HETATM    8  N   UNL     1      -7.301   7.327  65.394  1.00  0.00    -0.076 NA 
HETATM    9  C   UNL     1      -7.577   7.613  66.648  1.00  0.00    -0.097 A  
HETATM   10  N   UNL     1      -8.772   7.004  67.035  1.00  0.00    -0.120 NA 
HETATM   11 BR   UNL     1      -6.291   8.478  67.717  1.00  0.00    -0.058 Br 
BRANCH  10  12
HETATM   12  C   UNL     1      -9.492   7.216  68.265  1.00  0.00    -0.133 A  
HETATM   13  C   UNL     1      -9.397   6.253  69.271  1.00  0.00    -0.139 A  
HETATM   14  C   UNL     1      -9.941   6.485  70.532  1.00  0.00    -0.206 A  
HETATM   15  C   UNL     1     -10.553   7.699  70.874  1.00  0.00    -0.219 A  
HETATM   16  C   UNL     1     -11.389   9.885  70.115  1.00  0.00    -0.335 A  
HETATM   17  C   UNL     1     -10.725   8.664  69.846  1.00  0.00    -0.227 A  
HETATM   18  C   UNL     1     -11.613  10.846  69.132  1.00  0.00    -0.389 A  
HETATM   19  C   UNL     1     -10.249   8.414  68.518  1.00  0.00    -0.228 A  
HETATM   20  C   UNL     1     -10.615   9.366  67.526  1.00  0.00    -0.333 A  
HETATM   21  C   UNL     1     -11.248  10.575  67.830  1.00  0.00    -0.344 A  
BRANCH  15  22
HETATM   22  C   UNL     1     -11.036   7.861  72.311  1.00  0.00    -0.376 C  
HETATM   23  C   UNL     1     -11.477   6.616  73.061  1.00  0.00    -0.012 C  
HETATM   24  C   UNL     1     -10.259   7.355  73.502  1.00  0.00    -0.400 C  
ENDBRANCH  15  22
ENDBRANCH  10  12
ENDBRANCH   5   6
ENDBRANCH   4   5
TORSDOF 4
ENDMDL
MODEL      195
REMARK 921   NORMALIZED FREE ENERGY PREDICTED BY IDOCK:   -3.72 KCAL/MOL
REMARK 922        TOTAL FREE ENERGY PREDICTED BY IDOCK:   -5.46 KCAL/MOL
REMARK 923 INTER-LIGAND FREE ENERGY PREDICTED BY IDOCK:   -4.61 KCAL/MOL
REMARK 924 INTRA-LIGAND FREE ENERGY PREDICTED BY IDOCK:   -0.86 KCAL/MOL
REMARK 927      BINDING AFFINITY PREDICTED BY RF-SCORE:    0.00 PKD
ROOT
HETATM    1  O   UNL     1     -11.937  12.518  67.613  1.00  0.00    -0.414 OA 
HETATM    2  C   UNL     1     -11.701  12.704  66.291  1.00  0.00    -0.402 C  
HETATM    3  O   UNL     1     -12.471  13.333  65.587  1.00  0.00    -0.457 OA 
HETATM    4  C   UNL     1     -10.380  12.142  65.792  1.00  0.00    -0.258 C  
ENDROOT
BRANCH   4   5
HETATM    5  S   UNL     1      -9.791  10.727  66.807  1.00  0.00    -0.199 SA 
BRANCH   5   6
HETATM    6  C   UNL     1      -8.781  11.582  67.936  1.00  0.00    -0.144 A  
HETATM    7  N   UNL     1      -8.438  12.832  67.720  1.00  0.00    -0.164 NA 
HETATM    8  N   UNL     1      -7.537  13.188  68.674  1.00  0.00    -0.117 NA 
HETATM    9  C   UNL     1      -7.337  12.143  69.447  1.00  0.00     0.258 A  
HETATM   10  N   UNL     1      -8.264  11.140  69.159  1.00  0.00    -0.063 NA 
HETATM   11 BR   UNL     1      -5.794  12.052  70.522  1.00  0.00    -0.041 Br 
BRANCH  10  12
HETATM   12  C   UNL     1      -8.482   9.923  69.900  1.00  0.00    -0.191 A  
HETATM   13  C   UNL     1      -7.464   8.968  69.933  1.00  0.00    -0.065 A  
HETATM   14  C   UNL     1      -7.561   7.854  70.762  1.00  0.00    -0.078 A  
HETATM   15  C   UNL     1      -8.640   7.659  71.636  1.00  0.00    -0.129 A  
HETATM   16  C   UNL     1     -10.863   8.403  72.381  1.00  0.00    -0.416 A  
HETATM   17  C   UNL     1      -9.720   8.579  71.566  1.00  0.00    -0.303 A  
HETATM   18  C   UNL     1     -11.961   9.257  72.323  1.00  0.00    -0.204 A  
HETATM   19  C   UNL     1      -9.681   9.688  70.660  1.00  0.00    -0.239 A  
HETATM   20  C   UNL     1     -10.875  10.454  70.547  1.00  0.00    -0.188 A  
HETATM   21  C   UNL     1     -11.978  10.269  71.386  1.00  0.00    -0.419 A  
BRANCH  15  22
HETATM   22  C   UNL     1      -8.590   6.441  72.552  1.00  0.00    -0.123 C  
HETATM   23  C   UNL     1      -9.062   5.109  71.995  1.00  0.00    -0.152 C  
HETATM   24  C   UNL     1      -7.626   5.298  72.349  1.00  0.00    -0.097 C  
ENDBRANCH  15  22
ENDBRANCH  10  12
ENDBRANCH   5   6
ENDBRANCH   4   5
TORSDOF 4
ENDMDL
MODEL      196
REMARK 921   NORMALIZED FREE ENERGY PREDICTED BY IDOCK:   -3.70 KCAL/MOL
REMARK 922        TOTAL FREE ENERGY PREDICTED BY IDOCK:   -5.44 KCAL/MOL
REMARK 923 INTER-LIGAND FREE ENERGY PREDICTED BY IDOCK:   -4.56 KCAL/MOL
REMARK 924 INTRA-LIGAND FREE ENERGY PREDICTED BY IDOCK:   -0.88 KCAL/MOL
REMARK 927      BINDING AFFINITY PREDICTED BY RF-SCORE:    0.00 PKD
ROOT
HETATM    1  O   UNL     1      -6.000  12.014  67.714  1.00  0.00    -0.059 OA 
HETATM    2  C   UNL     1      -7.127  12.082  68.464  1.00  0.00    -0.098 C  
HETATM    3  O   UNL     1      -7.969  12.942  68.276  1.00  0.00    -0.139 OA 
HETATM    4  C   UNL     1      -7.284  10.966  69.485  1.00  0.00    -0.113 C  
ENDROOT
BRANCH   4   5
HETATM    5  S   UNL     1      -5.668  10.273  70.020  1.00  0.00    -0.060 SA 
BRANCH   5   6
HETATM    6  C   UNL     1      -6.156   9.522  71.512  1.00  0.00    -0.000 A  
HETATM    7  N   UNL     1      -5.670   9.931  72.662  1.00  0.00    -0.283 NA 
HETATM    8  N   UNL     1      -6.105   9.077  73.626  1.00  0.00    -0.294 NA 
HETATM    9  C   UNL     1      -6.839   8.155  73.043  1.00  0.00    -0.103 A  
HETATM   10  N   UNL     1      -7.089   8.500  71.714  1.00  0.00    -0.091 NA 
HETATM   11 BR   UNL     1      -7.165   6.522  73.921  1.00  0.00    -0.084 Br 
BRANCH  10  12
HETATM   12  C   UNL     1      -7.991   7.840  70.803  1.00  0.00    -0.101 A  
HETATM   13  C   UNL     1      -7.457   7.170  69.701  1.00  0.00    -0.098 A  
HETATM   14  C   UNL     1      -8.268   6.386  68.884  1.00  0.00    -0.118 A  
HETATM   15  C   UNL     1      -9.629   6.183  69.151  1.00  0.00    -0.154 A  
HETATM   16  C   UNL     1     -11.590   6.793  70.505  1.00  0.00    -0.426 A  
HETATM   17  C   UNL     1     -10.208   6.911  70.224  1.00  0.00    -0.208 A  
HETATM   18  C   UNL     1     -12.209   7.514  71.523  1.00  0.00    -0.359 A  
HETATM   19  C   UNL     1      -9.411   7.791  71.027  1.00  0.00    -0.165 A  
HETATM   20  C   UNL     1     -10.113   8.598  71.966  1.00  0.00    -0.401 A  
HETATM   21  C   UNL     1     -11.475   8.437  72.238  1.00  0.00    -0.454 A  
BRANCH  15  22
HETATM   22  C   UNL     1     -10.391   5.236  68.229  1.00  0.00    -0.181 C  
HETATM   23  C   UNL     1     -10.840   5.763  66.878  1.00  0.00    -0.337 C  
HETATM   24  C   UNL     1      -9.809   4.689  66.949  1.00  0.00    -0.235 C  
ENDBRANCH  15  22
ENDBRANCH  10  12
ENDBRANCH   5   6
ENDBRANCH   4   5
TORSDOF 4
ENDMDL
MODEL      197
REMARK 921   NORMALIZED FREE ENERGY PREDICTED BY IDOCK:   -3.67 KCAL/MOL
REMARK 922        TOTAL FREE ENERGY PREDICTED BY IDOCK:   -5.41 KCAL/MOL
REMARK 923 INTER-LIGAND FREE ENERGY PREDICTED BY IDOCK:   -4.24 KCAL/MOL
REMARK 924 INTRA-LIGAND FREE ENERGY PREDICTED BY IDOCK:   -1.17 KCAL/MOL
REMARK 927      BINDING AFFINITY PREDICTED BY RF-SCORE:    0.00 PKD
ROOT
HETATM    1  O   UNL     1      -7.694   4.022  69.490  1.00  0.00    -0.053 OA 
HETATM    2  C   UNL     1      -6.994   3.577  70.562  1.00  0.00    -0.034 C  
HETATM    3  O   UNL     1      -7.259   2.519  71.104  1.00  0.00    -0.032 OA 
HETATM    4  C   UNL     1      -5.822   4.455  70.969  1.00  0.00    -0.016 C  
ENDROOT
BRANCH   4   5
HETATM    5  S   UNL     1      -6.061   6.213  70.486  1.00  0.00    -0.031 SA 
BRANCH   5   6
HETATM    6  C   UNL     1      -7.271   6.670  71.649  1.00  0.00    -0.085 A  
HETATM    7  N   UNL     1      -7.188   6.272  72.899  1.00  0.00    -0.080 NA 
HETATM    8  N   UNL     1      -8.332   6.647  73.532  1.00  0.00    -0.117 NA 
HETATM    9  C   UNL     1      -9.097   7.256  72.652  1.00  0.00    -0.139 A  
HETATM   10  N   UNL     1      -8.388   7.494  71.473  1.00  0.00    -0.106 NA 
HETATM   11 BR   UNL     1     -10.942   7.435  72.978  1.00  0.00    -0.406 Br 
BRANCH  10  12
HETATM   12  C   UNL     1      -8.819   8.285  70.349  1.00  0.00    -0.141 A  
HETATM   13  C   UNL     1      -8.442   9.628  70.290  1.00  0.00    -0.221 A  
HETATM   14  C   UNL     1      -8.695  10.389  69.153  1.00  0.00    -0.173 A  
HETATM   15  C   UNL     1      -9.282   9.846  68.001  1.00  0.00    -0.129 A  
HETATM   16  C   UNL     1     -10.393   7.917  66.953  1.00  0.00    -0.400 A  
HETATM   17  C   UNL     1      -9.739   8.503  68.063  1.00  0.00    -0.180 A  
HETATM   18  C   UNL     1     -10.890   6.617  66.980  1.00  0.00    -0.467 A  
HETATM   19  C   UNL     1      -9.566   7.724  69.254  1.00  0.00    -0.159 A  
HETATM   20  C   UNL     1     -10.202   6.451  69.274  1.00  0.00    -0.229 A  
HETATM   21  C   UNL     1     -10.818   5.892  68.151  1.00  0.00    -0.323 A  
BRANCH  15  22
HETATM   22  C   UNL     1      -9.432  10.763  66.791  1.00  0.00    -0.198 C  
HETATM   23  C   UNL     1     -10.678  11.627  66.700  1.00  0.00    -0.310 C  
HETATM   24  C   UNL     1      -9.343  12.266  66.882  1.00  0.00    -0.210 C  
ENDBRANCH  15  22
ENDBRANCH  10  12
ENDBRANCH   5   6
ENDBRANCH   4   5
TORSDOF 4
ENDMDL
MODEL      198
REMARK 921   NORMALIZED FREE ENERGY PREDICTED BY IDOCK:   -3.65 KCAL/MOL
REMARK 922        TOTAL FREE ENERGY PREDICTED BY IDOCK:   -5.39 KCAL/MOL
REMARK 923 INTER-LIGAND FREE ENERGY PREDICTED BY IDOCK:   -4.30 KCAL/MOL
REMARK 924 INTRA-LIGAND FREE ENERGY PREDICTED BY IDOCK:   -1.08 KCAL/MOL
REMARK 927      BINDING AFFINITY PREDICTED BY RF-SCORE:    0.00 PKD
ROOT
HETATM    1  O   UNL     1      -7.773   3.943  69.086  1.00  0.00    -0.053 OA 
HETATM    2  C   UNL     1      -7.154   5.145  69.181  1.00  0.00    -0.056 C  
HETATM    3  O   UNL     1      -6.408   5.408  70.107  1.00  0.00    -0.028 OA 
HETATM    4  C   UNL     1      -7.402   6.086  68.013  1.00  0.00    -0.084 C  
ENDROOT
BRANCH   4   5
HETATM    5  S   UNL     1      -9.006   5.758  67.176  1.00  0.00    -0.113 SA 
BRANCH   5   6
HETATM    6  C   UNL     1      -9.744   7.325  67.342  1.00  0.00    -0.150 A  
HETATM    7  N   UNL     1      -9.953   8.085  66.291  1.00  0.00    -0.135 NA 
HETATM    8  N   UNL     1     -10.395   9.293  66.732  1.00  0.00    -0.243 NA 
HETATM    9  C   UNL     1     -10.436   9.250  68.046  1.00  0.00    -0.223 A  
HETATM   10  N   UNL     1     -10.233   7.945  68.497  1.00  0.00    -0.202 NA 
HETATM   11 BR   UNL     1     -10.467  10.851  69.036  1.00  0.00    -0.255 Br 
BRANCH  10  12
HETATM   12  C   UNL     1     -10.377   7.464  69.848  1.00  0.00    -0.218 A  
HETATM   13  C   UNL     1     -11.530   6.753  70.186  1.00  0.00    -0.404 A  
HETATM   14  C   UNL     1     -11.644   6.131  71.427  1.00  0.00    -0.283 A  
HETATM   15  C   UNL     1     -10.604   6.136  72.367  1.00  0.00    -0.243 A  
HETATM   16  C   UNL     1      -8.394   7.004  73.009  1.00  0.00    -0.122 A  
HETATM   17  C   UNL     1      -9.452   6.912  72.074  1.00  0.00    -0.147 A  
HETATM   18  C   UNL     1      -7.261   7.781  72.782  1.00  0.00    -0.096 A  
HETATM   19  C   UNL     1      -9.347   7.630  70.838  1.00  0.00    -0.158 A  
HETATM   20  C   UNL     1      -8.233   8.507  70.710  1.00  0.00    -0.141 A  
HETATM   21  C   UNL     1      -7.192   8.554  71.642  1.00  0.00    -0.110 A  
BRANCH  15  22
HETATM   22  C   UNL     1     -10.821   5.349  73.656  1.00  0.00    -0.321 C  
HETATM   23  C   UNL     1     -11.008   3.846  73.552  1.00  0.00    -0.343 C  
HETATM   24  C   UNL     1      -9.795   4.398  74.221  1.00  0.00    -0.176 C  
ENDBRANCH  15  22
ENDBRANCH  10  12
ENDBRANCH   5   6
ENDBRANCH   4   5
TORSDOF 4
ENDMDL
MODEL      199
REMARK 921   NORMALIZED FREE ENERGY PREDICTED BY IDOCK:   -3.64 KCAL/MOL
REMARK 922        TOTAL FREE ENERGY PREDICTED BY IDOCK:   -5.37 KCAL/MOL
REMARK 923 INTER-LIGAND FREE ENERGY PREDICTED BY IDOCK:   -4.27 KCAL/MOL
REMARK 924 INTRA-LIGAND FREE ENERGY PREDICTED BY IDOCK:   -1.10 KCAL/MOL
REMARK 927      BINDING AFFINITY PREDICTED BY RF-SCORE:    0.00 PKD
ROOT
HETATM    1  O   UNL     1      -7.118  11.533  67.218  1.00  0.00    -0.109 OA 
HETATM    2  C   UNL     1      -7.994  11.714  68.236  1.00  0.00    -0.143 C  
HETATM    3  O   UNL     1      -8.769  12.653  68.253  1.00  0.00    -0.183 OA 
HETATM    4  C   UNL     1      -7.980  10.621  69.293  1.00  0.00    -0.135 C  
ENDROOT
BRANCH   4   5
HETATM    5  S   UNL     1      -6.354   9.772  69.402  1.00  0.00    -0.046 SA 
BRANCH   5   6
HETATM    6  C   UNL     1      -6.271   9.526  71.122  1.00  0.00    -0.068 A  
HETATM    7  N   UNL     1      -5.690  10.410  71.902  1.00  0.00    -0.297 NA 
HETATM    8  N   UNL     1      -5.641   9.891  73.157  1.00  0.00    -0.304 NA 
HETATM    9  C   UNL     1      -6.183   8.693  73.118  1.00  0.00    -0.078 A  
HETATM   10  N   UNL     1      -6.801   8.479  71.884  1.00  0.00    -0.087 NA 
HETATM   11 BR   UNL     1      -5.824   7.456  74.490  1.00  0.00    -0.078 Br 
BRANCH  10  12
HETATM   12  C   UNL     1      -7.645   7.369  71.520  1.00  0.00    -0.085 A  
HETATM   13  C   UNL     1      -7.048   6.205  71.034  1.00  0.00    -0.070 A  
HETATM   14  C   UNL     1      -7.802   5.054  70.821  1.00  0.00    -0.083 A  
HETATM   15  C   UNL     1      -9.168   4.983  71.130  1.00  0.00    -0.187 A  
HETATM   16  C   UNL     1     -11.200   6.181  71.828  1.00  0.00    -0.338 A  
HETATM   17  C   UNL     1      -9.811   6.175  71.558  1.00  0.00    -0.190 A  
HETATM   18  C   UNL     1     -11.881   7.333  72.214  1.00  0.00    -0.287 A  
HETATM   19  C   UNL     1      -9.072   7.395  71.703  1.00  0.00    -0.141 A  
HETATM   20  C   UNL     1      -9.834   8.566  71.974  1.00  0.00    -0.383 A  
HETATM   21  C   UNL     1     -11.202   8.533  72.263  1.00  0.00    -0.432 A  
BRANCH  15  22
HETATM   22  C   UNL     1      -9.864   3.642  70.929  1.00  0.00    -0.159 C  
HETATM   23  C   UNL     1      -8.999   2.420  70.669  1.00  0.00    -0.160 C  
HETATM   24  C   UNL     1      -9.787   2.516  71.931  1.00  0.00    -0.228 C  
ENDBRANCH  15  22
ENDBRANCH  10  12
ENDBRANCH   5   6
ENDBRANCH   4   5
TORSDOF 4
ENDMDL
MODEL      200
REMARK 921   NORMALIZED FREE ENERGY PREDICTED BY IDOCK:   -3.60 KCAL/MOL
REMARK 922        TOTAL FREE ENERGY PREDICTED BY IDOCK:   -5.32 KCAL/MOL
REMARK 923 INTER-LIGAND FREE ENERGY PREDICTED BY IDOCK:   -4.45 KCAL/MOL
REMARK 924 INTRA-LIGAND FREE ENERGY PREDICTED BY IDOCK:   -0.87 KCAL/MOL
REMARK 927      BINDING AFFINITY PREDICTED BY RF-SCORE:    0.00 PKD
ROOT
HETATM    1  O   UNL     1     -14.403  14.275  71.314  1.00  0.00    -0.262 OA 
HETATM    2  C   UNL     1     -13.197  14.134  71.916  1.00  0.00    -0.387 C  
HETATM    3  O   UNL     1     -12.930  14.709  72.955  1.00  0.00    -0.464 OA 
HETATM    4  C   UNL     1     -12.255  13.152  71.238  1.00  0.00     0.026 C  
ENDROOT
BRANCH   4   5
HETATM    5  S   UNL     1     -12.592  12.984  69.439  1.00  0.00     0.649 SA 
BRANCH   5   6
HETATM    6  C   UNL     1     -11.593  14.274  68.835  1.00  0.00    -0.305 A  
HETATM    7  N   UNL     1     -11.580  15.448  69.426  1.00  0.00    -0.317 NA 
HETATM    8  N   UNL     1     -10.837  16.291  68.660  1.00  0.00    -0.303 NA 
HETATM    9  C   UNL     1     -10.420  15.618  67.610  1.00  0.00    -0.283 A  
HETATM   10  N   UNL     1     -10.693  14.257  67.765  1.00  0.00    -0.249 NA 
HETATM   11 BR   UNL     1      -9.841  16.539  66.075  1.00  0.00    -0.334 Br 
BRANCH  10  12
HETATM   12  C   UNL     1     -10.240  13.182  66.918  1.00  0.00    -0.245 A  
HETATM   13  C   UNL     1     -10.902  12.956  65.711  1.00  0.00    -0.292 A  
HETATM   14  C   UNL     1     -10.406  12.039  64.788  1.00  0.00    -0.318 A  
HETATM   15  C   UNL     1      -9.205  11.345  64.991  1.00  0.00    -0.093 A  
HETATM   16  C   UNL     1      -7.368  10.785  66.529  1.00  0.00    -0.139 A  
HETATM   17  C   UNL     1      -8.553  11.505  66.242  1.00  0.00    -0.133 A  
HETATM   18  C   UNL     1      -6.714  10.882  67.754  1.00  0.00    -0.064 A  
HETATM   19  C   UNL     1      -9.090  12.380  67.242  1.00  0.00    -0.187 A  
HETATM   20  C   UNL     1      -8.459  12.345  68.517  1.00  0.00    -0.069 A  
HETATM   21  C   UNL     1      -7.274  11.643  68.759  1.00  0.00    -0.116 A  
BRANCH  15  22
HETATM   22  C   UNL     1      -8.726  10.429  63.869  1.00  0.00    -0.202 C  
HETATM   23  C   UNL     1      -9.685  10.134  62.729  1.00  0.00    -0.086 C  
HETATM   24  C   UNL     1      -8.445  10.920  62.470  1.00  0.00    -0.282 C  
ENDBRANCH  15  22
ENDBRANCH  10  12
ENDBRANCH   5   6
ENDBRANCH   4   5
TORSDOF 4
ENDMDL
MODEL      201
REMARK 921   NORMALIZED FREE ENERGY PREDICTED BY IDOCK:   -3.59 KCAL/MOL
REMARK 922        TOTAL FREE ENERGY PREDICTED BY IDOCK:   -5.31 KCAL/MOL
REMARK 923 INTER-LIGAND FREE ENERGY PREDICTED BY IDOCK:   -4.44 KCAL/MOL
REMARK 924 INTRA-LIGAND FREE ENERGY PREDICTED BY IDOCK:   -0.87 KCAL/MOL
REMARK 927      BINDING AFFINITY PREDICTED BY RF-SCORE:    0.00 PKD
ROOT
HETATM    1  O   UNL     1     -10.502   9.252  68.195  1.00  0.00    -0.207 OA 
HETATM    2  C   UNL     1      -9.960  10.105  69.099  1.00  0.00    -0.210 C  
HETATM    3  O   UNL     1      -9.101  10.909  68.783  1.00  0.00    -0.169 OA 
HETATM    4  C   UNL     1     -10.562  10.028  70.492  1.00  0.00    -0.246 C  
ENDROOT
BRANCH   4   5
HETATM    5  S   UNL     1     -11.274   8.373  70.858  1.00  0.00    -0.264 SA 
BRANCH   5   6
HETATM    6  C   UNL     1     -10.110   7.808  72.020  1.00  0.00    -0.191 A  
HETATM    7  N   UNL     1      -9.812   8.527  73.079  1.00  0.00    -0.084 NA 
HETATM    8  N   UNL     1      -8.779   7.917  73.720  1.00  0.00    -0.258 NA 
HETATM    9  C   UNL     1      -8.458   6.843  73.032  1.00  0.00    -0.114 A  
HETATM   10  N   UNL     1      -9.412   6.596  72.043  1.00  0.00    -0.150 NA 
HETATM   11 BR   UNL     1      -6.770   6.046  73.271  1.00  0.00    -0.076 Br 
BRANCH  10  12
HETATM   12  C   UNL     1      -9.507   5.427  71.205  1.00  0.00    -0.156 A  
HETATM   13  C   UNL     1      -9.254   5.560  69.839  1.00  0.00    -0.170 A  
HETATM   14  C   UNL     1      -9.176   4.438  69.017  1.00  0.00    -0.201 A  
HETATM   15  C   UNL     1      -9.288   3.133  69.516  1.00  0.00    -0.228 A  
HETATM   16  C   UNL     1      -9.802   1.685  71.438  1.00  0.00    -0.197 A  
HETATM   17  C   UNL     1      -9.617   2.976  70.889  1.00  0.00    -0.215 A  
HETATM   18  C   UNL     1     -10.160   1.483  72.768  1.00  0.00    -0.180 A  
HETATM   19  C   UNL     1      -9.786   4.119  71.737  1.00  0.00    -0.252 A  
HETATM   20  C   UNL     1     -10.276   3.865  73.049  1.00  0.00    -0.228 A  
HETATM   21  C   UNL     1     -10.423   2.576  73.568  1.00  0.00    -0.230 A  
BRANCH  15  22
HETATM   22  C   UNL     1      -9.102   1.986  68.528  1.00  0.00    -0.204 C  
HETATM   23  C   UNL     1      -8.973   2.327  67.054  1.00  0.00    -0.155 C  
HETATM   24  C   UNL     1      -7.812   1.742  67.784  1.00  0.00    -0.059 C  
ENDBRANCH  15  22
ENDBRANCH  10  12
ENDBRANCH   5   6
ENDBRANCH   4   5
TORSDOF 4
ENDMDL
MODEL      202
REMARK 921   NORMALIZED FREE ENERGY PREDICTED BY IDOCK:   -3.59 KCAL/MOL
REMARK 922        TOTAL FREE ENERGY PREDICTED BY IDOCK:   -5.31 KCAL/MOL
REMARK 923 INTER-LIGAND FREE ENERGY PREDICTED BY IDOCK:   -4.14 KCAL/MOL
REMARK 924 INTRA-LIGAND FREE ENERGY PREDICTED BY IDOCK:   -1.17 KCAL/MOL
REMARK 927      BINDING AFFINITY PREDICTED BY RF-SCORE:    0.00 PKD
ROOT
HETATM    1  O   UNL     1     -11.089  12.348  69.306  1.00  0.00    -0.221 OA 
HETATM    2  C   UNL     1     -11.602  11.193  68.816  1.00  0.00    -0.322 C  
HETATM    3  O   UNL     1     -12.337  10.486  69.483  1.00  0.00    -0.191 OA 
HETATM    4  C   UNL     1     -11.254  10.903  67.365  1.00  0.00    -0.273 C  
ENDROOT
BRANCH   4   5
HETATM    5  S   UNL     1      -9.672  11.688  66.853  1.00  0.00    -0.198 SA 
BRANCH   5   6
HETATM    6  C   UNL     1      -8.899  10.320  66.108  1.00  0.00    -0.151 A  
HETATM    7  N   UNL     1      -8.630  10.315  64.822  1.00  0.00    -0.176 NA 
HETATM    8  N   UNL     1      -8.172   9.078  64.496  1.00  0.00    -0.151 NA 
HETATM    9  C   UNL     1      -8.181   8.345  65.588  1.00  0.00    -0.132 A  
HETATM   10  N   UNL     1      -8.437   9.142  66.706  1.00  0.00    -0.122 NA 
HETATM   11 BR   UNL     1      -8.145   6.468  65.459  1.00  0.00    -0.131 Br 
BRANCH  10  12
HETATM   12  C   UNL     1      -8.357   8.744  68.089  1.00  0.00    -0.122 A  
HETATM   13  C   UNL     1      -7.263   9.169  68.846  1.00  0.00    -0.073 A  
HETATM   14  C   UNL     1      -7.220   8.948  70.220  1.00  0.00    -0.054 A  
HETATM   15  C   UNL     1      -8.278   8.348  70.917  1.00  0.00    -0.130 A  
HETATM   16  C   UNL     1     -10.438   7.175  70.800  1.00  0.00    -0.227 A  
HETATM   17  C   UNL     1      -9.368   7.844  70.158  1.00  0.00    -0.156 A  
HETATM   18  C   UNL     1     -11.509   6.632  70.095  1.00  0.00    -0.444 A  
HETATM   19  C   UNL     1      -9.395   7.984  68.733  1.00  0.00    -0.147 A  
HETATM   20  C   UNL     1     -10.443   7.303  68.051  1.00  0.00    -0.249 A  
HETATM   21  C   UNL     1     -11.498   6.673  68.716  1.00  0.00    -0.060 A  
BRANCH  15  22
HETATM   22  C   UNL     1      -8.146   8.236  72.432  1.00  0.00    -0.204 C  
HETATM   23  C   UNL     1      -7.491   6.990  73.002  1.00  0.00    -0.075 C  
HETATM   24  C   UNL     1      -6.821   8.314  73.150  1.00  0.00    -0.131 C  
ENDBRANCH  15  22
ENDBRANCH  10  12
ENDBRANCH   5   6
ENDBRANCH   4   5
TORSDOF 4
ENDMDL
MODEL      203
REMARK 921   NORMALIZED FREE ENERGY PREDICTED BY IDOCK:   -3.58 KCAL/MOL
REMARK 922        TOTAL FREE ENERGY PREDICTED BY IDOCK:   -5.30 KCAL/MOL
REMARK 923 INTER-LIGAND FREE ENERGY PREDICTED BY IDOCK:   -4.18 KCAL/MOL
REMARK 924 INTRA-LIGAND FREE ENERGY PREDICTED BY IDOCK:   -1.12 KCAL/MOL
REMARK 927      BINDING AFFINITY PREDICTED BY RF-SCORE:    0.00 PKD
ROOT
HETATM    1  O   UNL     1     -10.799  10.029  67.639  1.00  0.00    -0.270 OA 
HETATM    2  C   UNL     1     -10.676  10.986  68.591  1.00  0.00    -0.198 C  
HETATM    3  O   UNL     1     -10.116  12.044  68.365  1.00  0.00    -0.204 OA 
HETATM    4  C   UNL     1     -11.353  10.664  69.913  1.00  0.00    -0.313 C  
ENDROOT
BRANCH   4   5
HETATM    5  S   UNL     1     -11.490   8.855  70.210  1.00  0.00    -0.024 SA 
BRANCH   5   6
HETATM    6  C   UNL     1      -9.834   8.501  70.607  1.00  0.00    -0.186 A  
HETATM    7  N   UNL     1      -9.206   9.177  71.543  1.00  0.00    -0.321 NA 
HETATM    8  N   UNL     1      -7.902   8.793  71.532  1.00  0.00    -0.229 NA 
HETATM    9  C   UNL     1      -7.756   7.897  70.580  1.00  0.00    -0.086 A  
HETATM   10  N   UNL     1      -9.001   7.506  70.085  1.00  0.00    -0.147 NA 
HETATM   11 BR   UNL     1      -6.042   7.531  69.892  1.00  0.00    -0.027 Br 
BRANCH  10  12
HETATM   12  C   UNL     1      -9.267   6.427  69.166  1.00  0.00    -0.133 A  
HETATM   13  C   UNL     1      -9.352   6.714  67.803  1.00  0.00    -0.119 A  
HETATM   14  C   UNL     1      -9.446   5.690  66.865  1.00  0.00    -0.142 A  
HETATM   15  C   UNL     1      -9.405   4.336  67.225  1.00  0.00    -0.186 A  
HETATM   16  C   UNL     1      -9.409   2.672  69.037  1.00  0.00    -0.212 A  
HETATM   17  C   UNL     1      -9.392   4.021  68.610  1.00  0.00    -0.224 A  
HETATM   18  C   UNL     1      -9.433   2.314  70.382  1.00  0.00    -0.166 A  
HETATM   19  C   UNL     1      -9.379   5.059  69.597  1.00  0.00    -0.184 A  
HETATM   20  C   UNL     1      -9.534   4.645  70.951  1.00  0.00    -0.233 A  
HETATM   21  C   UNL     1      -9.522   3.303  71.341  1.00  0.00    -0.221 A  
BRANCH  15  22
HETATM   22  C   UNL     1      -9.435   3.309  66.098  1.00  0.00    -0.091 C  
HETATM   23  C   UNL     1      -9.529   3.818  64.670  1.00  0.00    -0.165 C  
HETATM   24  C   UNL     1      -8.294   3.119  65.128  1.00  0.00    -0.095 C  
ENDBRANCH  15  22
ENDBRANCH  10  12
ENDBRANCH   5   6
ENDBRANCH   4   5
TORSDOF 4
ENDMDL
MODEL      204
REMARK 921   NORMALIZED FREE ENERGY PREDICTED BY IDOCK:   -3.57 KCAL/MOL
REMARK 922        TOTAL FREE ENERGY PREDICTED BY IDOCK:   -5.28 KCAL/MOL
REMARK 923 INTER-LIGAND FREE ENERGY PREDICTED BY IDOCK:   -4.21 KCAL/MOL
REMARK 924 INTRA-LIGAND FREE ENERGY PREDICTED BY IDOCK:   -1.07 KCAL/MOL
REMARK 927      BINDING AFFINITY PREDICTED BY RF-SCORE:    0.00 PKD
ROOT
HETATM    1  O   UNL     1      -9.171  10.801  65.608  1.00  0.00    -0.184 OA 
HETATM    2  C   UNL     1      -9.330  11.645  66.657  1.00  0.00    -0.194 C  
HETATM    3  O   UNL     1      -8.709  12.691  66.734  1.00  0.00    -0.199 OA 
HETATM    4  C   UNL     1     -10.386  11.223  67.665  1.00  0.00    -0.184 C  
ENDROOT
BRANCH   4   5
HETATM    5  S   UNL     1     -10.638   9.402  67.694  1.00  0.00    -0.236 SA 
BRANCH   5   6
HETATM    6  C   UNL     1     -10.803   9.160  69.408  1.00  0.00    -0.151 A  
HETATM    7  N   UNL     1     -11.464  10.021  70.149  1.00  0.00    -0.270 NA 
HETATM    8  N   UNL     1     -11.302   9.662  71.451  1.00  0.00    -0.379 NA 
HETATM    9  C   UNL     1     -10.534   8.594  71.480  1.00  0.00    -0.274 A  
HETATM   10  N   UNL     1     -10.350   8.092  70.190  1.00  0.00    -0.211 NA 
HETATM   11 BR   UNL     1      -9.644   8.123  73.070  1.00  0.00    -0.299 Br 
BRANCH  10  12
HETATM   12  C   UNL     1      -9.722   6.847  69.828  1.00  0.00    -0.164 A  
HETATM   13  C   UNL     1     -10.515   5.704  69.718  1.00  0.00    -0.377 A  
HETATM   14  C   UNL     1      -9.988   4.516  69.217  1.00  0.00    -0.192 A  
HETATM   15  C   UNL     1      -8.669   4.419  68.750  1.00  0.00    -0.120 A  
HETATM   16  C   UNL     1      -6.467   5.491  68.522  1.00  0.00    -0.043 A  
HETATM   17  C   UNL     1      -7.824   5.548  68.919  1.00  0.00    -0.095 A  
HETATM   18  C   UNL     1      -5.591   6.558  68.700  1.00  0.00    -0.016 A  
HETATM   19  C   UNL     1      -8.321   6.754  69.510  1.00  0.00    -0.132 A  
HETATM   20  C   UNL     1      -7.359   7.766  69.786  1.00  0.00    -0.080 A  
HETATM   21  C   UNL     1      -6.031   7.689  69.357  1.00  0.00    -0.030 A  
BRANCH  15  22
HETATM   22  C   UNL     1      -8.234   3.087  68.149  1.00  0.00    -0.089 C  
HETATM   23  C   UNL     1      -8.879   1.819  68.681  1.00  0.00    -0.132 C  
HETATM   24  C   UNL     1      -9.133   2.246  67.276  1.00  0.00    -0.166 C  
ENDBRANCH  15  22
ENDBRANCH  10  12
ENDBRANCH   5   6
ENDBRANCH   4   5
TORSDOF 4
ENDMDL
MODEL      205
REMARK 921   NORMALIZED FREE ENERGY PREDICTED BY IDOCK:   -3.53 KCAL/MOL
REMARK 922        TOTAL FREE ENERGY PREDICTED BY IDOCK:   -5.23 KCAL/MOL
REMARK 923 INTER-LIGAND FREE ENERGY PREDICTED BY IDOCK:   -4.33 KCAL/MOL
REMARK 924 INTRA-LIGAND FREE ENERGY PREDICTED BY IDOCK:   -0.90 KCAL/MOL
REMARK 927      BINDING AFFINITY PREDICTED BY RF-SCORE:    0.00 PKD
ROOT
HETATM    1  O   UNL     1      -7.723  11.758  66.727  1.00  0.00    -0.149 OA 
HETATM    2  C   UNL     1      -9.078  11.750  66.769  1.00  0.00    -0.194 C  
HETATM    3  O   UNL     1      -9.742  12.504  66.080  1.00  0.00    -0.256 OA 
HETATM    4  C   UNL     1      -9.684  10.688  67.670  1.00  0.00    -0.165 C  
ENDROOT
BRANCH   4   5
HETATM    5  S   UNL     1      -8.556  10.203  69.039  1.00  0.00    -0.166 SA 
BRANCH   5   6
HETATM    6  C   UNL     1      -9.706   9.457  70.111  1.00  0.00    -0.235 A  
HETATM    7  N   UNL     1     -10.644  10.170  70.692  1.00  0.00    -0.209 NA 
HETATM    8  N   UNL     1     -11.291   9.365  71.577  1.00  0.00    -0.379 NA 
HETATM    9  C   UNL     1     -10.726   8.178  71.527  1.00  0.00    -0.233 A  
HETATM   10  N   UNL     1      -9.838   8.107  70.452  1.00  0.00    -0.186 NA 
HETATM   11 BR   UNL     1     -10.958   6.968  72.950  1.00  0.00    -0.340 Br 
BRANCH  10  12
HETATM   12  C   UNL     1      -9.162   6.931  69.964  1.00  0.00    -0.155 A  
HETATM   13  C   UNL     1      -8.158   6.361  70.749  1.00  0.00    -0.120 A  
HETATM   14  C   UNL     1      -7.589   5.139  70.399  1.00  0.00    -0.070 A  
HETATM   15  C   UNL     1      -8.024   4.399  69.291  1.00  0.00    -0.061 A  
HETATM   16  C   UNL     1      -9.428   4.319  67.272  1.00  0.00    -0.209 A  
HETATM   17  C   UNL     1      -8.993   4.992  68.438  1.00  0.00    -0.123 A  
HETATM   18  C   UNL     1     -10.348   4.876  66.388  1.00  0.00    -0.328 A  
HETATM   19  C   UNL     1      -9.532   6.287  68.732  1.00  0.00    -0.124 A  
HETATM   20  C   UNL     1     -10.368   6.864  67.734  1.00  0.00    -0.253 A  
HETATM   21  C   UNL     1     -10.799   6.161  66.605  1.00  0.00    -0.279 A  
BRANCH  15  22
HETATM   22  C   UNL     1      -7.378   3.037  69.060  1.00  0.00    -0.048 C  
HETATM   23  C   UNL     1      -6.211   2.954  68.091  1.00  0.00    -0.028 C  
HETATM   24  C   UNL     1      -5.990   2.692  69.542  1.00  0.00    -0.024 C  
ENDBRANCH  15  22
ENDBRANCH  10  12
ENDBRANCH   5   6
ENDBRANCH   4   5
TORSDOF 4
ENDMDL
MODEL      206
REMARK 921   NORMALIZED FREE ENERGY PREDICTED BY IDOCK:   -3.46 KCAL/MOL
REMARK 922        TOTAL FREE ENERGY PREDICTED BY IDOCK:   -5.15 KCAL/MOL
REMARK 923 INTER-LIGAND FREE ENERGY PREDICTED BY IDOCK:   -4.65 KCAL/MOL
REMARK 924 INTRA-LIGAND FREE ENERGY PREDICTED BY IDOCK:   -0.50 KCAL/MOL
REMARK 927      BINDING AFFINITY PREDICTED BY RF-SCORE:    0.00 PKD
ROOT
HETATM    1  O   UNL     1      -8.207   6.994  64.345  1.00  0.00    -0.084 OA 
HETATM    2  C   UNL     1      -8.342   6.229  65.455  1.00  0.00    -0.147 C  
HETATM    3  O   UNL     1      -8.058   5.045  65.454  1.00  0.00    -0.109 OA 
HETATM    4  C   UNL     1      -8.793   6.979  66.698  1.00  0.00    -0.132 C  
ENDROOT
BRANCH   4   5
HETATM    5  S   UNL     1      -9.771   8.482  66.294  1.00  0.00    -0.190 SA 
BRANCH   5   6
HETATM    6  C   UNL     1      -8.605   9.705  66.706  1.00  0.00    -0.134 A  
HETATM    7  N   UNL     1      -7.393   9.679  66.198  1.00  0.00    -0.096 NA 
HETATM    8  N   UNL     1      -6.665  10.654  66.805  1.00  0.00    -0.095 NA 
HETATM    9  C   UNL     1      -7.444  11.250  67.682  1.00  0.00    -0.101 A  
HETATM   10  N   UNL     1      -8.766  10.831  67.521  1.00  0.00    -0.125 NA 
HETATM   11 BR   UNL     1      -6.685  12.258  69.078  1.00  0.00    -0.095 Br 
BRANCH  10  12
HETATM   12  C   UNL     1      -9.932  11.378  68.169  1.00  0.00    -0.189 A  
HETATM   13  C   UNL     1     -10.410  10.757  69.324  1.00  0.00    -0.228 A  
HETATM   14  C   UNL     1     -11.430  11.337  70.073  1.00  0.00    -0.359 A  
HETATM   15  C   UNL     1     -11.986  12.582  69.748  1.00  0.00    -0.359 A  
HETATM   16  C   UNL     1     -12.134  14.426  68.126  1.00  0.00    -0.258 A  
HETATM   17  C   UNL     1     -11.566  13.197  68.538  1.00  0.00    -0.361 A  
HETATM   18  C   UNL     1     -11.782  15.048  66.932  1.00  0.00    -0.181 A  
HETATM   19  C   UNL     1     -10.578  12.578  67.706  1.00  0.00    -0.235 A  
HETATM   20  C   UNL     1     -10.347  13.186  66.440  1.00  0.00    -0.289 A  
HETATM   21  C   UNL     1     -10.906  14.414  66.075  1.00  0.00    -0.309 A  
BRANCH  15  22
HETATM   22  C   UNL     1     -13.039  13.149  70.694  1.00  0.00     0.137 C  
HETATM   23  C   UNL     1     -12.564  13.853  71.953  1.00  0.00    -0.316 C  
HETATM   24  C   UNL     1     -13.261  14.629  70.887  1.00  0.00    -0.392 C  
ENDBRANCH  15  22
ENDBRANCH  10  12
ENDBRANCH   5   6
ENDBRANCH   4   5
TORSDOF 4
ENDMDL
MODEL      207
REMARK 921   NORMALIZED FREE ENERGY PREDICTED BY IDOCK:   -3.42 KCAL/MOL
REMARK 922        TOTAL FREE ENERGY PREDICTED BY IDOCK:   -5.10 KCAL/MOL
REMARK 923 INTER-LIGAND FREE ENERGY PREDICTED BY IDOCK:   -4.10 KCAL/MOL
REMARK 924 INTRA-LIGAND FREE ENERGY PREDICTED BY IDOCK:   -1.01 KCAL/MOL
REMARK 927      BINDING AFFINITY PREDICTED BY RF-SCORE:    0.00 PKD
ROOT
HETATM    1  O   UNL     1     -13.615   7.093  71.170  1.00  0.00    -0.306 OA 
HETATM    2  C   UNL     1     -12.567   7.854  71.570  1.00  0.00    -0.321 C  
HETATM    3  O   UNL     1     -12.728   8.871  72.222  1.00  0.00    -0.376 OA 
HETATM    4  C   UNL     1     -11.199   7.298  71.213  1.00  0.00    -0.256 C  
ENDROOT
BRANCH   4   5
HETATM    5  S   UNL     1     -11.247   6.220  69.724  1.00  0.00    -0.423 SA 
BRANCH   5   6
HETATM    6  C   UNL     1     -10.020   5.067  70.161  1.00  0.00    -0.258 A  
HETATM    7  N   UNL     1      -9.919   4.627  71.396  1.00  0.00    -0.193 NA 
HETATM    8  N   UNL     1      -8.795   3.866  71.476  1.00  0.00    -0.097 NA 
HETATM    9  C   UNL     1      -8.224   3.866  70.291  1.00  0.00    -0.057 A  
HETATM   10  N   UNL     1      -9.071   4.445  69.344  1.00  0.00    -0.102 NA 
HETATM   11 BR   UNL     1      -6.409   3.399  70.124  1.00  0.00    -0.028 Br 
BRANCH  10  12
HETATM   12  C   UNL     1      -8.881   4.473  67.915  1.00  0.00    -0.107 A  
HETATM   13  C   UNL     1      -9.253   3.354  67.168  1.00  0.00    -0.218 A  
HETATM   14  C   UNL     1      -9.240   3.391  65.776  1.00  0.00    -0.155 A  
HETATM   15  C   UNL     1      -8.912   4.551  65.060  1.00  0.00    -0.149 A  
HETATM   16  C   UNL     1      -8.060   6.858  65.126  1.00  0.00    -0.132 A  
HETATM   17  C   UNL     1      -8.461   5.678  65.797  1.00  0.00    -0.140 A  
HETATM   18  C   UNL     1      -7.577   7.974  65.804  1.00  0.00    -0.083 A  
HETATM   19  C   UNL     1      -8.386   5.635  67.227  1.00  0.00    -0.100 A  
HETATM   20  C   UNL     1      -7.768   6.750  67.860  1.00  0.00    -0.112 A  
HETATM   21  C   UNL     1      -7.407   7.911  67.171  1.00  0.00    -0.091 A  
BRANCH  15  22
HETATM   22  C   UNL     1      -9.014   4.488  63.539  1.00  0.00    -0.130 C  
HETATM   23  C   UNL     1      -8.709   3.166  62.857  1.00  0.00    -0.088 C  
HETATM   24  C   UNL     1     -10.093   3.719  62.818  1.00  0.00    -0.171 C  
ENDBRANCH  15  22
ENDBRANCH  10  12
ENDBRANCH   5   6
ENDBRANCH   4   5
TORSDOF 4
ENDMDL
MODEL      208
REMARK 921   NORMALIZED FREE ENERGY PREDICTED BY IDOCK:   -3.42 KCAL/MOL
REMARK 922        TOTAL FREE ENERGY PREDICTED BY IDOCK:   -5.10 KCAL/MOL
REMARK 923 INTER-LIGAND FREE ENERGY PREDICTED BY IDOCK:   -3.95 KCAL/MOL
REMARK 924 INTRA-LIGAND FREE ENERGY PREDICTED BY IDOCK:   -1.15 KCAL/MOL
REMARK 927      BINDING AFFINITY PREDICTED BY RF-SCORE:    0.00 PKD
ROOT
HETATM    1  O   UNL     1      -9.223   7.056  65.975  1.00  0.00    -0.127 OA 
HETATM    2  C   UNL     1      -9.439   5.846  66.547  1.00  0.00    -0.155 C  
HETATM    3  O   UNL     1     -10.457   5.211  66.333  1.00  0.00    -0.267 OA 
HETATM    4  C   UNL     1      -8.291   5.325  67.396  1.00  0.00    -0.106 C  
ENDROOT
BRANCH   4   5
HETATM    5  S   UNL     1      -7.260   6.680  68.089  1.00  0.00    -0.090 SA 
BRANCH   5   6
HETATM    6  C   UNL     1      -8.165   7.022  69.534  1.00  0.00    -0.132 A  
HETATM    7  N   UNL     1      -8.532   6.054  70.344  1.00  0.00    -0.130 NA 
HETATM    8  N   UNL     1      -9.343   6.590  71.295  1.00  0.00    -0.156 NA 
HETATM    9  C   UNL     1      -9.465   7.875  71.040  1.00  0.00    -0.156 A  
HETATM   10  N   UNL     1      -8.564   8.262  70.046  1.00  0.00    -0.127 NA 
HETATM   11 BR   UNL     1     -10.901   8.844  71.775  1.00  0.00    -0.441 Br 
BRANCH  10  12
HETATM   12  C   UNL     1      -8.274   9.606  69.616  1.00  0.00    -0.144 A  
HETATM   13  C   UNL     1      -7.161  10.255  70.153  1.00  0.00    -0.154 A  
HETATM   14  C   UNL     1      -6.746  11.487  69.655  1.00  0.00    -0.083 A  
HETATM   15  C   UNL     1      -7.379  12.109  68.568  1.00  0.00    -0.105 A  
HETATM   16  C   UNL     1      -9.271  12.113  66.996  1.00  0.00    -0.202 A  
HETATM   17  C   UNL     1      -8.555  11.503  68.054  1.00  0.00    -0.150 A  
HETATM   18  C   UNL     1     -10.449  11.576  66.484  1.00  0.00    -0.284 A  
HETATM   19  C   UNL     1      -9.050  10.277  68.606  1.00  0.00    -0.152 A  
HETATM   20  C   UNL     1     -10.320   9.839  68.136  1.00  0.00    -0.241 A  
HETATM   21  C   UNL     1     -10.988  10.451  67.072  1.00  0.00    -0.222 A  
BRANCH  15  22
HETATM   22  C   UNL     1      -6.780  13.417  68.063  1.00  0.00    -0.131 C  
HETATM   23  C   UNL     1      -6.602  14.552  69.057  1.00  0.00    -0.100 C  
HETATM   24  C   UNL     1      -5.404  13.898  68.455  1.00  0.00    -0.096 C  
ENDBRANCH  15  22
ENDBRANCH  10  12
ENDBRANCH   5   6
ENDBRANCH   4   5
TORSDOF 4
ENDMDL
MODEL      209
REMARK 921   NORMALIZED FREE ENERGY PREDICTED BY IDOCK:   -3.40 KCAL/MOL
REMARK 922        TOTAL FREE ENERGY PREDICTED BY IDOCK:   -5.08 KCAL/MOL
REMARK 923 INTER-LIGAND FREE ENERGY PREDICTED BY IDOCK:   -4.71 KCAL/MOL
REMARK 924 INTRA-LIGAND FREE ENERGY PREDICTED BY IDOCK:   -0.37 KCAL/MOL
REMARK 927      BINDING AFFINITY PREDICTED BY RF-SCORE:    0.00 PKD
ROOT
HETATM    1  O   UNL     1     -14.411  13.809  71.504  1.00  0.00    -0.106 OA 
HETATM    2  C   UNL     1     -13.440  13.314  72.310  1.00  0.00    -0.582 C  
HETATM    3  O   UNL     1     -13.013  13.947  73.259  1.00  0.00    -0.424 OA 
HETATM    4  C   UNL     1     -12.996  11.898  71.981  1.00  0.00    -0.265 C  
ENDROOT
BRANCH   4   5
HETATM    5  S   UNL     1     -13.252  11.476  70.210  1.00  0.00     1.014 SA 
BRANCH   5   6
HETATM    6  C   UNL     1     -11.776  12.111  69.545  1.00  0.00    -0.336 A  
HETATM    7  N   UNL     1     -11.480  13.387  69.656  1.00  0.00    -0.241 NA 
HETATM    8  N   UNL     1     -10.360  13.621  68.923  1.00  0.00    -0.170 NA 
HETATM    9  C   UNL     1      -9.999  12.484  68.367  1.00  0.00    -0.212 A  
HETATM   10  N   UNL     1     -10.742  11.427  68.895  1.00  0.00    -0.204 NA 
HETATM   11 BR   UNL     1      -8.849  12.492  66.877  1.00  0.00    -0.178 Br 
BRANCH  10  12
HETATM   12  C   UNL     1     -10.525  10.020  68.673  1.00  0.00    -0.204 A  
HETATM   13  C   UNL     1     -10.662   9.518  67.378  1.00  0.00    -0.297 A  
HETATM   14  C   UNL     1     -10.308   8.204  67.083  1.00  0.00    -0.391 A  
HETATM   15  C   UNL     1      -9.750   7.344  68.040  1.00  0.00    -0.161 A  
HETATM   16  C   UNL     1      -9.168   6.967  70.400  1.00  0.00    -0.156 A  
HETATM   17  C   UNL     1      -9.668   7.810  69.379  1.00  0.00    -0.169 A  
HETATM   18  C   UNL     1      -9.103   7.367  71.732  1.00  0.00    -0.143 A  
HETATM   19  C   UNL     1     -10.105   9.130  69.723  1.00  0.00    -0.211 A  
HETATM   20  C   UNL     1     -10.137   9.443  71.112  1.00  0.00    -0.335 A  
HETATM   21  C   UNL     1      -9.612   8.597  72.093  1.00  0.00    -0.378 A  
BRANCH  15  22
HETATM   22  C   UNL     1      -9.327   5.955  67.573  1.00  0.00    -0.110 C  
HETATM   23  C   UNL     1      -9.854   4.753  68.338  1.00  0.00    -0.187 C  
HETATM   24  C   UNL     1     -10.280   4.979  66.927  1.00  0.00    -0.270 C  
ENDBRANCH  15  22
ENDBRANCH  10  12
ENDBRANCH   5   6
ENDBRANCH   4   5
TORSDOF 4
ENDMDL
MODEL      210
REMARK 921   NORMALIZED FREE ENERGY PREDICTED BY IDOCK:   -3.40 KCAL/MOL
REMARK 922        TOTAL FREE ENERGY PREDICTED BY IDOCK:   -5.07 KCAL/MOL
REMARK 923 INTER-LIGAND FREE ENERGY PREDICTED BY IDOCK:   -4.11 KCAL/MOL
REMARK 924 INTRA-LIGAND FREE ENERGY PREDICTED BY IDOCK:   -0.96 KCAL/MOL
REMARK 927      BINDING AFFINITY PREDICTED BY RF-SCORE:    0.00 PKD
ROOT
HETATM    1  O   UNL     1      -9.216   3.146  66.360  1.00  0.00    -0.154 OA 
HETATM    2  C   UNL     1      -8.336   3.715  67.220  1.00  0.00    -0.095 C  
HETATM    3  O   UNL     1      -7.852   3.089  68.146  1.00  0.00    -0.059 OA 
HETATM    4  C   UNL     1      -7.952   5.147  66.887  1.00  0.00    -0.104 C  
ENDROOT
BRANCH   4   5
HETATM    5  S   UNL     1      -9.263   6.024  65.943  1.00  0.00    -0.001 SA 
BRANCH   5   6
HETATM    6  C   UNL     1      -8.270   7.075  64.976  1.00  0.00    -0.090 A  
HETATM    7  N   UNL     1      -7.498   6.590  64.029  1.00  0.00    -0.075 NA 
HETATM    8  N   UNL     1      -6.736   7.608  63.550  1.00  0.00    -0.057 NA 
HETATM    9  C   UNL     1      -7.048   8.695  64.222  1.00  0.00    -0.089 A  
HETATM   10  N   UNL     1      -8.179   8.471  65.010  1.00  0.00    -0.151 NA 
HETATM   11 BR   UNL     1      -5.864  10.157  64.243  1.00  0.00    -0.143 Br 
BRANCH  10  12
HETATM   12  C   UNL     1      -8.926   9.455  65.750  1.00  0.00    -0.186 A  
HETATM   13  C   UNL     1      -9.846  10.252  65.066  1.00  0.00    -0.397 A  
HETATM   14  C   UNL     1     -10.705  11.102  65.758  1.00  0.00    -0.252 A  
HETATM   15  C   UNL     1     -10.733  11.164  67.158  1.00  0.00    -0.305 A  
HETATM   16  C   UNL     1      -9.697  10.485  69.284  1.00  0.00    -0.215 A  
HETATM   17  C   UNL     1      -9.758  10.417  67.872  1.00  0.00    -0.168 A  
HETATM   18  C   UNL     1      -8.737   9.800  70.025  1.00  0.00    -0.237 A  
HETATM   19  C   UNL     1      -8.808   9.599  67.177  1.00  0.00    -0.141 A  
HETATM   20  C   UNL     1      -7.772   9.025  67.967  1.00  0.00    -0.097 A  
HETATM   21  C   UNL     1      -7.757   9.089  69.363  1.00  0.00    -0.083 A  
BRANCH  15  22
HETATM   22  C   UNL     1     -11.775  12.074  67.800  1.00  0.00    -0.379 C  
HETATM   23  C   UNL     1     -11.315  13.417  68.340  1.00  0.00    -0.329 C  
HETATM   24  C   UNL     1     -12.239  13.364  67.170  1.00  0.00    -0.306 C  
ENDBRANCH  15  22
ENDBRANCH  10  12
ENDBRANCH   5   6
ENDBRANCH   4   5
TORSDOF 4
ENDMDL
MODEL      211
REMARK 921   NORMALIZED FREE ENERGY PREDICTED BY IDOCK:   -3.38 KCAL/MOL
REMARK 922        TOTAL FREE ENERGY PREDICTED BY IDOCK:   -5.05 KCAL/MOL
REMARK 923 INTER-LIGAND FREE ENERGY PREDICTED BY IDOCK:   -4.08 KCAL/MOL
REMARK 924 INTRA-LIGAND FREE ENERGY PREDICTED BY IDOCK:   -0.97 KCAL/MOL
REMARK 927      BINDING AFFINITY PREDICTED BY RF-SCORE:    0.00 PKD
ROOT
HETATM    1  O   UNL     1      -9.503   7.276  66.235  1.00  0.00    -0.156 OA 
HETATM    2  C   UNL     1     -10.236   6.329  66.870  1.00  0.00    -0.209 C  
HETATM    3  O   UNL     1     -11.448   6.276  66.755  1.00  0.00    -0.103 OA 
HETATM    4  C   UNL     1      -9.426   5.312  67.656  1.00  0.00    -0.123 C  
ENDROOT
BRANCH   4   5
HETATM    5  S   UNL     1      -7.810   5.986  68.218  1.00  0.00    -0.107 SA 
BRANCH   5   6
HETATM    6  C   UNL     1      -8.247   6.478  69.828  1.00  0.00    -0.126 A  
HETATM    7  N   UNL     1      -7.949   5.728  70.866  1.00  0.00    -0.108 NA 
HETATM    8  N   UNL     1      -8.537   6.279  71.961  1.00  0.00    -0.131 NA 
HETATM    9  C   UNL     1      -9.193   7.349  71.569  1.00  0.00    -0.140 A  
HETATM   10  N   UNL     1      -8.876   7.657  70.244  1.00  0.00    -0.144 NA 
HETATM   11 BR   UNL     1     -10.555   8.065  72.654  1.00  0.00    -0.424 Br 
BRANCH  10  12
HETATM   12  C   UNL     1      -9.252   8.843  69.517  1.00  0.00    -0.150 A  
HETATM   13  C   UNL     1     -10.601   9.051  69.228  1.00  0.00    -0.226 A  
HETATM   14  C   UNL     1     -11.032  10.253  68.672  1.00  0.00    -0.289 A  
HETATM   15  C   UNL     1     -10.159  11.323  68.428  1.00  0.00    -0.202 A  
HETATM   16  C   UNL     1      -7.836  12.130  68.364  1.00  0.00    -0.149 A  
HETATM   17  C   UNL     1      -8.773  11.108  68.647  1.00  0.00    -0.153 A  
HETATM   18  C   UNL     1      -6.465  11.954  68.528  1.00  0.00    -0.057 A  
HETATM   19  C   UNL     1      -8.295   9.850  69.140  1.00  0.00    -0.145 A  
HETATM   20  C   UNL     1      -6.883   9.677  69.168  1.00  0.00    -0.050 A  
HETATM   21  C   UNL     1      -5.986  10.717  68.906  1.00  0.00    -0.040 A  
BRANCH  15  22
HETATM   22  C   UNL     1     -10.767  12.616  67.894  1.00  0.00    -0.237 C  
HETATM   23  C   UNL     1     -11.940  13.219  68.647  1.00  0.00    -0.345 C  
HETATM   24  C   UNL     1     -10.636  13.941  68.603  1.00  0.00    -0.265 C  
ENDBRANCH  15  22
ENDBRANCH  10  12
ENDBRANCH   5   6
ENDBRANCH   4   5
TORSDOF 4
ENDMDL
MODEL      212
REMARK 921   NORMALIZED FREE ENERGY PREDICTED BY IDOCK:   -3.38 KCAL/MOL
REMARK 922        TOTAL FREE ENERGY PREDICTED BY IDOCK:   -5.05 KCAL/MOL
REMARK 923 INTER-LIGAND FREE ENERGY PREDICTED BY IDOCK:   -3.89 KCAL/MOL
REMARK 924 INTRA-LIGAND FREE ENERGY PREDICTED BY IDOCK:   -1.16 KCAL/MOL
REMARK 927      BINDING AFFINITY PREDICTED BY RF-SCORE:    0.00 PKD
ROOT
HETATM    1  O   UNL     1     -11.852   4.739  73.093  1.00  0.00    -0.257 OA 
HETATM    2  C   UNL     1     -10.841   5.598  73.369  1.00  0.00    -0.275 C  
HETATM    3  O   UNL     1     -10.399   5.723  74.497  1.00  0.00    -0.271 OA 
HETATM    4  C   UNL     1     -10.264   6.316  72.160  1.00  0.00    -0.184 C  
ENDROOT
BRANCH   4   5
HETATM    5  S   UNL     1     -11.485   6.485  70.796  1.00  0.00    -0.365 SA 
BRANCH   5   6
HETATM    6  C   UNL     1     -10.808   7.858  69.970  1.00  0.00    -0.238 A  
HETATM    7  N   UNL     1     -11.249   9.073  70.211  1.00  0.00    -0.235 NA 
HETATM    8  N   UNL     1     -10.652   9.915  69.326  1.00  0.00    -0.212 NA 
HETATM    9  C   UNL     1      -9.867   9.196  68.553  1.00  0.00    -0.164 A  
HETATM   10  N   UNL     1      -9.757   7.895  69.048  1.00  0.00    -0.159 NA 
HETATM   11 BR   UNL     1      -9.301   9.881  66.894  1.00  0.00    -0.195 Br 
BRANCH  10  12
HETATM   12  C   UNL     1      -8.860   6.866  68.586  1.00  0.00    -0.124 A  
HETATM   13  C   UNL     1      -7.604   6.754  69.185  1.00  0.00    -0.100 A  
HETATM   14  C   UNL     1      -6.767   5.682  68.887  1.00  0.00    -0.053 A  
HETATM   15  C   UNL     1      -7.154   4.643  68.028  1.00  0.00    -0.061 A  
HETATM   16  C   UNL     1      -8.815   3.786  66.429  1.00  0.00    -0.128 A  
HETATM   17  C   UNL     1      -8.397   4.773  67.353  1.00  0.00    -0.105 A  
HETATM   18  C   UNL     1     -10.007   3.888  65.717  1.00  0.00    -0.097 A  
HETATM   19  C   UNL     1      -9.238   5.911  67.579  1.00  0.00    -0.108 A  
HETATM   20  C   UNL     1     -10.378   6.030  66.735  1.00  0.00    -0.296 A  
HETATM   21  C   UNL     1     -10.778   5.024  65.851  1.00  0.00    -0.196 A  
BRANCH  15  22
HETATM   22  C   UNL     1      -6.180   3.483  67.847  1.00  0.00    -0.032 C  
HETATM   23  C   UNL     1      -5.184   3.207  68.960  1.00  0.00    -0.012 C  
HETATM   24  C   UNL     1      -6.254   2.213  68.658  1.00  0.00    -0.025 C  
ENDBRANCH  15  22
ENDBRANCH  10  12
ENDBRANCH   5   6
ENDBRANCH   4   5
TORSDOF 4
ENDMDL
MODEL      213
REMARK 921   NORMALIZED FREE ENERGY PREDICTED BY IDOCK:   -3.35 KCAL/MOL
REMARK 922        TOTAL FREE ENERGY PREDICTED BY IDOCK:   -5.02 KCAL/MOL
REMARK 923 INTER-LIGAND FREE ENERGY PREDICTED BY IDOCK:   -4.48 KCAL/MOL
REMARK 924 INTRA-LIGAND FREE ENERGY PREDICTED BY IDOCK:   -0.54 KCAL/MOL
REMARK 927      BINDING AFFINITY PREDICTED BY RF-SCORE:    0.00 PKD
ROOT
HETATM    1  O   UNL     1     -10.772  12.036  68.484  1.00  0.00    -0.217 OA 
HETATM    2  C   UNL     1     -10.576  12.378  67.187  1.00  0.00    -0.224 C  
HETATM    3  O   UNL     1     -11.066  13.386  66.711  1.00  0.00    -0.284 OA 
HETATM    4  C   UNL     1      -9.644  11.457  66.416  1.00  0.00    -0.205 C  
ENDROOT
BRANCH   4   5
HETATM    5  S   UNL     1      -9.621   9.751  67.100  1.00  0.00    -0.176 SA 
BRANCH   5   6
HETATM    6  C   UNL     1      -8.434   9.959  68.355  1.00  0.00    -0.111 A  
HETATM    7  N   UNL     1      -7.512  10.891  68.262  1.00  0.00    -0.089 NA 
HETATM    8  N   UNL     1      -6.645  10.724  69.296  1.00  0.00    -0.064 NA 
HETATM    9  C   UNL     1      -7.048   9.684  69.994  1.00  0.00    -0.104 A  
HETATM   10  N   UNL     1      -8.312   9.273  69.568  1.00  0.00    -0.122 NA 
HETATM   11 BR   UNL     1      -5.849   8.810  71.152  1.00  0.00    -0.047 Br 
BRANCH  10  12
HETATM   12  C   UNL     1      -9.158   8.288  70.194  1.00  0.00    -0.147 A  
HETATM   13  C   UNL     1      -8.757   6.951  70.176  1.00  0.00    -0.141 A  
HETATM   14  C   UNL     1      -9.454   5.989  70.902  1.00  0.00    -0.188 A  
HETATM   15  C   UNL     1     -10.545   6.311  71.722  1.00  0.00    -0.266 A  
HETATM   16  C   UNL     1     -12.149   8.025  72.459  1.00  0.00    -0.338 A  
HETATM   17  C   UNL     1     -11.015   7.651  71.699  1.00  0.00    -0.267 A  
HETATM   18  C   UNL     1     -12.668   9.316  72.441  1.00  0.00    -0.383 A  
HETATM   19  C   UNL     1     -10.365   8.642  70.893  1.00  0.00    -0.262 A  
HETATM   20  C   UNL     1     -11.009   9.909  70.810  1.00  0.00    -0.407 A  
HETATM   21  C   UNL     1     -12.113  10.254  71.594  1.00  0.00    -0.318 A  
BRANCH  15  22
HETATM   22  C   UNL     1     -11.173   5.181  72.530  1.00  0.00    -0.229 C  
HETATM   23  C   UNL     1     -10.247   4.246  73.289  1.00  0.00    -0.216 C  
HETATM   24  C   UNL     1     -11.169   5.148  74.039  1.00  0.00     0.328 C  
ENDBRANCH  15  22
ENDBRANCH  10  12
ENDBRANCH   5   6
ENDBRANCH   4   5
TORSDOF 4
ENDMDL
MODEL      214
REMARK 921   NORMALIZED FREE ENERGY PREDICTED BY IDOCK:   -3.34 KCAL/MOL
REMARK 922        TOTAL FREE ENERGY PREDICTED BY IDOCK:   -5.01 KCAL/MOL
REMARK 923 INTER-LIGAND FREE ENERGY PREDICTED BY IDOCK:   -4.06 KCAL/MOL
REMARK 924 INTRA-LIGAND FREE ENERGY PREDICTED BY IDOCK:   -0.94 KCAL/MOL
REMARK 927      BINDING AFFINITY PREDICTED BY RF-SCORE:    0.00 PKD
ROOT
HETATM    1  O   UNL     1      -6.398   9.004  73.457  1.00  0.00    -0.309 OA 
HETATM    2  C   UNL     1      -6.632   7.669  73.426  1.00  0.00    -0.069 C  
HETATM    3  O   UNL     1      -5.723   6.860  73.476  1.00  0.00    -0.049 OA 
HETATM    4  C   UNL     1      -8.100   7.277  73.404  1.00  0.00    -0.110 C  
ENDROOT
BRANCH   4   5
HETATM    5  S   UNL     1      -9.163   8.580  72.660  1.00  0.00    -0.099 SA 
BRANCH   5   6
HETATM    6  C   UNL     1     -10.147   7.592  71.621  1.00  0.00    -0.180 A  
HETATM    7  N   UNL     1     -10.946   6.676  72.121  1.00  0.00    -0.236 NA 
HETATM    8  N   UNL     1     -11.468   5.967  71.086  1.00  0.00    -0.176 NA 
HETATM    9  C   UNL     1     -10.968   6.457  69.972  1.00  0.00    -0.337 A  
HETATM   10  N   UNL     1     -10.276   7.641  70.229  1.00  0.00    -0.202 NA 
HETATM   11 BR   UNL     1     -11.010   5.431  68.395  1.00  0.00     0.507 Br 
BRANCH  10  12
HETATM   12  C   UNL     1      -9.740   8.559  69.256  1.00  0.00    -0.173 A  
HETATM   13  C   UNL     1      -8.591   8.194  68.552  1.00  0.00    -0.130 A  
HETATM   14  C   UNL     1      -8.128   8.971  67.493  1.00  0.00    -0.108 A  
HETATM   15  C   UNL     1      -8.809  10.112  67.045  1.00  0.00    -0.144 A  
HETATM   16  C   UNL     1     -10.632  11.719  67.423  1.00  0.00    -0.258 A  
HETATM   17  C   UNL     1      -9.939  10.542  67.791  1.00  0.00    -0.198 A  
HETATM   18  C   UNL     1     -11.722  12.200  68.144  1.00  0.00    -0.402 A  
HETATM   19  C   UNL     1     -10.384   9.805  68.936  1.00  0.00    -0.225 A  
HETATM   20  C   UNL     1     -11.418  10.406  69.710  1.00  0.00    -0.348 A  
HETATM   21  C   UNL     1     -12.100  11.556  69.304  1.00  0.00    -0.344 A  
BRANCH  15  22
HETATM   22  C   UNL     1      -8.246  10.831  65.824  1.00  0.00    -0.146 C  
HETATM   23  C   UNL     1      -7.372  10.037  64.868  1.00  0.00    -0.140 C  
HETATM   24  C   UNL     1      -8.701  10.539  64.415  1.00  0.00    -0.187 C  
ENDBRANCH  15  22
ENDBRANCH  10  12
ENDBRANCH   5   6
ENDBRANCH   4   5
TORSDOF 4
ENDMDL
MODEL      215
REMARK 921   NORMALIZED FREE ENERGY PREDICTED BY IDOCK:   -3.33 KCAL/MOL
REMARK 922        TOTAL FREE ENERGY PREDICTED BY IDOCK:   -4.99 KCAL/MOL
REMARK 923 INTER-LIGAND FREE ENERGY PREDICTED BY IDOCK:   -4.92 KCAL/MOL
REMARK 924 INTRA-LIGAND FREE ENERGY PREDICTED BY IDOCK:   -0.07 KCAL/MOL
REMARK 927      BINDING AFFINITY PREDICTED BY RF-SCORE:    0.00 PKD
ROOT
HETATM    1  O   UNL     1     -11.622   5.022  73.110  1.00  0.00    -0.328 OA 
HETATM    2  C   UNL     1     -10.754   5.998  73.470  1.00  0.00    -0.250 C  
HETATM    3  O   UNL     1     -10.183   5.981  74.546  1.00  0.00    -0.295 OA 
HETATM    4  C   UNL     1     -10.497   7.051  72.403  1.00  0.00    -0.209 C  
ENDROOT
BRANCH   4   5
HETATM    5  S   UNL     1     -11.913   7.234  71.244  1.00  0.00    -0.341 SA 
BRANCH   5   6
HETATM    6  C   UNL     1     -11.470   8.734  70.483  1.00  0.00    -0.196 A  
HETATM    7  N   UNL     1     -11.640   9.880  71.104  1.00  0.00    -0.370 NA 
HETATM    8  N   UNL     1     -11.354  10.877  70.224  1.00  0.00    -0.289 NA 
HETATM    9  C   UNL     1     -11.026  10.320  69.079  1.00  0.00    -0.232 A  
HETATM   10  N   UNL     1     -10.874   8.941  69.234  1.00  0.00    -0.155 NA 
HETATM   11 BR   UNL     1     -11.092  11.330  67.492  1.00  0.00    -0.363 Br 
BRANCH  10  12
HETATM   12  C   UNL     1     -10.355   8.012  68.262  1.00  0.00    -0.197 A  
HETATM   13  C   UNL     1     -11.017   6.797  68.077  1.00  0.00    -0.289 A  
HETATM   14  C   UNL     1     -10.653   5.939  67.043  1.00  0.00    -0.376 A  
HETATM   15  C   UNL     1      -9.657   6.266  66.111  1.00  0.00    -0.059 A  
HETATM   16  C   UNL     1      -7.866   7.817  65.450  1.00  0.00    -0.114 A  
HETATM   17  C   UNL     1      -8.922   7.462  66.323  1.00  0.00    -0.192 A  
HETATM   18  C   UNL     1      -7.094   8.960  65.638  1.00  0.00    -0.084 A  
HETATM   19  C   UNL     1      -9.223   8.321  67.430  1.00  0.00    -0.163 A  
HETATM   20  C   UNL     1      -8.326   9.404  67.650  1.00  0.00    -0.119 A  
HETATM   21  C   UNL     1      -7.308   9.742  66.754  1.00  0.00    -0.091 A  
BRANCH  15  22
HETATM   22  C   UNL     1      -9.407   5.278  64.976  1.00  0.00     0.095 C  
HETATM   23  C   UNL     1      -8.429   4.143  65.220  1.00  0.00    -0.114 C  
HETATM   24  C   UNL     1      -9.875   3.844  65.016  1.00  0.00    -0.192 C  
ENDBRANCH  15  22
ENDBRANCH  10  12
ENDBRANCH   5   6
ENDBRANCH   4   5
TORSDOF 4
ENDMDL
MODEL      216
REMARK 921   NORMALIZED FREE ENERGY PREDICTED BY IDOCK:   -3.33 KCAL/MOL
REMARK 922        TOTAL FREE ENERGY PREDICTED BY IDOCK:   -4.99 KCAL/MOL
REMARK 923 INTER-LIGAND FREE ENERGY PREDICTED BY IDOCK:   -5.25 KCAL/MOL
REMARK 924 INTRA-LIGAND FREE ENERGY PREDICTED BY IDOCK:    0.26 KCAL/MOL
REMARK 927      BINDING AFFINITY PREDICTED BY RF-SCORE:    0.00 PKD
ROOT
HETATM    1  O   UNL     1     -11.732   5.215  72.896  1.00  0.00    -0.283 OA 
HETATM    2  C   UNL     1     -11.145   5.650  71.754  1.00  0.00    -0.199 C  
HETATM    3  O   UNL     1     -10.066   5.220  71.387  1.00  0.00    -0.187 OA 
HETATM    4  C   UNL     1     -11.969   6.639  70.947  1.00  0.00    -0.355 C  
ENDROOT
BRANCH   4   5
HETATM    5  S   UNL     1     -13.139   7.596  71.995  1.00  0.00    -0.120 SA 
BRANCH   5   6
HETATM    6  C   UNL     1     -12.671   9.211  71.549  1.00  0.00    -0.341 A  
HETATM    7  N   UNL     1     -13.362  10.250  71.960  1.00  0.00    -0.423 NA 
HETATM    8  N   UNL     1     -12.863  11.354  71.343  1.00  0.00    -0.422 NA 
HETATM    9  C   UNL     1     -11.883  10.965  70.556  1.00  0.00    -0.360 A  
HETATM   10  N   UNL     1     -11.566   9.628  70.799  1.00  0.00    -0.299 NA 
HETATM   11 BR   UNL     1     -11.310  12.079  69.152  1.00  0.00    -0.349 Br 
BRANCH  10  12
HETATM   12  C   UNL     1     -10.444   8.894  70.269  1.00  0.00    -0.210 A  
HETATM   13  C   UNL     1     -10.424   8.596  68.905  1.00  0.00    -0.211 A  
HETATM   14  C   UNL     1      -9.295   8.033  68.316  1.00  0.00    -0.143 A  
HETATM   15  C   UNL     1      -8.115   7.791  69.035  1.00  0.00    -0.125 A  
HETATM   16  C   UNL     1      -6.996   7.739  71.225  1.00  0.00    -0.050 A  
HETATM   17  C   UNL     1      -8.137   8.020  70.437  1.00  0.00    -0.112 A  
HETATM   18  C   UNL     1      -6.981   7.913  72.606  1.00  0.00    -0.091 A  
HETATM   19  C   UNL     1      -9.316   8.520  71.079  1.00  0.00    -0.231 A  
HETATM   20  C   UNL     1      -9.292   8.557  72.502  1.00  0.00    -0.316 A  
HETATM   21  C   UNL     1      -8.139   8.298  73.249  1.00  0.00    -0.223 A  
BRANCH  15  22
HETATM   22  C   UNL     1      -6.920   7.249  68.259  1.00  0.00    -0.076 C  
HETATM   23  C   UNL     1      -6.998   7.240  66.742  1.00  0.00    -0.074 C  
HETATM   24  C   UNL     1      -6.012   8.123  67.429  1.00  0.00    -0.050 C  
ENDBRANCH  15  22
ENDBRANCH  10  12
ENDBRANCH   5   6
ENDBRANCH   4   5
TORSDOF 4
ENDMDL
MODEL      217
REMARK 921   NORMALIZED FREE ENERGY PREDICTED BY IDOCK:   -3.33 KCAL/MOL
REMARK 922        TOTAL FREE ENERGY PREDICTED BY IDOCK:   -4.98 KCAL/MOL
REMARK 923 INTER-LIGAND FREE ENERGY PREDICTED BY IDOCK:   -4.60 KCAL/MOL
REMARK 924 INTRA-LIGAND FREE ENERGY PREDICTED BY IDOCK:   -0.38 KCAL/MOL
REMARK 927      BINDING AFFINITY PREDICTED BY RF-SCORE:    0.00 PKD
ROOT
HETATM    1  O   UNL     1      -9.439   5.985  66.191  1.00  0.00    -0.154 OA 
HETATM    2  C   UNL     1     -10.360   5.799  67.168  1.00  0.00    -0.240 C  
HETATM    3  O   UNL     1     -11.365   6.483  67.236  1.00  0.00    -0.316 OA 
HETATM    4  C   UNL     1     -10.075   4.635  68.103  1.00  0.00    -0.002 C  
ENDROOT
BRANCH   4   5
HETATM    5  S   UNL     1      -8.281   4.253  68.221  1.00  0.00    -0.089 SA 
BRANCH   5   6
HETATM    6  C   UNL     1      -8.163   3.947  69.929  1.00  0.00    -0.053 A  
HETATM    7  N   UNL     1      -7.414   2.969  70.388  1.00  0.00    -0.040 NA 
HETATM    8  N   UNL     1      -7.630   2.871  71.727  1.00  0.00    -0.047 NA 
HETATM    9  C   UNL     1      -8.517   3.784  72.058  1.00  0.00    -0.091 A  
HETATM   10  N   UNL     1      -8.745   4.652  70.989  1.00  0.00    -0.112 NA 
HETATM   11 BR   UNL     1      -9.471   3.622  73.672  1.00  0.00    -0.129 Br 
BRANCH  10  12
HETATM   12  C   UNL     1      -9.510   5.873  71.013  1.00  0.00    -0.165 A  
HETATM   13  C   UNL     1     -10.816   5.835  71.503  1.00  0.00    -0.316 A  
HETATM   14  C   UNL     1     -11.537   7.011  71.697  1.00  0.00    -0.320 A  
HETATM   15  C   UNL     1     -10.983   8.278  71.467  1.00  0.00    -0.312 A  
HETATM   16  C   UNL     1      -9.093   9.586  70.592  1.00  0.00    -0.236 A  
HETATM   17  C   UNL     1      -9.682   8.338  70.901  1.00  0.00    -0.204 A  
HETATM   18  C   UNL     1      -7.836   9.694  70.002  1.00  0.00    -0.173 A  
HETATM   19  C   UNL     1      -8.952   7.138  70.614  1.00  0.00    -0.154 A  
HETATM   20  C   UNL     1      -7.733   7.297  69.897  1.00  0.00    -0.103 A  
HETATM   21  C   UNL     1      -7.166   8.547  69.630  1.00  0.00    -0.052 A  
BRANCH  15  22
HETATM   22  C   UNL     1     -11.847   9.491  71.795  1.00  0.00    -0.430 C  
HETATM   23  C   UNL     1     -12.831   9.973  70.743  1.00  0.00    -0.341 C  
HETATM   24  C   UNL     1     -13.336   9.403  72.025  1.00  0.00    -0.525 C  
ENDBRANCH  15  22
ENDBRANCH  10  12
ENDBRANCH   5   6
ENDBRANCH   4   5
TORSDOF 4
ENDMDL
MODEL      218
REMARK 921   NORMALIZED FREE ENERGY PREDICTED BY IDOCK:   -3.32 KCAL/MOL
REMARK 922        TOTAL FREE ENERGY PREDICTED BY IDOCK:   -4.97 KCAL/MOL
REMARK 923 INTER-LIGAND FREE ENERGY PREDICTED BY IDOCK:   -4.40 KCAL/MOL
REMARK 924 INTRA-LIGAND FREE ENERGY PREDICTED BY IDOCK:   -0.57 KCAL/MOL
REMARK 927      BINDING AFFINITY PREDICTED BY RF-SCORE:    0.00 PKD
ROOT
HETATM    1  O   UNL     1     -10.526  15.036  64.301  1.00  0.00     0.154 OA 
HETATM    2  C   UNL     1     -11.837  14.773  64.083  1.00  0.00    -0.214 C  
HETATM    3  O   UNL     1     -12.619  15.649  63.760  1.00  0.00    -0.623 OA 
HETATM    4  C   UNL     1     -12.224  13.307  64.195  1.00  0.00    -0.401 C  
ENDROOT
BRANCH   4   5
HETATM    5  S   UNL     1     -11.103  12.370  65.312  1.00  0.00    -0.314 SA 
BRANCH   5   6
HETATM    6  C   UNL     1     -11.506  13.127  66.826  1.00  0.00    -0.343 A  
HETATM    7  N   UNL     1     -12.398  14.090  66.881  1.00  0.00    -0.371 NA 
HETATM    8  N   UNL     1     -12.397  14.587  68.147  1.00  0.00    -0.068 NA 
HETATM    9  C   UNL     1     -11.495  13.925  68.838  1.00  0.00    -0.301 A  
HETATM   10  N   UNL     1     -11.032  12.828  68.108  1.00  0.00    -0.235 NA 
HETATM   11 BR   UNL     1     -10.814  14.654  70.433  1.00  0.00     0.163 Br 
BRANCH  10  12
HETATM   12  C   UNL     1     -10.177  11.770  68.584  1.00  0.00    -0.201 A  
HETATM   13  C   UNL     1     -10.760  10.667  69.209  1.00  0.00    -0.275 A  
HETATM   14  C   UNL     1      -9.997   9.551  69.541  1.00  0.00    -0.205 A  
HETATM   15  C   UNL     1      -8.635   9.451  69.221  1.00  0.00    -0.143 A  
HETATM   16  C   UNL     1      -6.620  10.570  68.360  1.00  0.00    -0.055 A  
HETATM   17  C   UNL     1      -8.005  10.589  68.651  1.00  0.00    -0.124 A  
HETATM   18  C   UNL     1      -5.952  11.672  67.836  1.00  0.00    -0.047 A  
HETATM   19  C   UNL     1      -8.753  11.780  68.378  1.00  0.00    -0.155 A  
HETATM   20  C   UNL     1      -8.001  12.916  67.964  1.00  0.00    -0.158 A  
HETATM   21  C   UNL     1      -6.638  12.856  67.661  1.00  0.00    -0.155 A  
BRANCH  15  22
HETATM   22  C   UNL     1      -7.928   8.143  69.564  1.00  0.00    -0.113 C  
HETATM   23  C   UNL     1      -7.427   7.954  70.985  1.00  0.00    -0.073 C  
HETATM   24  C   UNL     1      -8.530   7.095  70.467  1.00  0.00    -0.139 C  
ENDBRANCH  15  22
ENDBRANCH  10  12
ENDBRANCH   5   6
ENDBRANCH   4   5
TORSDOF 4
ENDMDL
MODEL      219
REMARK 921   NORMALIZED FREE ENERGY PREDICTED BY IDOCK:   -3.31 KCAL/MOL
REMARK 922        TOTAL FREE ENERGY PREDICTED BY IDOCK:   -4.97 KCAL/MOL
REMARK 923 INTER-LIGAND FREE ENERGY PREDICTED BY IDOCK:   -3.87 KCAL/MOL
REMARK 924 INTRA-LIGAND FREE ENERGY PREDICTED BY IDOCK:   -1.09 KCAL/MOL
REMARK 927      BINDING AFFINITY PREDICTED BY RF-SCORE:    0.00 PKD
ROOT
HETATM    1  O   UNL     1      -7.793   2.456  66.897  1.00  0.00    -0.069 OA 
HETATM    2  C   UNL     1      -6.886   3.281  67.475  1.00  0.00    -0.049 C  
HETATM    3  O   UNL     1      -5.965   2.848  68.145  1.00  0.00    -0.023 OA 
HETATM    4  C   UNL     1      -7.066   4.756  67.155  1.00  0.00    -0.072 C  
ENDROOT
BRANCH   4   5
HETATM    5  S   UNL     1      -8.809   5.178  66.752  1.00  0.00    -0.111 SA 
BRANCH   5   6
HETATM    6  C   UNL     1      -8.542   6.550  65.716  1.00  0.00    -0.144 A  
HETATM    7  N   UNL     1      -8.199   6.387  64.458  1.00  0.00    -0.085 NA 
HETATM    8  N   UNL     1      -7.914   7.613  63.942  1.00  0.00    -0.120 NA 
HETATM    9  C   UNL     1      -8.078   8.499  64.900  1.00  0.00    -0.145 A  
HETATM   10  N   UNL     1      -8.686   7.910  66.010  1.00  0.00    -0.152 NA 
HETATM   11 BR   UNL     1      -7.277  10.196  64.753  1.00  0.00    -0.101 Br 
BRANCH  10  12
HETATM   12  C   UNL     1      -9.185   8.583  67.182  1.00  0.00    -0.142 A  
HETATM   13  C   UNL     1     -10.480   9.103  67.156  1.00  0.00    -0.325 A  
HETATM   14  C   UNL     1     -11.064   9.618  68.310  1.00  0.00    -0.102 A  
HETATM   15  C   UNL     1     -10.418   9.592  69.554  1.00  0.00    -0.234 A  
HETATM   16  C   UNL     1      -8.349   9.139  70.807  1.00  0.00    -0.248 A  
HETATM   17  C   UNL     1      -9.074   9.134  69.591  1.00  0.00    -0.163 A  
HETATM   18  C   UNL     1      -7.020   8.734  70.885  1.00  0.00    -0.072 A  
HETATM   19  C   UNL     1      -8.422   8.678  68.399  1.00  0.00    -0.131 A  
HETATM   20  C   UNL     1      -7.031   8.398  68.508  1.00  0.00    -0.069 A  
HETATM   21  C   UNL     1      -6.351   8.387  69.729  1.00  0.00    -0.035 A  
BRANCH  15  22
HETATM   22  C   UNL     1     -11.195  10.111  70.760  1.00  0.00    -0.414 C  
HETATM   23  C   UNL     1     -12.242  11.186  70.525  1.00  0.00    -0.475 C  
HETATM   24  C   UNL     1     -12.661   9.828  70.977  1.00  0.00    -0.392 C  
ENDBRANCH  15  22
ENDBRANCH  10  12
ENDBRANCH   5   6
ENDBRANCH   4   5
TORSDOF 4
ENDMDL
MODEL      220
REMARK 921   NORMALIZED FREE ENERGY PREDICTED BY IDOCK:   -3.30 KCAL/MOL
REMARK 922        TOTAL FREE ENERGY PREDICTED BY IDOCK:   -4.95 KCAL/MOL
REMARK 923 INTER-LIGAND FREE ENERGY PREDICTED BY IDOCK:   -4.04 KCAL/MOL
REMARK 924 INTRA-LIGAND FREE ENERGY PREDICTED BY IDOCK:   -0.91 KCAL/MOL
REMARK 927      BINDING AFFINITY PREDICTED BY RF-SCORE:    0.00 PKD
ROOT
HETATM    1  O   UNL     1     -10.610   9.661  66.805  1.00  0.00    -0.209 OA 
HETATM    2  C   UNL     1     -10.422  10.904  67.311  1.00  0.00    -0.232 C  
HETATM    3  O   UNL     1      -9.914  11.793  66.651  1.00  0.00    -0.196 OA 
HETATM    4  C   UNL     1     -10.960  11.110  68.718  1.00  0.00    -0.219 C  
ENDROOT
BRANCH   4   5
HETATM    5  S   UNL     1     -11.020   9.546  69.682  1.00  0.00    -0.175 SA 
BRANCH   5   6
HETATM    6  C   UNL     1      -9.334   9.386  70.078  1.00  0.00    -0.226 A  
HETATM    7  N   UNL     1      -8.563  10.445  70.186  1.00  0.00     0.212 NA 
HETATM    8  N   UNL     1      -7.284  10.016  70.350  1.00  0.00    -0.245 NA 
HETATM    9  C   UNL     1      -7.296   8.701  70.326  1.00  0.00    -0.054 A  
HETATM   10  N   UNL     1      -8.608   8.225  70.367  1.00  0.00    -0.131 NA 
HETATM   11 BR   UNL     1      -5.707   7.755  69.978  1.00  0.00    -0.023 Br 
BRANCH  10  12
HETATM   12  C   UNL     1      -9.028   6.856  70.531  1.00  0.00    -0.155 A  
HETATM   13  C   UNL     1      -8.833   5.965  69.474  1.00  0.00    -0.123 A  
HETATM   14  C   UNL     1      -9.073   4.603  69.639  1.00  0.00    -0.163 A  
HETATM   15  C   UNL     1      -9.460   4.053  70.869  1.00  0.00    -0.237 A  
HETATM   16  C   UNL     1     -10.185   4.457  73.185  1.00  0.00    -0.218 A  
HETATM   17  C   UNL     1      -9.733   4.948  71.937  1.00  0.00    -0.218 A  
HETATM   18  C   UNL     1     -10.500   5.297  74.249  1.00  0.00    -0.304 A  
HETATM   19  C   UNL     1      -9.576   6.362  71.766  1.00  0.00    -0.162 A  
HETATM   20  C   UNL     1     -10.031   7.182  72.837  1.00  0.00    -0.233 A  
HETATM   21  C   UNL     1     -10.447   6.664  74.066  1.00  0.00    -0.309 A  
BRANCH  15  22
HETATM   22  C   UNL     1      -9.611   2.537  70.942  1.00  0.00    -0.192 C  
HETATM   23  C   UNL     1      -9.366   1.733  69.677  1.00  0.00    -0.155 C  
HETATM   24  C   UNL     1      -8.443   1.588  70.839  1.00  0.00    -0.075 C  
ENDBRANCH  15  22
ENDBRANCH  10  12
ENDBRANCH   5   6
ENDBRANCH   4   5
TORSDOF 4
ENDMDL
MODEL      221
REMARK 921   NORMALIZED FREE ENERGY PREDICTED BY IDOCK:   -3.27 KCAL/MOL
REMARK 922        TOTAL FREE ENERGY PREDICTED BY IDOCK:   -4.92 KCAL/MOL
REMARK 923 INTER-LIGAND FREE ENERGY PREDICTED BY IDOCK:   -4.00 KCAL/MOL
REMARK 924 INTRA-LIGAND FREE ENERGY PREDICTED BY IDOCK:   -0.91 KCAL/MOL
REMARK 927      BINDING AFFINITY PREDICTED BY RF-SCORE:    0.00 PKD
ROOT
HETATM    1  O   UNL     1      -8.529   3.738  73.453  1.00  0.00    -0.086 OA 
HETATM    2  C   UNL     1      -7.742   2.816  72.848  1.00  0.00    -0.050 C  
HETATM    3  O   UNL     1      -6.783   2.324  73.414  1.00  0.00    -0.020 OA 
HETATM    4  C   UNL     1      -8.199   2.397  71.460  1.00  0.00    -0.055 C  
ENDROOT
BRANCH   4   5
HETATM    5  S   UNL     1      -9.174   3.709  70.617  1.00  0.00    -0.149 SA 
BRANCH   5   6
HETATM    6  C   UNL     1      -7.893   4.824  70.240  1.00  0.00    -0.058 A  
HETATM    7  N   UNL     1      -6.705   4.389  69.886  1.00  0.00    -0.033 NA 
HETATM    8  N   UNL     1      -5.876   5.464  69.801  1.00  0.00    -0.016 NA 
HETATM    9  C   UNL     1      -6.573   6.534  70.118  1.00  0.00    -0.045 A  
HETATM   10  N   UNL     1      -7.930   6.222  70.206  1.00  0.00    -0.109 NA 
HETATM   11 BR   UNL     1      -5.686   8.108  70.644  1.00  0.00    -0.029 Br 
BRANCH  10  12
HETATM   12  C   UNL     1      -9.023   7.149  70.359  1.00  0.00    -0.155 A  
HETATM   13  C   UNL     1      -9.547   7.363  71.635  1.00  0.00    -0.165 A  
HETATM   14  C   UNL     1     -10.490   8.362  71.859  1.00  0.00    -0.366 A  
HETATM   15  C   UNL     1     -10.918   9.231  70.846  1.00  0.00    -0.368 A  
HETATM   16  C   UNL     1     -10.896   9.793  68.451  1.00  0.00    -0.244 A  
HETATM   17  C   UNL     1     -10.454   8.986  69.526  1.00  0.00    -0.223 A  
HETATM   18  C   UNL     1     -10.498   9.569  67.136  1.00  0.00    -0.322 A  
HETATM   19  C   UNL     1      -9.547   7.910  69.256  1.00  0.00    -0.157 A  
HETATM   20  C   UNL     1      -9.273   7.645  67.884  1.00  0.00    -0.139 A  
HETATM   21  C   UNL     1      -9.705   8.477  66.848  1.00  0.00    -0.286 A  
BRANCH  15  22
HETATM   22  C   UNL     1     -11.893  10.337  71.236  1.00  0.00    -0.425 C  
HETATM   23  C   UNL     1     -13.346  10.188  70.820  1.00  0.00    -0.189 C  
HETATM   24  C   UNL     1     -12.980  10.150  72.265  1.00  0.00    -0.316 C  
ENDBRANCH  15  22
ENDBRANCH  10  12
ENDBRANCH   5   6
ENDBRANCH   4   5
TORSDOF 4
ENDMDL
MODEL      222
REMARK 921   NORMALIZED FREE ENERGY PREDICTED BY IDOCK:   -3.27 KCAL/MOL
REMARK 922        TOTAL FREE ENERGY PREDICTED BY IDOCK:   -4.92 KCAL/MOL
REMARK 923 INTER-LIGAND FREE ENERGY PREDICTED BY IDOCK:   -3.86 KCAL/MOL
REMARK 924 INTRA-LIGAND FREE ENERGY PREDICTED BY IDOCK:   -1.06 KCAL/MOL
REMARK 927      BINDING AFFINITY PREDICTED BY RF-SCORE:    0.00 PKD
ROOT
HETATM    1  O   UNL     1     -13.853   7.320  71.741  1.00  0.00    -0.365 OA 
HETATM    2  C   UNL     1     -12.906   8.289  71.768  1.00  0.00    -0.338 C  
HETATM    3  O   UNL     1     -13.130   9.388  72.242  1.00  0.00    -0.415 OA 
HETATM    4  C   UNL     1     -11.544   7.867  71.240  1.00  0.00    -0.276 C  
ENDROOT
BRANCH   4   5
HETATM    5  S   UNL     1     -11.659   6.500  70.017  1.00  0.00    -0.299 SA 
BRANCH   5   6
HETATM    6  C   UNL     1     -10.304   5.538  70.531  1.00  0.00    -0.272 A  
HETATM    7  N   UNL     1     -10.381   4.785  71.606  1.00  0.00    -0.178 NA 
HETATM    8  N   UNL     1      -9.144   4.274  71.846  1.00  0.00    -0.119 NA 
HETATM    9  C   UNL     1      -8.332   4.735  70.919  1.00  0.00    -0.098 A  
HETATM   10  N   UNL     1      -9.056   5.384  69.918  1.00  0.00    -0.133 NA 
HETATM   11 BR   UNL     1      -6.472   4.707  71.205  1.00  0.00    -0.023 Br 
BRANCH  10  12
HETATM   12  C   UNL     1      -8.549   5.866  68.658  1.00  0.00    -0.110 A  
HETATM   13  C   UNL     1      -8.340   4.950  67.625  1.00  0.00    -0.105 A  
HETATM   14  C   UNL     1      -8.006   5.384  66.345  1.00  0.00    -0.104 A  
HETATM   15  C   UNL     1      -7.918   6.744  66.013  1.00  0.00    -0.109 A  
HETATM   16  C   UNL     1      -7.917   9.074  66.801  1.00  0.00    -0.107 A  
HETATM   17  C   UNL     1      -8.055   7.690  67.063  1.00  0.00    -0.117 A  
HETATM   18  C   UNL     1      -8.007  10.037  67.803  1.00  0.00    -0.105 A  
HETATM   19  C   UNL     1      -8.315   7.263  68.405  1.00  0.00    -0.125 A  
HETATM   20  C   UNL     1      -8.270   8.272  69.409  1.00  0.00    -0.117 A  
HETATM   21  C   UNL     1      -8.158   9.633  69.113  1.00  0.00    -0.104 A  
BRANCH  15  22
HETATM   22  C   UNL     1      -7.625   7.092  64.557  1.00  0.00    -0.107 C  
HETATM   23  C   UNL     1      -6.354   6.545  63.933  1.00  0.00    -0.034 C  
HETATM   24  C   UNL     1      -7.682   6.078  63.441  1.00  0.00    -0.096 C  
ENDBRANCH  15  22
ENDBRANCH  10  12
ENDBRANCH   5   6
ENDBRANCH   4   5
TORSDOF 4
ENDMDL
MODEL      223
REMARK 921   NORMALIZED FREE ENERGY PREDICTED BY IDOCK:   -3.27 KCAL/MOL
REMARK 922        TOTAL FREE ENERGY PREDICTED BY IDOCK:   -4.91 KCAL/MOL
REMARK 923 INTER-LIGAND FREE ENERGY PREDICTED BY IDOCK:   -3.72 KCAL/MOL
REMARK 924 INTRA-LIGAND FREE ENERGY PREDICTED BY IDOCK:   -1.19 KCAL/MOL
REMARK 927      BINDING AFFINITY PREDICTED BY RF-SCORE:    0.00 PKD
ROOT
HETATM    1  O   UNL     1      -9.344   8.961  72.532  1.00  0.00    -0.308 OA 
HETATM    2  C   UNL     1      -8.368   8.154  73.013  1.00  0.00    -0.199 C  
HETATM    3  O   UNL     1      -7.220   8.541  73.133  1.00  0.00    -0.268 OA 
HETATM    4  C   UNL     1      -8.838   6.778  73.457  1.00  0.00    -0.130 C  
ENDROOT
BRANCH   4   5
HETATM    5  S   UNL     1     -10.353   6.233  72.570  1.00  0.00    -0.198 SA 
BRANCH   5   6
HETATM    6  C   UNL     1      -9.626   5.250  71.333  1.00  0.00    -0.158 A  
HETATM    7  N   UNL     1      -9.474   3.956  71.504  1.00  0.00    -0.144 NA 
HETATM    8  N   UNL     1      -8.752   3.478  70.456  1.00  0.00    -0.070 NA 
HETATM    9  C   UNL     1      -8.466   4.493  69.670  1.00  0.00    -0.069 A  
HETATM   10  N   UNL     1      -9.177   5.628  70.063  1.00  0.00    -0.142 NA 
HETATM   11 BR   UNL     1      -7.053   4.353  68.434  1.00  0.00    -0.056 Br 
BRANCH  10  12
HETATM   12  C   UNL     1      -9.267   6.881  69.356  1.00  0.00    -0.147 A  
HETATM   13  C   UNL     1     -10.450   7.185  68.681  1.00  0.00    -0.218 A  
HETATM   14  C   UNL     1     -10.646   8.445  68.120  1.00  0.00    -0.175 A  
HETATM   15  C   UNL     1      -9.707   9.478  68.249  1.00  0.00    -0.163 A  
HETATM   16  C   UNL     1      -7.456  10.155  68.976  1.00  0.00    -0.091 A  
HETATM   17  C   UNL     1      -8.467   9.170  68.869  1.00  0.00    -0.129 A  
HETATM   18  C   UNL     1      -6.212   9.890  69.542  1.00  0.00    -0.045 A  
HETATM   19  C   UNL     1      -8.209   7.856  69.379  1.00  0.00    -0.130 A  
HETATM   20  C   UNL     1      -6.883   7.603  69.830  1.00  0.00    -0.047 A  
HETATM   21  C   UNL     1      -5.916   8.605  69.947  1.00  0.00    -0.031 A  
BRANCH  15  22
HETATM   22  C   UNL     1     -10.074  10.837  67.662  1.00  0.00    -0.205 C  
HETATM   23  C   UNL     1     -11.529  11.271  67.721  1.00  0.00    -0.350 C  
HETATM   24  C   UNL     1     -10.501  12.011  68.508  1.00  0.00    -0.244 C  
ENDBRANCH  15  22
ENDBRANCH  10  12
ENDBRANCH   5   6
ENDBRANCH   4   5
TORSDOF 4
ENDMDL
MODEL      224
REMARK 921   NORMALIZED FREE ENERGY PREDICTED BY IDOCK:   -3.26 KCAL/MOL
REMARK 922        TOTAL FREE ENERGY PREDICTED BY IDOCK:   -4.91 KCAL/MOL
REMARK 923 INTER-LIGAND FREE ENERGY PREDICTED BY IDOCK:   -4.27 KCAL/MOL
REMARK 924 INTRA-LIGAND FREE ENERGY PREDICTED BY IDOCK:   -0.64 KCAL/MOL
REMARK 927      BINDING AFFINITY PREDICTED BY RF-SCORE:    0.00 PKD
ROOT
HETATM    1  O   UNL     1      -6.102  16.932  70.614  1.00  0.00     0.170 OA 
HETATM    2  C   UNL     1      -6.370  17.824  69.629  1.00  0.00    -0.174 C  
HETATM    3  O   UNL     1      -5.880  18.939  69.627  1.00  0.00    -0.232 OA 
HETATM    4  C   UNL     1      -7.252  17.296  68.510  1.00  0.00    -0.224 C  
ENDROOT
BRANCH   4   5
HETATM    5  S   UNL     1      -8.358  15.938  69.070  1.00  0.00    -0.250 SA 
BRANCH   5   6
HETATM    6  C   UNL     1      -9.126  15.549  67.559  1.00  0.00    -0.193 A  
HETATM    7  N   UNL     1      -9.376  16.485  66.670  1.00  0.00    -0.241 NA 
HETATM    8  N   UNL     1     -10.107  15.925  65.669  1.00  0.00    -0.350 NA 
HETATM    9  C   UNL     1     -10.300  14.660  65.973  1.00  0.00    -0.305 A  
HETATM   10  N   UNL     1      -9.517  14.298  67.071  1.00  0.00    -0.244 NA 
HETATM   11 BR   UNL     1     -11.691  13.699  65.145  1.00  0.00    -0.368 Br 
BRANCH  10  12
HETATM   12  C   UNL     1      -9.320  12.969  67.592  1.00  0.00    -0.202 A  
HETATM   13  C   UNL     1     -10.429  12.260  68.056  1.00  0.00    -0.231 A  
HETATM   14  C   UNL     1     -10.317  10.920  68.418  1.00  0.00    -0.196 A  
HETATM   15  C   UNL     1      -9.118  10.205  68.287  1.00  0.00    -0.122 A  
HETATM   16  C   UNL     1      -6.709  10.270  67.792  1.00  0.00    -0.073 A  
HETATM   17  C   UNL     1      -7.960  10.924  67.886  1.00  0.00    -0.111 A  
HETATM   18  C   UNL     1      -5.541  10.940  67.439  1.00  0.00    -0.045 A  
HETATM   19  C   UNL     1      -8.034  12.323  67.589  1.00  0.00    -0.161 A  
HETATM   20  C   UNL     1      -6.795  12.986  67.359  1.00  0.00    -0.126 A  
HETATM   21  C   UNL     1      -5.579  12.306  67.247  1.00  0.00    -0.122 A  
BRANCH  15  22
HETATM   22  C   UNL     1      -9.144   8.721  68.640  1.00  0.00    -0.141 C  
HETATM   23  C   UNL     1      -8.595   8.299  69.991  1.00  0.00    -0.128 C  
HETATM   24  C   UNL     1     -10.049   8.144  69.700  1.00  0.00    -0.199 C  
ENDBRANCH  15  22
ENDBRANCH  10  12
ENDBRANCH   5   6
ENDBRANCH   4   5
TORSDOF 4
ENDMDL
MODEL      225
REMARK 921   NORMALIZED FREE ENERGY PREDICTED BY IDOCK:   -3.24 KCAL/MOL
REMARK 922        TOTAL FREE ENERGY PREDICTED BY IDOCK:   -4.88 KCAL/MOL
REMARK 923 INTER-LIGAND FREE ENERGY PREDICTED BY IDOCK:   -4.71 KCAL/MOL
REMARK 924 INTRA-LIGAND FREE ENERGY PREDICTED BY IDOCK:   -0.17 KCAL/MOL
REMARK 927      BINDING AFFINITY PREDICTED BY RF-SCORE:    0.00 PKD
ROOT
HETATM    1  O   UNL     1      -6.007  10.139  70.679  1.00  0.00    -0.084 OA 
HETATM    2  C   UNL     1      -6.105  11.429  70.275  1.00  0.00    -0.145 C  
HETATM    3  O   UNL     1      -5.938  12.355  71.049  1.00  0.00    -0.309 OA 
HETATM    4  C   UNL     1      -6.357  11.617  68.788  1.00  0.00    -0.056 C  
ENDROOT
BRANCH   4   5
HETATM    5  S   UNL     1      -7.221  10.178  68.036  1.00  0.00    -0.086 SA 
BRANCH   5   6
HETATM    6  C   UNL     1      -8.871  10.677  68.271  1.00  0.00    -0.139 A  
HETATM    7  N   UNL     1      -9.393  11.641  67.547  1.00  0.00    -0.166 NA 
HETATM    8  N   UNL     1     -10.628  11.915  68.045  1.00  0.00    -0.200 NA 
HETATM    9  C   UNL     1     -10.832  11.119  69.073  1.00  0.00    -0.231 A  
HETATM   10  N   UNL     1      -9.829  10.150  69.144  1.00  0.00    -0.202 NA 
HETATM   11 BR   UNL     1     -12.154  11.546  70.341  1.00  0.00    -0.449 Br 
BRANCH  10  12
HETATM   12  C   UNL     1      -9.795   9.003  70.015  1.00  0.00    -0.184 A  
HETATM   13  C   UNL     1      -9.668   9.210  71.390  1.00  0.00    -0.338 A  
HETATM   14  C   UNL     1      -9.790   8.149  72.284  1.00  0.00    -0.329 A  
HETATM   15  C   UNL     1     -10.099   6.847  71.865  1.00  0.00    -0.198 A  
HETATM   16  C   UNL     1     -10.410   5.293  69.983  1.00  0.00    -0.365 A  
HETATM   17  C   UNL     1     -10.161   6.599  70.468  1.00  0.00    -0.209 A  
HETATM   18  C   UNL     1     -10.444   4.995  68.624  1.00  0.00    -0.027 A  
HETATM   19  C   UNL     1      -9.954   7.659  69.526  1.00  0.00    -0.182 A  
HETATM   20  C   UNL     1      -9.872   7.280  68.157  1.00  0.00    -0.165 A  
HETATM   21  C   UNL     1     -10.149   5.985  67.709  1.00  0.00    -0.185 A  
BRANCH  15  22
HETATM   22  C   UNL     1     -10.288   5.789  72.947  1.00  0.00    -0.226 C  
HETATM   23  C   UNL     1     -11.702   5.329  73.257  1.00  0.00    -0.033 C  
HETATM   24  C   UNL     1     -10.728   4.377  72.649  1.00  0.00    -0.204 C  
ENDBRANCH  15  22
ENDBRANCH  10  12
ENDBRANCH   5   6
ENDBRANCH   4   5
TORSDOF 4
ENDMDL
MODEL      226
REMARK 921   NORMALIZED FREE ENERGY PREDICTED BY IDOCK:   -3.24 KCAL/MOL
REMARK 922        TOTAL FREE ENERGY PREDICTED BY IDOCK:   -4.87 KCAL/MOL
REMARK 923 INTER-LIGAND FREE ENERGY PREDICTED BY IDOCK:   -4.12 KCAL/MOL
REMARK 924 INTRA-LIGAND FREE ENERGY PREDICTED BY IDOCK:   -0.75 KCAL/MOL
REMARK 927      BINDING AFFINITY PREDICTED BY RF-SCORE:    0.00 PKD
ROOT
HETATM    1  O   UNL     1      -8.990   3.977  73.664  1.00  0.00    -0.093 OA 
HETATM    2  C   UNL     1      -7.811   4.092  73.006  1.00  0.00    -0.084 C  
HETATM    3  O   UNL     1      -6.932   3.256  73.119  1.00  0.00    -0.037 OA 
HETATM    4  C   UNL     1      -7.714   5.287  72.071  1.00  0.00    -0.100 C  
ENDROOT
BRANCH   4   5
HETATM    5  S   UNL     1      -8.803   6.674  72.591  1.00  0.00    -0.122 SA 
BRANCH   5   6
HETATM    6  C   UNL     1      -9.902   6.699  71.243  1.00  0.00    -0.177 A  
HETATM    7  N   UNL     1     -10.890   5.835  71.164  1.00  0.00    -0.262 NA 
HETATM    8  N   UNL     1     -11.483   5.991  69.950  1.00  0.00    -0.309 NA 
HETATM    9  C   UNL     1     -10.837   6.939  69.306  1.00  0.00    -0.237 A  
HETATM   10  N   UNL     1      -9.942   7.585  70.161  1.00  0.00    -0.191 NA 
HETATM   11 BR   UNL     1     -10.991   7.074  67.435  1.00  0.00    -0.285 Br 
BRANCH  10  12
HETATM   12  C   UNL     1      -9.185   8.778  69.880  1.00  0.00    -0.157 A  
HETATM   13  C   UNL     1      -7.793   8.724  69.964  1.00  0.00    -0.094 A  
HETATM   14  C   UNL     1      -7.013   9.800  69.548  1.00  0.00    -0.064 A  
HETATM   15  C   UNL     1      -7.568  10.955  68.979  1.00  0.00    -0.135 A  
HETATM   16  C   UNL     1      -9.603  12.228  68.443  1.00  0.00    -0.183 A  
HETATM   17  C   UNL     1      -8.984  11.062  68.950  1.00  0.00    -0.123 A  
HETATM   18  C   UNL     1     -10.986  12.394  68.427  1.00  0.00    -0.272 A  
HETATM   19  C   UNL     1      -9.809  10.002  69.451  1.00  0.00    -0.240 A  
HETATM   20  C   UNL     1     -11.204  10.272  69.531  1.00  0.00    -0.314 A  
HETATM   21  C   UNL     1     -11.787  11.425  68.996  1.00  0.00    -0.415 A  
BRANCH  15  22
HETATM   22  C   UNL     1      -6.603  12.029  68.488  1.00  0.00    -0.062 C  
HETATM   23  C   UNL     1      -6.197  13.123  69.460  1.00  0.00    -0.116 C  
HETATM   24  C   UNL     1      -5.181  12.143  68.979  1.00  0.00    -0.055 C  
ENDBRANCH  15  22
ENDBRANCH  10  12
ENDBRANCH   5   6
ENDBRANCH   4   5
TORSDOF 4
ENDMDL
MODEL      227
REMARK 921   NORMALIZED FREE ENERGY PREDICTED BY IDOCK:   -3.23 KCAL/MOL
REMARK 922        TOTAL FREE ENERGY PREDICTED BY IDOCK:   -4.87 KCAL/MOL
REMARK 923 INTER-LIGAND FREE ENERGY PREDICTED BY IDOCK:   -3.63 KCAL/MOL
REMARK 924 INTRA-LIGAND FREE ENERGY PREDICTED BY IDOCK:   -1.24 KCAL/MOL
REMARK 927      BINDING AFFINITY PREDICTED BY RF-SCORE:    0.00 PKD
ROOT
HETATM    1  O   UNL     1      -9.466   2.453  68.523  1.00  0.00    -0.194 OA 
HETATM    2  C   UNL     1      -8.359   2.431  67.742  1.00  0.00    -0.067 C  
HETATM    3  O   UNL     1      -7.341   1.860  68.091  1.00  0.00    -0.046 OA 
HETATM    4  C   UNL     1      -8.519   3.098  66.385  1.00  0.00    -0.109 C  
ENDROOT
BRANCH   4   5
HETATM    5  S   UNL     1      -9.811   4.406  66.396  1.00  0.00    -0.230 SA 
BRANCH   5   6
HETATM    6  C   UNL     1      -8.799   5.812  66.241  1.00  0.00    -0.140 A  
HETATM    7  N   UNL     1      -8.152   6.056  65.123  1.00  0.00    -0.127 NA 
HETATM    8  N   UNL     1      -7.335   7.122  65.338  1.00  0.00    -0.076 NA 
HETATM    9  C   UNL     1      -7.491   7.500  66.589  1.00  0.00    -0.092 A  
HETATM   10  N   UNL     1      -8.574   6.836  67.167  1.00  0.00    -0.119 NA 
HETATM   11 BR   UNL     1      -6.175   8.561  67.417  1.00  0.00    -0.057 Br 
BRANCH  10  12
HETATM   12  C   UNL     1      -9.166   7.103  68.454  1.00  0.00    -0.133 A  
HETATM   13  C   UNL     1     -10.086   8.147  68.564  1.00  0.00    -0.220 A  
HETATM   14  C   UNL     1     -10.803   8.342  69.742  1.00  0.00    -0.186 A  
HETATM   15  C   UNL     1     -10.685   7.482  70.843  1.00  0.00    -0.244 A  
HETATM   16  C   UNL     1      -9.497   5.595  71.883  1.00  0.00    -0.171 A  
HETATM   17  C   UNL     1      -9.704   6.457  70.780  1.00  0.00    -0.197 A  
HETATM   18  C   UNL     1      -8.523   4.601  71.881  1.00  0.00    -0.120 A  
HETATM   19  C   UNL     1      -8.894   6.290  69.610  1.00  0.00    -0.136 A  
HETATM   20  C   UNL     1      -7.831   5.348  69.707  1.00  0.00    -0.081 A  
HETATM   21  C   UNL     1      -7.671   4.493  70.801  1.00  0.00    -0.053 A  
BRANCH  15  22
HETATM   22  C   UNL     1     -11.585   7.754  72.044  1.00  0.00    -0.347 C  
HETATM   23  C   UNL     1     -12.798   8.645  71.840  1.00  0.00    -0.411 C  
HETATM   24  C   UNL     1     -12.984   7.202  72.165  1.00  0.00    -0.072 C  
ENDBRANCH  15  22
ENDBRANCH  10  12
ENDBRANCH   5   6
ENDBRANCH   4   5
TORSDOF 4
ENDMDL
MODEL      228
REMARK 921   NORMALIZED FREE ENERGY PREDICTED BY IDOCK:   -3.23 KCAL/MOL
REMARK 922        TOTAL FREE ENERGY PREDICTED BY IDOCK:   -4.87 KCAL/MOL
REMARK 923 INTER-LIGAND FREE ENERGY PREDICTED BY IDOCK:   -3.82 KCAL/MOL
REMARK 924 INTRA-LIGAND FREE ENERGY PREDICTED BY IDOCK:   -1.05 KCAL/MOL
REMARK 927      BINDING AFFINITY PREDICTED BY RF-SCORE:    0.00 PKD
ROOT
HETATM    1  O   UNL     1      -9.522   5.978  71.027  1.00  0.00    -0.166 OA 
HETATM    2  C   UNL     1      -8.756   5.193  70.231  1.00  0.00    -0.116 C  
HETATM    3  O   UNL     1      -7.929   4.428  70.694  1.00  0.00    -0.059 OA 
HETATM    4  C   UNL     1      -9.067   5.291  68.746  1.00  0.00    -0.112 C  
ENDROOT
BRANCH   4   5
HETATM    5  S   UNL     1      -9.794   6.916  68.288  1.00  0.00    -0.141 SA 
BRANCH   5   6
HETATM    6  C   UNL     1      -9.166   7.068  66.673  1.00  0.00    -0.158 A  
HETATM    7  N   UNL     1      -8.995   6.009  65.914  1.00  0.00    -0.153 NA 
HETATM    8  N   UNL     1      -8.359   6.407  64.780  1.00  0.00    -0.085 NA 
HETATM    9  C   UNL     1      -8.143   7.701  64.874  1.00  0.00    -0.128 A  
HETATM   10  N   UNL     1      -8.825   8.230  65.971  1.00  0.00    -0.161 NA 
HETATM   11 BR   UNL     1      -6.837   8.514  63.791  1.00  0.00    -0.084 Br 
BRANCH  10  12
HETATM   12  C   UNL     1      -8.979   9.623  66.305  1.00  0.00    -0.155 A  
HETATM   13  C   UNL     1     -10.050  10.329  65.755  1.00  0.00    -0.325 A  
HETATM   14  C   UNL     1     -10.335  11.628  66.170  1.00  0.00    -0.280 A  
HETATM   15  C   UNL     1      -9.609  12.267  67.186  1.00  0.00    -0.200 A  
HETATM   16  C   UNL     1      -7.665  12.215  68.693  1.00  0.00    -0.089 A  
HETATM   17  C   UNL     1      -8.472  11.596  67.708  1.00  0.00    -0.144 A  
HETATM   18  C   UNL     1      -6.521  11.612  69.208  1.00  0.00    -0.105 A  
HETATM   19  C   UNL     1      -8.109  10.292  67.236  1.00  0.00    -0.120 A  
HETATM   20  C   UNL     1      -6.866   9.777  67.698  1.00  0.00    -0.085 A  
HETATM   21  C   UNL     1      -6.106  10.402  68.691  1.00  0.00    -0.043 A  
BRANCH  15  22
HETATM   22  C   UNL     1     -10.071  13.658  67.607  1.00  0.00    -0.242 C  
HETATM   23  C   UNL     1     -11.558  13.961  67.563  1.00  0.00    -0.392 C  
HETATM   24  C   UNL     1     -10.849  13.918  68.874  1.00  0.00    -0.278 C  
ENDBRANCH  15  22
ENDBRANCH  10  12
ENDBRANCH   5   6
ENDBRANCH   4   5
TORSDOF 4
ENDMDL
MODEL      229
REMARK 921   NORMALIZED FREE ENERGY PREDICTED BY IDOCK:   -3.21 KCAL/MOL
REMARK 922        TOTAL FREE ENERGY PREDICTED BY IDOCK:   -4.84 KCAL/MOL
REMARK 923 INTER-LIGAND FREE ENERGY PREDICTED BY IDOCK:   -4.32 KCAL/MOL
REMARK 924 INTRA-LIGAND FREE ENERGY PREDICTED BY IDOCK:   -0.51 KCAL/MOL
REMARK 927      BINDING AFFINITY PREDICTED BY RF-SCORE:    0.00 PKD
ROOT
HETATM    1  O   UNL     1     -10.006   7.529  72.089  1.00  0.00    -0.170 OA 
HETATM    2  C   UNL     1      -9.198   8.614  72.007  1.00  0.00    -0.268 C  
HETATM    3  O   UNL     1      -8.382   8.870  72.875  1.00  0.00    -0.372 OA 
HETATM    4  C   UNL     1      -9.337   9.421  70.726  1.00  0.00    -0.226 C  
ENDROOT
BRANCH   4   5
HETATM    5  S   UNL     1     -11.006   9.255  69.971  1.00  0.00    -0.208 SA 
BRANCH   5   6
HETATM    6  C   UNL     1     -10.790  10.263  68.570  1.00  0.00    -0.240 A  
HETATM    7  N   UNL     1     -11.385  11.431  68.483  1.00  0.00    -0.244 NA 
HETATM    8  N   UNL     1     -11.161  11.921  67.234  1.00  0.00    -0.296 NA 
HETATM    9  C   UNL     1     -10.443  11.035  66.578  1.00  0.00    -0.257 A  
HETATM   10  N   UNL     1      -9.989  10.039  67.445  1.00  0.00    -0.187 NA 
HETATM   11 BR   UNL     1     -10.388  11.081  64.698  1.00  0.00    -0.410 Br 
BRANCH  10  12
HETATM   12  C   UNL     1      -9.039   8.998  67.144  1.00  0.00    -0.137 A  
HETATM   13  C   UNL     1      -7.682   9.322  67.101  1.00  0.00    -0.095 A  
HETATM   14  C   UNL     1      -6.717   8.326  66.974  1.00  0.00    -0.062 A  
HETATM   15  C   UNL     1      -7.044   6.963  66.942  1.00  0.00    -0.075 A  
HETATM   16  C   UNL     1      -8.814   5.258  66.820  1.00  0.00    -0.111 A  
HETATM   17  C   UNL     1      -8.421   6.615  66.912  1.00  0.00    -0.115 A  
HETATM   18  C   UNL     1     -10.149   4.871  66.751  1.00  0.00    -0.269 A  
HETATM   19  C   UNL     1      -9.434   7.627  66.956  1.00  0.00    -0.209 A  
HETATM   20  C   UNL     1     -10.773   7.189  66.754  1.00  0.00    -0.259 A  
HETATM   21  C   UNL     1     -11.130   5.839  66.692  1.00  0.00    -0.069 A  
BRANCH  15  22
HETATM   22  C   UNL     1      -5.891   5.966  66.884  1.00  0.00    -0.017 C  
HETATM   23  C   UNL     1      -5.242   5.549  68.192  1.00  0.00    -0.004 C  
HETATM   24  C   UNL     1      -6.003   4.549  67.390  1.00  0.00    -0.023 C  
ENDBRANCH  15  22
ENDBRANCH  10  12
ENDBRANCH   5   6
ENDBRANCH   4   5
TORSDOF 4
ENDMDL
MODEL      230
REMARK 921   NORMALIZED FREE ENERGY PREDICTED BY IDOCK:   -3.20 KCAL/MOL
REMARK 922        TOTAL FREE ENERGY PREDICTED BY IDOCK:   -4.83 KCAL/MOL
REMARK 923 INTER-LIGAND FREE ENERGY PREDICTED BY IDOCK:   -4.60 KCAL/MOL
REMARK 924 INTRA-LIGAND FREE ENERGY PREDICTED BY IDOCK:   -0.23 KCAL/MOL
REMARK 927      BINDING AFFINITY PREDICTED BY RF-SCORE:    0.00 PKD
ROOT
HETATM    1  O   UNL     1     -13.865  11.975  72.191  1.00  0.00    -0.182 OA 
HETATM    2  C   UNL     1     -12.828  12.145  71.335  1.00  0.00    -0.276 C  
HETATM    3  O   UNL     1     -12.602  13.220  70.810  1.00  0.00    -0.333 OA 
HETATM    4  C   UNL     1     -11.940  10.924  71.156  1.00  0.00    -0.212 C  
ENDROOT
BRANCH   4   5
HETATM    5  S   UNL     1     -12.840   9.351  71.468  1.00  0.00    -0.380 SA 
BRANCH   5   6
HETATM    6  C   UNL     1     -11.541   8.400  72.126  1.00  0.00    -0.374 A  
HETATM    7  N   UNL     1     -11.448   8.191  73.420  1.00  0.00     0.192 NA 
HETATM    8  N   UNL     1     -10.270   7.554  73.656  1.00  0.00    -0.326 NA 
HETATM    9  C   UNL     1      -9.661   7.396  72.500  1.00  0.00    -0.157 A  
HETATM   10  N   UNL     1     -10.518   7.727  71.449  1.00  0.00    -0.208 NA 
HETATM   11 BR   UNL     1      -7.809   7.061  72.455  1.00  0.00    -0.098 Br 
BRANCH  10  12
HETATM   12  C   UNL     1     -10.281   7.522  70.043  1.00  0.00    -0.215 A  
HETATM   13  C   UNL     1     -10.499   8.586  69.165  1.00  0.00    -0.217 A  
HETATM   14  C   UNL     1     -10.134   8.489  67.825  1.00  0.00    -0.266 A  
HETATM   15  C   UNL     1      -9.487   7.359  67.303  1.00  0.00    -0.179 A  
HETATM   16  C   UNL     1      -8.727   5.049  67.674  1.00  0.00    -0.103 A  
HETATM   17  C   UNL     1      -9.320   6.239  68.159  1.00  0.00    -0.115 A  
HETATM   18  C   UNL     1      -8.576   3.913  68.465  1.00  0.00    -0.117 A  
HETATM   19  C   UNL     1      -9.765   6.284  69.521  1.00  0.00    -0.169 A  
HETATM   20  C   UNL     1      -9.705   5.061  70.246  1.00  0.00    -0.285 A  
HETATM   21  C   UNL     1      -9.089   3.911  69.745  1.00  0.00    -0.188 A  
BRANCH  15  22
HETATM   22  C   UNL     1      -9.064   7.408  65.839  1.00  0.00    -0.073 C  
HETATM   23  C   UNL     1      -8.779   8.766  65.222  1.00  0.00    -0.216 C  
HETATM   24  C   UNL     1      -7.671   7.784  65.397  1.00  0.00    -0.106 C  
ENDBRANCH  15  22
ENDBRANCH  10  12
ENDBRANCH   5   6
ENDBRANCH   4   5
TORSDOF 4
ENDMDL
MODEL      231
REMARK 921   NORMALIZED FREE ENERGY PREDICTED BY IDOCK:   -3.20 KCAL/MOL
REMARK 922        TOTAL FREE ENERGY PREDICTED BY IDOCK:   -4.83 KCAL/MOL
REMARK 923 INTER-LIGAND FREE ENERGY PREDICTED BY IDOCK:   -3.79 KCAL/MOL
REMARK 924 INTRA-LIGAND FREE ENERGY PREDICTED BY IDOCK:   -1.04 KCAL/MOL
REMARK 927      BINDING AFFINITY PREDICTED BY RF-SCORE:    0.00 PKD
ROOT
HETATM    1  O   UNL     1      -8.951  11.920  68.119  1.00  0.00    -0.174 OA 
HETATM    2  C   UNL     1      -8.064  11.050  68.662  1.00  0.00    -0.149 C  
HETATM    3  O   UNL     1      -6.992  11.423  69.103  1.00  0.00    -0.101 OA 
HETATM    4  C   UNL     1      -8.548   9.612  68.745  1.00  0.00    -0.125 C  
ENDROOT
BRANCH   4   5
HETATM    5  S   UNL     1      -9.800   9.217  67.459  1.00  0.00    -0.187 SA 
BRANCH   5   6
HETATM    6  C   UNL     1      -9.182   7.685  66.913  1.00  0.00    -0.145 A  
HETATM    7  N   UNL     1      -8.745   7.535  65.683  1.00  0.00    -0.120 NA 
HETATM    8  N   UNL     1      -8.469   6.217  65.497  1.00  0.00    -0.150 NA 
HETATM    9  C   UNL     1      -8.756   5.585  66.614  1.00  0.00    -0.116 A  
HETATM   10  N   UNL     1      -9.019   6.499  67.636  1.00  0.00    -0.115 NA 
HETATM   11 BR   UNL     1      -9.029   3.723  66.595  1.00  0.00    -0.162 Br 
BRANCH  10  12
HETATM   12  C   UNL     1      -9.199   6.204  69.035  1.00  0.00    -0.126 A  
HETATM   13  C   UNL     1     -10.497   6.040  69.523  1.00  0.00    -0.330 A  
HETATM   14  C   UNL     1     -10.717   5.599  70.825  1.00  0.00    -0.320 A  
HETATM   15  C   UNL     1      -9.668   5.246  71.686  1.00  0.00    -0.211 A  
HETATM   16  C   UNL     1      -7.240   5.193  72.082  1.00  0.00    -0.086 A  
HETATM   17  C   UNL     1      -8.340   5.473  71.236  1.00  0.00    -0.126 A  
HETATM   18  C   UNL     1      -5.923   5.433  71.699  1.00  0.00    -0.028 A  
HETATM   19  C   UNL     1      -8.090   6.007  69.930  1.00  0.00    -0.117 A  
HETATM   20  C   UNL     1      -6.740   6.353  69.637  1.00  0.00    -0.053 A  
HETATM   21  C   UNL     1      -5.674   6.038  70.485  1.00  0.00    -0.014 A  
BRANCH  15  22
HETATM   22  C   UNL     1     -10.041   4.698  73.059  1.00  0.00    -0.207 C  
HETATM   23  C   UNL     1     -11.512   4.658  73.437  1.00  0.00    -0.335 C  
HETATM   24  C   UNL     1     -10.759   3.385  73.254  1.00  0.00    -0.291 C  
ENDBRANCH  15  22
ENDBRANCH  10  12
ENDBRANCH   5   6
ENDBRANCH   4   5
TORSDOF 4
ENDMDL
MODEL      232
REMARK 921   NORMALIZED FREE ENERGY PREDICTED BY IDOCK:   -3.20 KCAL/MOL
REMARK 922        TOTAL FREE ENERGY PREDICTED BY IDOCK:   -4.83 KCAL/MOL
REMARK 923 INTER-LIGAND FREE ENERGY PREDICTED BY IDOCK:   -4.54 KCAL/MOL
REMARK 924 INTRA-LIGAND FREE ENERGY PREDICTED BY IDOCK:   -0.29 KCAL/MOL
REMARK 927      BINDING AFFINITY PREDICTED BY RF-SCORE:    0.00 PKD
ROOT
HETATM    1  O   UNL     1      -8.726   5.782  65.857  1.00  0.00    -0.141 OA 
HETATM    2  C   UNL     1      -9.773   5.935  66.705  1.00  0.00    -0.153 C  
HETATM    3  O   UNL     1     -10.380   4.977  67.149  1.00  0.00    -0.203 OA 
HETATM    4  C   UNL     1     -10.065   7.370  67.109  1.00  0.00    -0.244 C  
ENDROOT
BRANCH   4   5
HETATM    5  S   UNL     1      -9.515   8.582  65.840  1.00  0.00    -0.066 SA 
BRANCH   5   6
HETATM    6  C   UNL     1      -8.153   9.274  66.672  1.00  0.00    -0.108 A  
HETATM    7  N   UNL     1      -7.048   9.569  66.025  1.00  0.00    -0.091 NA 
HETATM    8  N   UNL     1      -6.117   9.946  66.941  1.00  0.00    -0.061 NA 
HETATM    9  C   UNL     1      -6.668   9.863  68.132  1.00  0.00    -0.060 A  
HETATM   10  N   UNL     1      -8.042   9.640  68.017  1.00  0.00    -0.105 NA 
HETATM   11 BR   UNL     1      -5.580   9.771  69.665  1.00  0.00    -0.033 Br 
BRANCH  10  12
HETATM   12  C   UNL     1      -9.014   9.663  69.081  1.00  0.00    -0.154 A  
HETATM   13  C   UNL     1      -9.974  10.676  69.089  1.00  0.00    -0.228 A  
HETATM   14  C   UNL     1     -11.028  10.650  69.999  1.00  0.00    -0.325 A  
HETATM   15  C   UNL     1     -11.212   9.596  70.905  1.00  0.00    -0.422 A  
HETATM   16  C   UNL     1     -10.308   7.535  71.899  1.00  0.00    -0.226 A  
HETATM   17  C   UNL     1     -10.208   8.593  70.964  1.00  0.00    -0.278 A  
HETATM   18  C   UNL     1      -9.332   6.550  72.018  1.00  0.00    -0.147 A  
HETATM   19  C   UNL     1      -9.070   8.643  70.095  1.00  0.00    -0.163 A  
HETATM   20  C   UNL     1      -8.043   7.690  70.344  1.00  0.00    -0.113 A  
HETATM   21  C   UNL     1      -8.185   6.642  71.257  1.00  0.00    -0.120 A  
BRANCH  15  22
HETATM   22  C   UNL     1     -12.451   9.643  71.793  1.00  0.00    -0.487 C  
HETATM   23  C   UNL     1     -13.210  10.955  71.891  1.00  0.00    -0.508 C  
HETATM   24  C   UNL     1     -13.851   9.773  71.247  1.00  0.00    -0.101 C  
ENDBRANCH  15  22
ENDBRANCH  10  12
ENDBRANCH   5   6
ENDBRANCH   4   5
TORSDOF 4
ENDMDL
MODEL      233
REMARK 921   NORMALIZED FREE ENERGY PREDICTED BY IDOCK:   -3.18 KCAL/MOL
REMARK 922        TOTAL FREE ENERGY PREDICTED BY IDOCK:   -4.81 KCAL/MOL
REMARK 923 INTER-LIGAND FREE ENERGY PREDICTED BY IDOCK:   -3.82 KCAL/MOL
REMARK 924 INTRA-LIGAND FREE ENERGY PREDICTED BY IDOCK:   -0.99 KCAL/MOL
REMARK 927      BINDING AFFINITY PREDICTED BY RF-SCORE:    0.00 PKD
ROOT
HETATM    1  O   UNL     1      -7.206   5.943  68.441  1.00  0.00    -0.078 OA 
HETATM    2  C   UNL     1      -6.744   7.082  69.012  1.00  0.00    -0.056 C  
HETATM    3  O   UNL     1      -5.983   7.057  69.963  1.00  0.00    -0.023 OA 
HETATM    4  C   UNL     1      -7.185   8.365  68.327  1.00  0.00    -0.086 C  
ENDROOT
BRANCH   4   5
HETATM    5  S   UNL     1      -8.781   8.172  67.435  1.00  0.00    -0.124 SA 
BRANCH   5   6
HETATM    6  C   UNL     1      -8.292   8.695  65.850  1.00  0.00    -0.136 A  
HETATM    7  N   UNL     1      -7.957   7.823  64.926  1.00  0.00    -0.133 NA 
HETATM    8  N   UNL     1      -7.481   8.512  63.855  1.00  0.00    -0.111 NA 
HETATM    9  C   UNL     1      -7.524   9.793  64.151  1.00  0.00    -0.135 A  
HETATM   10  N   UNL     1      -8.232   9.995  65.336  1.00  0.00    -0.142 NA 
HETATM   11 BR   UNL     1      -6.472  11.015  63.179  1.00  0.00     0.677 Br 
BRANCH  10  12
HETATM   12  C   UNL     1      -8.642  11.259  65.894  1.00  0.00    -0.096 A  
HETATM   13  C   UNL     1      -7.941  11.767  66.989  1.00  0.00    -0.164 A  
HETATM   14  C   UNL     1      -8.193  13.052  67.462  1.00  0.00    -0.181 A  
HETATM   15  C   UNL     1      -9.109  13.914  66.841  1.00  0.00    -0.257 A  
HETATM   16  C   UNL     1     -10.868  14.196  65.145  1.00  0.00    -0.380 A  
HETATM   17  C   UNL     1      -9.886  13.393  65.772  1.00  0.00    -0.213 A  
HETATM   18  C   UNL     1     -11.678  13.719  64.118  1.00  0.00    -0.397 A  
HETATM   19  C   UNL     1      -9.703  12.045  65.322  1.00  0.00    -0.183 A  
HETATM   20  C   UNL     1     -10.639  11.568  64.362  1.00  0.00    -0.392 A  
HETATM   21  C   UNL     1     -11.581  12.394  63.743  1.00  0.00    -0.553 A  
BRANCH  15  22
HETATM   22  C   UNL     1      -9.236  15.325  67.404  1.00  0.00    -0.201 C  
HETATM   23  C   UNL     1     -10.345  15.598  68.406  1.00  0.00    -0.231 C  
HETATM   24  C   UNL     1      -8.921  15.670  68.839  1.00  0.00    -0.221 C  
ENDBRANCH  15  22
ENDBRANCH  10  12
ENDBRANCH   5   6
ENDBRANCH   4   5
TORSDOF 4
ENDMDL
MODEL      234
REMARK 921   NORMALIZED FREE ENERGY PREDICTED BY IDOCK:   -3.15 KCAL/MOL
REMARK 922        TOTAL FREE ENERGY PREDICTED BY IDOCK:   -4.77 KCAL/MOL
REMARK 923 INTER-LIGAND FREE ENERGY PREDICTED BY IDOCK:   -3.76 KCAL/MOL
REMARK 924 INTRA-LIGAND FREE ENERGY PREDICTED BY IDOCK:   -1.01 KCAL/MOL
REMARK 927      BINDING AFFINITY PREDICTED BY RF-SCORE:    0.00 PKD
ROOT
HETATM    1  O   UNL     1      -6.146   6.987  63.798  1.00  0.00    -0.041 OA 
HETATM    2  C   UNL     1      -7.147   6.074  63.847  1.00  0.00    -0.053 C  
HETATM    3  O   UNL     1      -7.157   5.098  63.119  1.00  0.00    -0.041 OA 
HETATM    4  C   UNL     1      -8.191   6.327  64.922  1.00  0.00    -0.119 C  
ENDROOT
BRANCH   4   5
HETATM    5  S   UNL     1      -8.327   8.106  65.363  1.00  0.00    -0.148 SA 
BRANCH   5   6
HETATM    6  C   UNL     1      -7.950   8.013  67.059  1.00  0.00    -0.108 A  
HETATM    7  N   UNL     1      -7.289   6.987  67.547  1.00  0.00    -0.090 NA 
HETATM    8  N   UNL     1      -7.272   7.107  68.901  1.00  0.00    -0.088 NA 
HETATM    9  C   UNL     1      -7.935   8.199  69.215  1.00  0.00    -0.115 A  
HETATM   10  N   UNL     1      -8.217   8.944  68.069  1.00  0.00    -0.110 NA 
HETATM   11 BR   UNL     1      -8.596   8.425  70.963  1.00  0.00    -0.204 Br 
BRANCH  10  12
HETATM   12  C   UNL     1      -8.770  10.274  68.015  1.00  0.00    -0.122 A  
HETATM   13  C   UNL     1     -10.145  10.435  68.189  1.00  0.00    -0.179 A  
HETATM   14  C   UNL     1     -10.704  11.705  68.305  1.00  0.00    -0.246 A  
HETATM   15  C   UNL     1      -9.924  12.871  68.311  1.00  0.00    -0.234 A  
HETATM   16  C   UNL     1      -7.702  13.880  67.999  1.00  0.00    -0.151 A  
HETATM   17  C   UNL     1      -8.532  12.735  68.063  1.00  0.00    -0.177 A  
HETATM   18  C   UNL     1      -6.340  13.800  67.723  1.00  0.00    -0.171 A  
HETATM   19  C   UNL     1      -7.947  11.444  67.856  1.00  0.00    -0.120 A  
HETATM   20  C   UNL     1      -6.582  11.426  67.452  1.00  0.00    -0.090 A  
HETATM   21  C   UNL     1      -5.784  12.573  67.423  1.00  0.00    -0.124 A  
BRANCH  15  22
HETATM   22  C   UNL     1     -10.646  14.196  68.528  1.00  0.00    -0.257 C  
HETATM   23  C   UNL     1     -11.842  14.511  67.647  1.00  0.00    -0.395 C  
HETATM   24  C   UNL     1     -12.035  14.291  69.109  1.00  0.00    -0.372 C  
ENDBRANCH  15  22
ENDBRANCH  10  12
ENDBRANCH   5   6
ENDBRANCH   4   5
TORSDOF 4
ENDMDL
MODEL      235
REMARK 921   NORMALIZED FREE ENERGY PREDICTED BY IDOCK:   -3.10 KCAL/MOL
REMARK 922        TOTAL FREE ENERGY PREDICTED BY IDOCK:   -4.71 KCAL/MOL
REMARK 923 INTER-LIGAND FREE ENERGY PREDICTED BY IDOCK:   -3.40 KCAL/MOL
REMARK 924 INTRA-LIGAND FREE ENERGY PREDICTED BY IDOCK:   -1.31 KCAL/MOL
REMARK 927      BINDING AFFINITY PREDICTED BY RF-SCORE:    0.00 PKD
ROOT
HETATM    1  O   UNL     1      -5.215   7.802  68.286  1.00  0.00    -0.025 OA 
HETATM    2  C   UNL     1      -5.599   6.853  69.175  1.00  0.00    -0.018 C  
HETATM    3  O   UNL     1      -5.459   5.665  68.942  1.00  0.00    -0.009 OA 
HETATM    4  C   UNL     1      -6.131   7.389  70.494  1.00  0.00    -0.031 C  
ENDROOT
BRANCH   4   5
HETATM    5  S   UNL     1      -6.856   9.070  70.326  1.00  0.00    -0.057 SA 
BRANCH   5   6
HETATM    6  C   UNL     1      -8.525   8.698  70.641  1.00  0.00    -0.157 A  
HETATM    7  N   UNL     1      -8.980   8.632  71.872  1.00  0.00    -0.253 NA 
HETATM    8  N   UNL     1     -10.262   8.181  71.820  1.00  0.00    -0.197 NA 
HETATM    9  C   UNL     1     -10.561   7.969  70.557  1.00  0.00    -0.220 A  
HETATM   10  N   UNL     1      -9.562   8.481  69.727  1.00  0.00    -0.169 NA 
HETATM   11 BR   UNL     1     -12.009   6.852  70.112  1.00  0.00    -0.084 Br 
BRANCH  10  12
HETATM   12  C   UNL     1      -9.606   8.599  68.291  1.00  0.00    -0.147 A  
HETATM   13  C   UNL     1     -10.040   9.801  67.730  1.00  0.00    -0.223 A  
HETATM   14  C   UNL     1      -9.948  10.020  66.358  1.00  0.00    -0.300 A  
HETATM   15  C   UNL     1      -9.373   9.086  65.486  1.00  0.00    -0.255 A  
HETATM   16  C   UNL     1      -8.458   6.823  65.182  1.00  0.00    -0.035 A  
HETATM   17  C   UNL     1      -8.990   7.828  66.023  1.00  0.00    -0.185 A  
HETATM   18  C   UNL     1      -8.103   5.563  65.656  1.00  0.00    -0.118 A  
HETATM   19  C   UNL     1      -9.153   7.548  67.419  1.00  0.00    -0.135 A  
HETATM   20  C   UNL     1      -8.897   6.208  67.828  1.00  0.00    -0.110 A  
HETATM   21  C   UNL     1      -8.347   5.246  66.976  1.00  0.00    -0.107 A  
BRANCH  15  22
HETATM   22  C   UNL     1      -9.256   9.478  64.017  1.00  0.00    -0.116 C  
HETATM   23  C   UNL     1      -9.319  10.954  63.664  1.00  0.00    -0.285 C  
HETATM   24  C   UNL     1      -8.054  10.193  63.449  1.00  0.00    -0.161 C  
ENDBRANCH  15  22
ENDBRANCH  10  12
ENDBRANCH   5   6
ENDBRANCH   4   5
TORSDOF 4
ENDMDL
MODEL      236
REMARK 921   NORMALIZED FREE ENERGY PREDICTED BY IDOCK:   -2.99 KCAL/MOL
REMARK 922        TOTAL FREE ENERGY PREDICTED BY IDOCK:   -4.57 KCAL/MOL
REMARK 923 INTER-LIGAND FREE ENERGY PREDICTED BY IDOCK:   -3.31 KCAL/MOL
REMARK 924 INTRA-LIGAND FREE ENERGY PREDICTED BY IDOCK:   -1.26 KCAL/MOL
REMARK 927      BINDING AFFINITY PREDICTED BY RF-SCORE:    0.00 PKD
ROOT
HETATM    1  O   UNL     1      -5.982   3.577  70.931  1.00  0.00    -0.013 OA 
HETATM    2  C   UNL     1      -6.495   3.468  72.181  1.00  0.00    -0.015 C  
HETATM    3  O   UNL     1      -7.000   2.433  72.576  1.00  0.00    -0.022 OA 
HETATM    4  C   UNL     1      -6.316   4.698  73.056  1.00  0.00    -0.037 C  
ENDROOT
BRANCH   4   5
HETATM    5  S   UNL     1      -6.184   6.246  72.071  1.00  0.00    -0.043 SA 
BRANCH   5   6
HETATM    6  C   UNL     1      -7.671   7.015  72.542  1.00  0.00    -0.093 A  
HETATM    7  N   UNL     1      -7.844   7.454  73.768  1.00  0.00    -0.108 NA 
HETATM    8  N   UNL     1      -9.135   7.865  73.887  1.00  0.00    -0.250 NA 
HETATM    9  C   UNL     1      -9.730   7.656  72.732  1.00  0.00    -0.205 A  
HETATM   10  N   UNL     1      -8.792   7.309  71.758  1.00  0.00    -0.117 NA 
HETATM   11 BR   UNL     1     -11.608   7.579  72.645  1.00  0.00    -0.297 Br 
BRANCH  10  12
HETATM   12  C   UNL     1      -9.025   7.173  70.342  1.00  0.00    -0.155 A  
HETATM   13  C   UNL     1      -9.016   8.322  69.549  1.00  0.00    -0.150 A  
HETATM   14  C   UNL     1      -9.075   8.229  68.160  1.00  0.00    -0.134 A  
HETATM   15  C   UNL     1      -9.090   6.997  67.491  1.00  0.00    -0.122 A  
HETATM   16  C   UNL     1      -9.250   4.548  67.659  1.00  0.00    -0.160 A  
HETATM   17  C   UNL     1      -9.173   5.818  68.278  1.00  0.00    -0.119 A  
HETATM   18  C   UNL     1      -9.369   3.367  68.388  1.00  0.00    -0.238 A  
HETATM   19  C   UNL     1      -9.199   5.892  69.709  1.00  0.00    -0.160 A  
HETATM   20  C   UNL     1      -9.449   4.674  70.401  1.00  0.00    -0.241 A  
HETATM   21  C   UNL     1      -9.495   3.432  69.760  1.00  0.00    -0.229 A  
BRANCH  15  22
HETATM   22  C   UNL     1      -9.072   7.027  65.966  1.00  0.00    -0.105 C  
HETATM   23  C   UNL     1      -8.497   8.256  65.283  1.00  0.00    -0.179 C  
HETATM   24  C   UNL     1      -7.802   6.943  65.156  1.00  0.00    -0.120 C  
ENDBRANCH  15  22
ENDBRANCH  10  12
ENDBRANCH   5   6
ENDBRANCH   4   5
TORSDOF 4
ENDMDL
MODEL      237
REMARK 921   NORMALIZED FREE ENERGY PREDICTED BY IDOCK:   -2.93 KCAL/MOL
REMARK 922        TOTAL FREE ENERGY PREDICTED BY IDOCK:   -4.50 KCAL/MOL
REMARK 923 INTER-LIGAND FREE ENERGY PREDICTED BY IDOCK:   -3.90 KCAL/MOL
REMARK 924 INTRA-LIGAND FREE ENERGY PREDICTED BY IDOCK:   -0.60 KCAL/MOL
REMARK 927      BINDING AFFINITY PREDICTED BY RF-SCORE:    0.00 PKD
ROOT
HETATM    1  O   UNL     1     -12.058  13.998  72.158  1.00  0.00    -0.036 OA 
HETATM    2  C   UNL     1     -12.401  14.861  71.170  1.00  0.00    -0.324 C  
HETATM    3  O   UNL     1     -13.272  15.698  71.327  1.00  0.00    -0.494 OA 
HETATM    4  C   UNL     1     -11.566  14.749  69.905  1.00  0.00    -0.286 C  
ENDROOT
BRANCH   4   5
HETATM    5  S   UNL     1     -10.862  13.067  69.675  1.00  0.00     0.480 SA 
BRANCH   5   6
HETATM    6  C   UNL     1     -10.553  13.114  67.964  1.00  0.00    -0.236 A  
HETATM    7  N   UNL     1     -11.107  14.033  67.205  1.00  0.00    -0.296 NA 
HETATM    8  N   UNL     1     -10.812  13.737  65.911  1.00  0.00    -0.281 NA 
HETATM    9  C   UNL     1     -10.093  12.636  65.904  1.00  0.00    -0.264 A  
HETATM   10  N   UNL     1      -9.709  12.298  67.203  1.00  0.00    -0.199 NA 
HETATM   11 BR   UNL     1      -9.951  11.618  64.327  1.00  0.00    -0.304 Br 
BRANCH  10  12
HETATM   12  C   UNL     1      -8.779  11.268  67.590  1.00  0.00    -0.131 A  
HETATM   13  C   UNL     1      -7.543  11.645  68.120  1.00  0.00    -0.115 A  
HETATM   14  C   UNL     1      -6.678  10.694  68.655  1.00  0.00    -0.057 A  
HETATM   15  C   UNL     1      -7.017   9.336  68.743  1.00  0.00    -0.061 A  
HETATM   16  C   UNL     1      -8.605   7.553  68.151  1.00  0.00    -0.123 A  
HETATM   17  C   UNL     1      -8.236   8.920  68.146  1.00  0.00    -0.114 A  
HETATM   18  C   UNL     1      -9.771   7.092  67.547  1.00  0.00    -0.176 A  
HETATM   19  C   UNL     1      -9.104   9.868  67.514  1.00  0.00    -0.145 A  
HETATM   20  C   UNL     1     -10.215   9.332  66.803  1.00  0.00    -0.325 A  
HETATM   21  C   UNL     1     -10.565   7.979  66.850  1.00  0.00    -0.324 A  
BRANCH  15  22
HETATM   22  C   UNL     1      -6.018   8.408  69.426  1.00  0.00    -0.037 C  
HETATM   23  C   UNL     1      -5.213   8.956  70.591  1.00  0.00    -0.020 C  
HETATM   24  C   UNL     1      -6.213   7.875  70.824  1.00  0.00    -0.034 C  
ENDBRANCH  15  22
ENDBRANCH  10  12
ENDBRANCH   5   6
ENDBRANCH   4   5
TORSDOF 4
ENDMDL
MODEL      238
REMARK 921   NORMALIZED FREE ENERGY PREDICTED BY IDOCK:   -2.89 KCAL/MOL
REMARK 922        TOTAL FREE ENERGY PREDICTED BY IDOCK:   -4.44 KCAL/MOL
REMARK 923 INTER-LIGAND FREE ENERGY PREDICTED BY IDOCK:   -3.48 KCAL/MOL
REMARK 924 INTRA-LIGAND FREE ENERGY PREDICTED BY IDOCK:   -0.97 KCAL/MOL
REMARK 927      BINDING AFFINITY PREDICTED BY RF-SCORE:    0.00 PKD
ROOT
HETATM    1  O   UNL     1     -10.684  10.950  65.132  1.00  0.00    -0.240 OA 
HETATM    2  C   UNL     1      -9.948  10.390  64.141  1.00  0.00    -0.267 C  
HETATM    3  O   UNL     1     -10.140  10.666  62.970  1.00  0.00    -0.280 OA 
HETATM    4  C   UNL     1      -8.833   9.472  64.612  1.00  0.00    -0.213 C  
ENDROOT
BRANCH   4   5
HETATM    5  S   UNL     1      -9.190   8.719  66.251  1.00  0.00    -0.223 SA 
BRANCH   5   6
HETATM    6  C   UNL     1      -8.169   7.314  66.153  1.00  0.00    -0.131 A  
HETATM    7  N   UNL     1      -7.863   6.784  64.990  1.00  0.00    -0.111 NA 
HETATM    8  N   UNL     1      -7.188   5.627  65.223  1.00  0.00    -0.065 NA 
HETATM    9  C   UNL     1      -7.105   5.467  66.526  1.00  0.00    -0.069 A  
HETATM   10  N   UNL     1      -7.528   6.622  67.186  1.00  0.00    -0.086 NA 
HETATM   11 BR   UNL     1      -6.741   3.764  67.240  1.00  0.00    -0.047 Br 
BRANCH  10  12
HETATM   12  C   UNL     1      -7.424   6.901  68.596  1.00  0.00    -0.099 A  
HETATM   13  C   UNL     1      -6.341   7.655  69.051  1.00  0.00    -0.036 A  
HETATM   14  C   UNL     1      -6.280   8.086  70.374  1.00  0.00    -0.036 A  
HETATM   15  C   UNL     1      -7.310   7.839  71.292  1.00  0.00    -0.066 A  
HETATM   16  C   UNL     1      -9.426   6.679  71.772  1.00  0.00    -0.151 A  
HETATM   17  C   UNL     1      -8.386   7.013  70.872  1.00  0.00    -0.129 A  
HETATM   18  C   UNL     1     -10.481   5.844  71.417  1.00  0.00    -0.291 A  
HETATM   19  C   UNL     1      -8.429   6.487  69.540  1.00  0.00    -0.131 A  
HETATM   20  C   UNL     1      -9.456   5.540  69.267  1.00  0.00    -0.171 A  
HETATM   21  C   UNL     1     -10.483   5.252  70.171  1.00  0.00    -0.338 A  
BRANCH  15  22
HETATM   22  C   UNL     1      -7.162   8.435  72.689  1.00  0.00    -0.114 C  
HETATM   23  C   UNL     1      -6.621   7.542  73.792  1.00  0.00    -0.081 C  
HETATM   24  C   UNL     1      -5.824   8.713  73.327  1.00  0.00    -0.101 C  
ENDBRANCH  15  22
ENDBRANCH  10  12
ENDBRANCH   5   6
ENDBRANCH   4   5
TORSDOF 4
ENDMDL
MODEL      239
REMARK 921   NORMALIZED FREE ENERGY PREDICTED BY IDOCK:   -2.89 KCAL/MOL
REMARK 922        TOTAL FREE ENERGY PREDICTED BY IDOCK:   -4.44 KCAL/MOL
REMARK 923 INTER-LIGAND FREE ENERGY PREDICTED BY IDOCK:   -3.64 KCAL/MOL
REMARK 924 INTRA-LIGAND FREE ENERGY PREDICTED BY IDOCK:   -0.80 KCAL/MOL
REMARK 927      BINDING AFFINITY PREDICTED BY RF-SCORE:    0.00 PKD
ROOT
HETATM    1  O   UNL     1      -9.641   3.699  69.205  1.00  0.00    -0.182 OA 
HETATM    2  C   UNL     1      -8.515   4.412  68.959  1.00  0.00    -0.082 C  
HETATM    3  O   UNL     1      -7.510   4.274  69.633  1.00  0.00    -0.053 OA 
HETATM    4  C   UNL     1      -8.588   5.321  67.743  1.00  0.00    -0.104 C  
ENDROOT
BRANCH   4   5
HETATM    5  S   UNL     1     -10.308   5.847  67.362  1.00  0.00    -0.251 SA 
BRANCH   5   6
HETATM    6  C   UNL     1     -10.121   7.571  67.503  1.00  0.00    -0.200 A  
HETATM    7  N   UNL     1     -10.612   8.379  66.590  1.00  0.00    -0.181 NA 
HETATM    8  N   UNL     1     -10.190   9.639  66.878  1.00  0.00    -0.230 NA 
HETATM    9  C   UNL     1      -9.439   9.574  67.956  1.00  0.00    -0.132 A  
HETATM   10  N   UNL     1      -9.525   8.306  68.533  1.00  0.00    -0.146 NA 
HETATM   11 BR   UNL     1      -8.247  10.975  68.353  1.00  0.00    -0.143 Br 
BRANCH  10  12
HETATM   12  C   UNL     1      -8.991   7.898  69.808  1.00  0.00    -0.146 A  
HETATM   13  C   UNL     1      -7.619   8.028  70.033  1.00  0.00    -0.082 A  
HETATM   14  C   UNL     1      -7.081   7.800  71.297  1.00  0.00    -0.057 A  
HETATM   15  C   UNL     1      -7.878   7.488  72.407  1.00  0.00    -0.112 A  
HETATM   16  C   UNL     1     -10.111   6.905  73.258  1.00  0.00    -0.260 A  
HETATM   17  C   UNL     1      -9.265   7.280  72.187  1.00  0.00    -0.151 A  
HETATM   18  C   UNL     1     -11.470   6.655  73.085  1.00  0.00     0.111 A  
HETATM   19  C   UNL     1      -9.830   7.426  70.879  1.00  0.00    -0.177 A  
HETATM   20  C   UNL     1     -11.190   7.036  70.730  1.00  0.00    -0.323 A  
HETATM   21  C   UNL     1     -12.005   6.696  71.814  1.00  0.00    -0.391 A  
BRANCH  15  22
HETATM   22  C   UNL     1      -7.177   7.343  73.754  1.00  0.00    -0.103 C  
HETATM   23  C   UNL     1      -5.701   7.692  73.833  1.00  0.00    -0.056 C  
HETATM   24  C   UNL     1      -6.700   8.523  74.565  1.00  0.00    -0.193 C  
ENDBRANCH  15  22
ENDBRANCH  10  12
ENDBRANCH   5   6
ENDBRANCH   4   5
TORSDOF 4
ENDMDL
MODEL      240
REMARK 921   NORMALIZED FREE ENERGY PREDICTED BY IDOCK:   -2.88 KCAL/MOL
REMARK 922        TOTAL FREE ENERGY PREDICTED BY IDOCK:   -4.44 KCAL/MOL
REMARK 923 INTER-LIGAND FREE ENERGY PREDICTED BY IDOCK:   -3.26 KCAL/MOL
REMARK 924 INTRA-LIGAND FREE ENERGY PREDICTED BY IDOCK:   -1.18 KCAL/MOL
REMARK 927      BINDING AFFINITY PREDICTED BY RF-SCORE:    0.00 PKD
ROOT
HETATM    1  O   UNL     1     -10.427  11.042  65.780  1.00  0.00    -0.249 OA 
HETATM    2  C   UNL     1      -9.653  11.694  66.682  1.00  0.00    -0.204 C  
HETATM    3  O   UNL     1      -8.760  12.445  66.332  1.00  0.00    -0.119 OA 
HETATM    4  C   UNL     1     -10.039  11.473  68.135  1.00  0.00    -0.193 C  
ENDROOT
BRANCH   4   5
HETATM    5  S   UNL     1     -10.884   9.862  68.399  1.00  0.00    -0.192 SA 
BRANCH   5   6
HETATM    6  C   UNL     1      -9.597   8.984  69.173  1.00  0.00    -0.161 A  
HETATM    7  N   UNL     1      -9.529   8.904  70.483  1.00  0.00    -0.188 NA 
HETATM    8  N   UNL     1      -8.356   8.297  70.804  1.00  0.00    -0.117 NA 
HETATM    9  C   UNL     1      -7.724   8.027  69.682  1.00  0.00    -0.102 A  
HETATM   10  N   UNL     1      -8.560   8.251  68.587  1.00  0.00    -0.132 NA 
HETATM   11 BR   UNL     1      -5.872   7.695  69.706  1.00  0.00    -0.023 Br 
BRANCH  10  12
HETATM   12  C   UNL     1      -8.296   7.909  67.212  1.00  0.00    -0.122 A  
HETATM   13  C   UNL     1      -7.398   8.694  66.487  1.00  0.00    -0.081 A  
HETATM   14  C   UNL     1      -6.988   8.313  65.212  1.00  0.00    -0.066 A  
HETATM   15  C   UNL     1      -7.402   7.113  64.618  1.00  0.00    -0.079 A  
HETATM   16  C   UNL     1      -8.871   5.143  64.730  1.00  0.00    -0.100 A  
HETATM   17  C   UNL     1      -8.370   6.335  65.306  1.00  0.00    -0.138 A  
HETATM   18  C   UNL     1      -9.847   4.367  65.349  1.00  0.00    -0.220 A  
HETATM   19  C   UNL     1      -8.871   6.750  66.582  1.00  0.00    -0.142 A  
HETATM   20  C   UNL     1      -9.955   5.994  67.112  1.00  0.00    -0.186 A  
HETATM   21  C   UNL     1     -10.408   4.806  66.530  1.00  0.00    -0.284 A  
BRANCH  15  22
HETATM   22  C   UNL     1      -6.818   6.769  63.251  1.00  0.00    -0.047 C  
HETATM   23  C   UNL     1      -6.212   7.894  62.430  1.00  0.00    -0.077 C  
HETATM   24  C   UNL     1      -5.339   6.806  62.956  1.00  0.00    -0.031 C  
ENDBRANCH  15  22
ENDBRANCH  10  12
ENDBRANCH   5   6
ENDBRANCH   4   5
TORSDOF 4
ENDMDL
MODEL      241
REMARK 921   NORMALIZED FREE ENERGY PREDICTED BY IDOCK:   -2.87 KCAL/MOL
REMARK 922        TOTAL FREE ENERGY PREDICTED BY IDOCK:   -4.43 KCAL/MOL
REMARK 923 INTER-LIGAND FREE ENERGY PREDICTED BY IDOCK:   -3.38 KCAL/MOL
REMARK 924 INTRA-LIGAND FREE ENERGY PREDICTED BY IDOCK:   -1.05 KCAL/MOL
REMARK 927      BINDING AFFINITY PREDICTED BY RF-SCORE:    0.00 PKD
ROOT
HETATM    1  O   UNL     1      -6.859   5.478  68.605  1.00  0.00    -0.055 OA 
HETATM    2  C   UNL     1      -6.551   6.340  69.605  1.00  0.00    -0.047 C  
HETATM    3  O   UNL     1      -5.678   6.090  70.417  1.00  0.00    -0.013 OA 
HETATM    4  C   UNL     1      -7.318   7.651  69.578  1.00  0.00    -0.086 C  
ENDROOT
BRANCH   4   5
HETATM    5  S   UNL     1      -8.953   7.491  68.753  1.00  0.00    -0.128 SA 
BRANCH   5   6
HETATM    6  C   UNL     1      -8.524   8.023  67.154  1.00  0.00    -0.124 A  
HETATM    7  N   UNL     1      -8.511   7.182  66.145  1.00  0.00    -0.136 NA 
HETATM    8  N   UNL     1      -7.999   7.832  65.066  1.00  0.00    -0.128 NA 
HETATM    9  C   UNL     1      -7.698   9.057  65.442  1.00  0.00    -0.095 A  
HETATM   10  N   UNL     1      -8.206   9.313  66.716  1.00  0.00    -0.115 NA 
HETATM   11 BR   UNL     1      -6.492  10.080  64.422  1.00  0.00    -0.125 Br 
BRANCH  10  12
HETATM   12  C   UNL     1      -8.236  10.584  67.396  1.00  0.00    -0.118 A  
HETATM   13  C   UNL     1      -7.129  10.961  68.159  1.00  0.00    -0.077 A  
HETATM   14  C   UNL     1      -7.042  12.241  68.701  1.00  0.00    -0.103 A  
HETATM   15  C   UNL     1      -8.016  13.222  68.469  1.00  0.00    -0.097 A  
HETATM   16  C   UNL     1     -10.229  13.769  67.543  1.00  0.00    -0.241 A  
HETATM   17  C   UNL     1      -9.184  12.839  67.758  1.00  0.00    -0.199 A  
HETATM   18  C   UNL     1     -11.407  13.430  66.884  1.00  0.00    -0.351 A  
HETATM   19  C   UNL     1      -9.335  11.503  67.262  1.00  0.00    -0.170 A  
HETATM   20  C   UNL     1     -10.605  11.174  66.711  1.00  0.00    -0.311 A  
HETATM   21  C   UNL     1     -11.606  12.123  66.489  1.00  0.00    -0.425 A  
BRANCH  15  22
HETATM   22  C   UNL     1      -7.766  14.610  69.051  1.00  0.00    -0.134 C  
HETATM   23  C   UNL     1      -6.907  14.717  70.299  1.00  0.00     0.011 C  
HETATM   24  C   UNL     1      -6.418  15.288  69.010  1.00  0.00    -0.111 C  
ENDBRANCH  15  22
ENDBRANCH  10  12
ENDBRANCH   5   6
ENDBRANCH   4   5
TORSDOF 4
ENDMDL
MODEL      242
REMARK 921   NORMALIZED FREE ENERGY PREDICTED BY IDOCK:   -2.84 KCAL/MOL
REMARK 922        TOTAL FREE ENERGY PREDICTED BY IDOCK:   -4.38 KCAL/MOL
REMARK 923 INTER-LIGAND FREE ENERGY PREDICTED BY IDOCK:   -3.55 KCAL/MOL
REMARK 924 INTRA-LIGAND FREE ENERGY PREDICTED BY IDOCK:   -0.84 KCAL/MOL
REMARK 927      BINDING AFFINITY PREDICTED BY RF-SCORE:    0.00 PKD
ROOT
HETATM    1  O   UNL     1      -9.055  11.046  65.700  1.00  0.00    -0.198 OA 
HETATM    2  C   UNL     1      -9.251  11.829  66.788  1.00  0.00    -0.194 C  
HETATM    3  O   UNL     1      -8.644  12.874  66.940  1.00  0.00    -0.195 OA 
HETATM    4  C   UNL     1     -10.329  11.341  67.742  1.00  0.00    -0.182 C  
ENDROOT
BRANCH   4   5
HETATM    5  S   UNL     1     -10.562   9.519  67.664  1.00  0.00    -0.242 SA 
BRANCH   5   6
HETATM    6  C   UNL     1     -10.133   9.103  69.297  1.00  0.00    -0.194 A  
HETATM    7  N   UNL     1     -10.688   9.718  70.318  1.00  0.00    -0.279 NA 
HETATM    8  N   UNL     1     -10.060   9.300  71.449  1.00  0.00    -0.310 NA 
HETATM    9  C   UNL     1      -9.124   8.446  71.096  1.00  0.00    -0.174 A  
HETATM   10  N   UNL     1      -9.254   8.111  69.747  1.00  0.00    -0.151 NA 
HETATM   11 BR   UNL     1      -7.708   8.066  72.276  1.00  0.00    -0.156 Br 
BRANCH  10  12
HETATM   12  C   UNL     1      -8.535   7.084  69.036  1.00  0.00    -0.129 A  
HETATM   13  C   UNL     1      -7.575   7.467  68.098  1.00  0.00    -0.114 A  
HETATM   14  C   UNL     1      -6.743   6.520  67.504  1.00  0.00    -0.067 A  
HETATM   15  C   UNL     1      -6.784   5.162  67.852  1.00  0.00    -0.055 A  
HETATM   16  C   UNL     1      -7.929   3.373  69.092  1.00  0.00    -0.057 A  
HETATM   17  C   UNL     1      -7.800   4.740  68.750  1.00  0.00    -0.076 A  
HETATM   18  C   UNL     1      -8.931   2.907  69.939  1.00  0.00    -0.171 A  
HETATM   19  C   UNL     1      -8.722   5.684  69.309  1.00  0.00    -0.108 A  
HETATM   20  C   UNL     1      -9.801   5.142  70.063  1.00  0.00    -0.295 A  
HETATM   21  C   UNL     1      -9.884   3.789  70.405  1.00  0.00    -0.135 A  
BRANCH  15  22
HETATM   22  C   UNL     1      -5.766   4.239  67.191  1.00  0.00    -0.022 C  
HETATM   23  C   UNL     1      -6.222   3.402  66.008  1.00  0.00    -0.031 C  
HETATM   24  C   UNL     1      -5.212   4.480  65.808  1.00  0.00    -0.009 C  
ENDBRANCH  15  22
ENDBRANCH  10  12
ENDBRANCH   5   6
ENDBRANCH   4   5
TORSDOF 4
ENDMDL
MODEL      243
REMARK 921   NORMALIZED FREE ENERGY PREDICTED BY IDOCK:   -2.83 KCAL/MOL
REMARK 922        TOTAL FREE ENERGY PREDICTED BY IDOCK:   -4.37 KCAL/MOL
REMARK 923 INTER-LIGAND FREE ENERGY PREDICTED BY IDOCK:   -6.90 KCAL/MOL
REMARK 924 INTRA-LIGAND FREE ENERGY PREDICTED BY IDOCK:    2.54 KCAL/MOL
REMARK 927      BINDING AFFINITY PREDICTED BY RF-SCORE:    0.00 PKD
ROOT
HETATM    1  O   UNL     1     -13.786  13.590  72.990  1.00  0.00    -0.513 OA 
HETATM    2  C   UNL     1     -13.643  14.847  72.502  1.00  0.00    -0.458 C  
HETATM    3  O   UNL     1     -14.064  15.817  73.106  1.00  0.00    -0.365 OA 
HETATM    4  C   UNL     1     -12.859  14.945  71.204  1.00  0.00    -0.359 C  
ENDROOT
BRANCH   4   5
HETATM    5  S   UNL     1     -12.955  13.402  70.208  1.00  0.00     0.423 SA 
BRANCH   5   6
HETATM    6  C   UNL     1     -11.920  13.849  68.883  1.00  0.00    -0.358 A  
HETATM    7  N   UNL     1     -11.667  15.112  68.622  1.00  0.00    -0.347 NA 
HETATM    8  N   UNL     1     -10.965  15.165  67.459  1.00  0.00    -0.302 NA 
HETATM    9  C   UNL     1     -10.813  13.932  67.025  1.00  0.00    -0.285 A  
HETATM   10  N   UNL     1     -11.219  13.020  68.001  1.00  0.00    -0.262 NA 
HETATM   11 BR   UNL     1     -10.389  13.620  65.219  1.00  0.00    -0.361 Br 
BRANCH  10  12
HETATM   12  C   UNL     1     -11.046  11.590  67.973  1.00  0.00    -0.254 A  
HETATM   13  C   UNL     1     -10.563  10.996  66.806  1.00  0.00    -0.317 A  
HETATM   14  C   UNL     1     -10.228   9.644  66.781  1.00  0.00    -0.308 A  
HETATM   15  C   UNL     1     -10.302   8.832  67.922  1.00  0.00    -0.281 A  
HETATM   16  C   UNL     1     -11.013   8.609  70.266  1.00  0.00    -0.251 A  
HETATM   17  C   UNL     1     -10.858   9.396  69.100  1.00  0.00    -0.176 A  
HETATM   18  C   UNL     1     -11.586   9.107  71.433  1.00  0.00    -0.411 A  
HETATM   19  C   UNL     1     -11.289  10.762  69.126  1.00  0.00    -0.348 A  
HETATM   20  C   UNL     1     -11.982  11.184  70.295  1.00  0.00    -0.460 A  
HETATM   21  C   UNL     1     -12.094  10.389  71.440  1.00  0.00    -0.424 A  
BRANCH  15  22
HETATM   22  C   UNL     1      -9.829   7.388  67.786  1.00  0.00    -0.187 C  
HETATM   23  C   UNL     1      -9.373   6.912  66.417  1.00  0.00    -0.183 C  
HETATM   24  C   UNL     1      -8.389   7.015  67.533  1.00  0.00    -0.119 C  
ENDBRANCH  15  22
ENDBRANCH  10  12
ENDBRANCH   5   6
ENDBRANCH   4   5
TORSDOF 4
ENDMDL
MODEL      244
REMARK 921   NORMALIZED FREE ENERGY PREDICTED BY IDOCK:   -2.80 KCAL/MOL
REMARK 922        TOTAL FREE ENERGY PREDICTED BY IDOCK:   -4.33 KCAL/MOL
REMARK 923 INTER-LIGAND FREE ENERGY PREDICTED BY IDOCK:   -3.82 KCAL/MOL
REMARK 924 INTRA-LIGAND FREE ENERGY PREDICTED BY IDOCK:   -0.51 KCAL/MOL
REMARK 927      BINDING AFFINITY PREDICTED BY RF-SCORE:    0.00 PKD
ROOT
HETATM    1  O   UNL     1     -11.597   7.543  71.001  1.00  0.00    -0.274 OA 
HETATM    2  C   UNL     1     -10.591   8.108  71.712  1.00  0.00    -0.250 C  
HETATM    3  O   UNL     1     -10.328   7.746  72.845  1.00  0.00    -0.277 OA 
HETATM    4  C   UNL     1      -9.784   9.153  70.959  1.00  0.00    -0.289 C  
ENDROOT
BRANCH   4   5
HETATM    5  S   UNL     1     -10.758   9.966  69.629  1.00  0.00    -0.268 SA 
BRANCH   5   6
HETATM    6  C   UNL     1      -9.457  10.533  68.623  1.00  0.00    -0.172 A  
HETATM    7  N   UNL     1      -9.345  11.808  68.321  1.00  0.00    -0.189 NA 
HETATM    8  N   UNL     1      -8.341  11.934  67.413  1.00  0.00    -0.155 NA 
HETATM    9  C   UNL     1      -7.866  10.732  67.169  1.00  0.00    -0.124 A  
HETATM   10  N   UNL     1      -8.395   9.808  68.072  1.00  0.00    -0.110 NA 
HETATM   11 BR   UNL     1      -6.868  10.418  65.605  1.00  0.00    -0.116 Br 
BRANCH  10  12
HETATM   12  C   UNL     1      -7.992   8.435  68.240  1.00  0.00    -0.119 A  
HETATM   13  C   UNL     1      -6.804   8.164  68.922  1.00  0.00    -0.061 A  
HETATM   14  C   UNL     1      -6.454   6.857  69.250  1.00  0.00    -0.043 A  
HETATM   15  C   UNL     1      -7.286   5.764  68.970  1.00  0.00    -0.083 A  
HETATM   16  C   UNL     1      -9.314   4.936  67.850  1.00  0.00    -0.155 A  
HETATM   17  C   UNL     1      -8.464   6.007  68.215  1.00  0.00    -0.112 A  
HETATM   18  C   UNL     1     -10.459   5.120  67.080  1.00  0.00    -0.224 A  
HETATM   19  C   UNL     1      -8.803   7.333  67.792  1.00  0.00    -0.124 A  
HETATM   20  C   UNL     1      -9.909   7.450  66.903  1.00  0.00    -0.284 A  
HETATM   21  C   UNL     1     -10.743   6.375  66.584  1.00  0.00    -0.271 A  
BRANCH  15  22
HETATM   22  C   UNL     1      -6.828   4.392  69.454  1.00  0.00    -0.046 C  
HETATM   23  C   UNL     1      -6.898   4.100  70.942  1.00  0.00    -0.032 C  
HETATM   24  C   UNL     1      -7.777   3.353  69.998  1.00  0.00    -0.044 C  
ENDBRANCH  15  22
ENDBRANCH  10  12
ENDBRANCH   5   6
ENDBRANCH   4   5
TORSDOF 4
ENDMDL
MODEL      245
REMARK 921   NORMALIZED FREE ENERGY PREDICTED BY IDOCK:   -2.79 KCAL/MOL
REMARK 922        TOTAL FREE ENERGY PREDICTED BY IDOCK:   -4.33 KCAL/MOL
REMARK 923 INTER-LIGAND FREE ENERGY PREDICTED BY IDOCK:   -4.39 KCAL/MOL
REMARK 924 INTRA-LIGAND FREE ENERGY PREDICTED BY IDOCK:    0.06 KCAL/MOL
REMARK 927      BINDING AFFINITY PREDICTED BY RF-SCORE:    0.00 PKD
ROOT
HETATM    1  O   UNL     1     -12.540  13.828  63.193  1.00  0.00    -0.793 OA 
HETATM    2  C   UNL     1     -11.606  13.007  63.732  1.00  0.00    -0.457 C  
HETATM    3  O   UNL     1     -11.131  12.079  63.102  1.00  0.00    -0.329 OA 
HETATM    4  C   UNL     1     -11.154  13.385  65.133  1.00  0.00    -0.301 C  
ENDROOT
BRANCH   4   5
HETATM    5  S   UNL     1     -12.442  14.314  66.059  1.00  0.00    -0.265 SA 
BRANCH   5   6
HETATM    6  C   UNL     1     -11.543  14.701  67.496  1.00  0.00    -0.375 A  
HETATM    7  N   UNL     1     -11.945  15.654  68.306  1.00  0.00    -0.140 NA 
HETATM    8  N   UNL     1     -10.982  15.834  69.249  1.00  0.00    -0.259 NA 
HETATM    9  C   UNL     1     -10.004  14.994  68.989  1.00  0.00    -0.246 A  
HETATM   10  N   UNL     1     -10.391  14.087  68.001  1.00  0.00    -0.235 NA 
HETATM   11 BR   UNL     1      -8.292  15.296  69.710  1.00  0.00     0.171 Br 
BRANCH  10  12
HETATM   12  C   UNL     1      -9.670  12.916  67.570  1.00  0.00    -0.205 A  
HETATM   13  C   UNL     1      -8.458  13.086  66.897  1.00  0.00    -0.087 A  
HETATM   14  C   UNL     1      -7.648  11.992  66.604  1.00  0.00     0.095 A  
HETATM   15  C   UNL     1      -7.971  10.689  67.009  1.00  0.00    -0.121 A  
HETATM   16  C   UNL     1      -9.638   9.182  68.009  1.00  0.00    -0.165 A  
HETATM   17  C   UNL     1      -9.231  10.483  67.631  1.00  0.00    -0.153 A  
HETATM   18  C   UNL     1     -10.878   8.926  68.588  1.00  0.00    -0.036 A  
HETATM   19  C   UNL     1     -10.120  11.582  67.867  1.00  0.00    -0.202 A  
HETATM   20  C   UNL     1     -11.421  11.252  68.341  1.00  0.00    -0.377 A  
HETATM   21  C   UNL     1     -11.782   9.959  68.730  1.00  0.00     0.293 A  
BRANCH  15  22
HETATM   22  C   UNL     1      -6.962   9.588  66.699  1.00  0.00    -0.085 C  
HETATM   23  C   UNL     1      -6.501   9.426  65.261  1.00  0.00    -0.074 C  
HETATM   24  C   UNL     1      -5.533   9.869  66.304  1.00  0.00    -0.045 C  
ENDBRANCH  15  22
ENDBRANCH  10  12
ENDBRANCH   5   6
ENDBRANCH   4   5
TORSDOF 4
ENDMDL
MODEL      246
REMARK 921   NORMALIZED FREE ENERGY PREDICTED BY IDOCK:   -2.75 KCAL/MOL
REMARK 922        TOTAL FREE ENERGY PREDICTED BY IDOCK:   -4.27 KCAL/MOL
REMARK 923 INTER-LIGAND FREE ENERGY PREDICTED BY IDOCK:   -3.11 KCAL/MOL
REMARK 924 INTRA-LIGAND FREE ENERGY PREDICTED BY IDOCK:   -1.17 KCAL/MOL
REMARK 927      BINDING AFFINITY PREDICTED BY RF-SCORE:    0.00 PKD
ROOT
HETATM    1  O   UNL     1      -7.126   2.843  74.419  1.00  0.00    -0.039 OA 
HETATM    2  C   UNL     1      -6.433   3.905  73.940  1.00  0.00    -0.045 C  
HETATM    3  O   UNL     1      -5.273   4.104  74.252  1.00  0.00    -0.003 OA 
HETATM    4  C   UNL     1      -7.188   4.760  72.936  1.00  0.00    -0.080 C  
ENDROOT
BRANCH   4   5
HETATM    5  S   UNL     1      -9.010   4.673  73.169  1.00  0.00    -0.116 SA 
BRANCH   5   6
HETATM    6  C   UNL     1      -9.419   3.612  71.854  1.00  0.00    -0.136 A  
HETATM    7  N   UNL     1      -9.592   2.325  72.055  1.00  0.00    -0.110 NA 
HETATM    8  N   UNL     1      -9.751   1.731  70.842  1.00  0.00    -0.110 NA 
HETATM    9  C   UNL     1      -9.660   2.666  69.922  1.00  0.00    -0.002 A  
HETATM   10  N   UNL     1      -9.659   3.931  70.513  1.00  0.00    -0.182 NA 
HETATM   11 BR   UNL     1      -9.286   2.194  68.139  1.00  0.00    -0.250 Br 
BRANCH  10  12
HETATM   12  C   UNL     1      -9.747   5.201  69.838  1.00  0.00    -0.199 A  
HETATM   13  C   UNL     1     -10.998   5.809  69.715  1.00  0.00    -0.397 A  
HETATM   14  C   UNL     1     -11.114   7.104  69.217  1.00  0.00    -0.112 A  
HETATM   15  C   UNL     1      -9.997   7.878  68.870  1.00  0.00    -0.194 A  
HETATM   16  C   UNL     1      -7.563   7.966  68.524  1.00  0.00    -0.105 A  
HETATM   17  C   UNL     1      -8.721   7.256  68.918  1.00  0.00    -0.128 A  
HETATM   18  C   UNL     1      -6.297   7.388  68.519  1.00  0.00    -0.036 A  
HETATM   19  C   UNL     1      -8.586   5.895  69.347  1.00  0.00    -0.113 A  
HETATM   20  C   UNL     1      -7.295   5.313  69.203  1.00  0.00    -0.062 A  
HETATM   21  C   UNL     1      -6.166   6.051  68.835  1.00  0.00    -0.036 A  
BRANCH  15  22
HETATM   22  C   UNL     1     -10.251   9.311  68.415  1.00  0.00    -0.231 C  
HETATM   23  C   UNL     1     -11.334  10.105  69.125  1.00  0.00    -0.198 C  
HETATM   24  C   UNL     1      -9.906  10.515  69.257  1.00  0.00    -0.225 C  
ENDBRANCH  15  22
ENDBRANCH  10  12
ENDBRANCH   5   6
ENDBRANCH   4   5
TORSDOF 4
ENDMDL
MODEL      247
REMARK 921   NORMALIZED FREE ENERGY PREDICTED BY IDOCK:   -2.71 KCAL/MOL
REMARK 922        TOTAL FREE ENERGY PREDICTED BY IDOCK:   -4.22 KCAL/MOL
REMARK 923 INTER-LIGAND FREE ENERGY PREDICTED BY IDOCK:   -3.85 KCAL/MOL
REMARK 924 INTRA-LIGAND FREE ENERGY PREDICTED BY IDOCK:   -0.37 KCAL/MOL
REMARK 927      BINDING AFFINITY PREDICTED BY RF-SCORE:    0.00 PKD
ROOT
HETATM    1  O   UNL     1      -9.568  14.364  65.968  1.00  0.00    -0.302 OA 
HETATM    2  C   UNL     1     -10.892  14.185  66.199  1.00  0.00    -0.296 C  
HETATM    3  O   UNL     1     -11.719  15.008  65.848  1.00  0.00    -0.248 OA 
HETATM    4  C   UNL     1     -11.254  12.859  66.848  1.00  0.00    -0.291 C  
ENDROOT
BRANCH   4   5
HETATM    5  S   UNL     1      -9.877  12.171  67.853  1.00  0.00    -0.204 SA 
BRANCH   5   6
HETATM    6  C   UNL     1      -9.596  10.691  66.983  1.00  0.00    -0.169 A  
HETATM    7  N   UNL     1      -9.795  10.624  65.686  1.00  0.00    -0.236 NA 
HETATM    8  N   UNL     1      -9.644   9.327  65.307  1.00  0.00    -0.192 NA 
HETATM    9  C   UNL     1      -9.367   8.624  66.383  1.00  0.00    -0.211 A  
HETATM   10  N   UNL     1      -9.111   9.470  67.464  1.00  0.00    -0.130 NA 
HETATM   11 BR   UNL     1      -9.621   6.759  66.377  1.00  0.00    -0.098 Br 
BRANCH  10  12
HETATM   12  C   UNL     1      -8.605   9.091  68.759  1.00  0.00    -0.132 A  
HETATM   13  C   UNL     1      -9.263   9.559  69.898  1.00  0.00    -0.242 A  
HETATM   14  C   UNL     1      -8.914   9.094  71.163  1.00  0.00    -0.249 A  
HETATM   15  C   UNL     1      -7.939   8.105  71.357  1.00  0.00    -0.119 A  
HETATM   16  C   UNL     1      -6.171   6.714  70.361  1.00  0.00    -0.032 A  
HETATM   17  C   UNL     1      -7.207   7.667  70.221  1.00  0.00    -0.067 A  
HETATM   18  C   UNL     1      -5.403   6.282  69.283  1.00  0.00    -0.012 A  
HETATM   19  C   UNL     1      -7.491   8.194  68.919  1.00  0.00    -0.089 A  
HETATM   20  C   UNL     1      -6.598   7.818  67.877  1.00  0.00    -0.056 A  
HETATM   21  C   UNL     1      -5.600   6.854  68.043  1.00  0.00    -0.020 A  
BRANCH  15  22
HETATM   22  C   UNL     1      -7.705   7.620  72.784  1.00  0.00    -0.118 C  
HETATM   23  C   UNL     1      -6.707   8.380  73.641  1.00  0.00    -0.132 C  
HETATM   24  C   UNL     1      -8.155   8.393  73.999  1.00  0.00    -0.201 C  
ENDBRANCH  15  22
ENDBRANCH  10  12
ENDBRANCH   5   6
ENDBRANCH   4   5
TORSDOF 4
ENDMDL
MODEL      248
REMARK 921   NORMALIZED FREE ENERGY PREDICTED BY IDOCK:   -2.64 KCAL/MOL
REMARK 922        TOTAL FREE ENERGY PREDICTED BY IDOCK:   -4.14 KCAL/MOL
REMARK 923 INTER-LIGAND FREE ENERGY PREDICTED BY IDOCK:   -3.11 KCAL/MOL
REMARK 924 INTRA-LIGAND FREE ENERGY PREDICTED BY IDOCK:   -1.03 KCAL/MOL
REMARK 927      BINDING AFFINITY PREDICTED BY RF-SCORE:    0.00 PKD
ROOT
HETATM    1  O   UNL     1      -6.002  12.467  66.828  1.00  0.00    -0.213 OA 
HETATM    2  C   UNL     1      -7.217  12.314  67.408  1.00  0.00    -0.147 C  
HETATM    3  O   UNL     1      -8.106  13.133  67.254  1.00  0.00    -0.174 OA 
HETATM    4  C   UNL     1      -7.397  11.020  68.184  1.00  0.00    -0.086 C  
ENDROOT
BRANCH   4   5
HETATM    5  S   UNL     1      -5.805  10.354  68.817  1.00  0.00    -0.040 SA 
BRANCH   5   6
HETATM    6  C   UNL     1      -6.401   9.368  70.120  1.00  0.00    -0.058 A  
HETATM    7  N   UNL     1      -6.517   9.855  71.335  1.00  0.00    -0.318 NA 
HETATM    8  N   UNL     1      -6.858   8.832  72.163  1.00  0.00    -0.249 NA 
HETATM    9  C   UNL     1      -6.931   7.736  71.439  1.00  0.00    -0.053 A  
HETATM   10  N   UNL     1      -6.857   8.046  70.080  1.00  0.00    -0.041 NA 
HETATM   11 BR   UNL     1      -6.838   6.052  72.274  1.00  0.00    -0.075 Br 
BRANCH  10  12
HETATM   12  C   UNL     1      -7.074   7.147  68.974  1.00  0.00    -0.084 A  
HETATM   13  C   UNL     1      -6.047   6.275  68.608  1.00  0.00    -0.028 A  
HETATM   14  C   UNL     1      -6.262   5.282  67.657  1.00  0.00    -0.038 A  
HETATM   15  C   UNL     1      -7.515   5.068  67.065  1.00  0.00    -0.087 A  
HETATM   16  C   UNL     1      -9.824   5.858  66.757  1.00  0.00    -0.191 A  
HETATM   17  C   UNL     1      -8.555   5.987  67.368  1.00  0.00    -0.102 A  
HETATM   18  C   UNL     1     -10.862   6.755  66.994  1.00  0.00    -0.453 A  
HETATM   19  C   UNL     1      -8.333   7.069  68.281  1.00  0.00    -0.123 A  
HETATM   20  C   UNL     1      -9.380   8.027  68.390  1.00  0.00    -0.138 A  
HETATM   21  C   UNL     1     -10.631   7.856  67.793  1.00  0.00    -0.244 A  
BRANCH  15  22
HETATM   22  C   UNL     1      -7.643   3.895  66.098  1.00  0.00    -0.089 C  
HETATM   23  C   UNL     1      -6.460   3.577  65.201  1.00  0.00    -0.035 C  
HETATM   24  C   UNL     1      -6.870   2.609  66.258  1.00  0.00    -0.044 C  
ENDBRANCH  15  22
ENDBRANCH  10  12
ENDBRANCH   5   6
ENDBRANCH   4   5
TORSDOF 4
ENDMDL
MODEL      249
REMARK 921   NORMALIZED FREE ENERGY PREDICTED BY IDOCK:   -2.63 KCAL/MOL
REMARK 922        TOTAL FREE ENERGY PREDICTED BY IDOCK:   -4.13 KCAL/MOL
REMARK 923 INTER-LIGAND FREE ENERGY PREDICTED BY IDOCK:   -3.29 KCAL/MOL
REMARK 924 INTRA-LIGAND FREE ENERGY PREDICTED BY IDOCK:   -0.84 KCAL/MOL
REMARK 927      BINDING AFFINITY PREDICTED BY RF-SCORE:    0.00 PKD
ROOT
HETATM    1  O   UNL     1      -9.385   1.529  70.106  1.00  0.00    -0.091 OA 
HETATM    2  C   UNL     1      -8.165   2.118  70.063  1.00  0.00    -0.041 C  
HETATM    3  O   UNL     1      -7.429   2.135  71.033  1.00  0.00    -0.033 OA 
HETATM    4  C   UNL     1      -7.771   2.675  68.705  1.00  0.00    -0.054 C  
ENDROOT
BRANCH   4   5
HETATM    5  S   UNL     1      -9.230   3.131  67.683  1.00  0.00    -0.196 SA 
BRANCH   5   6
HETATM    6  C   UNL     1      -8.711   4.693  67.120  1.00  0.00    -0.104 A  
HETATM    7  N   UNL     1      -8.687   4.972  65.836  1.00  0.00    -0.127 NA 
HETATM    8  N   UNL     1      -8.105   6.191  65.685  1.00  0.00    -0.121 NA 
HETATM    9  C   UNL     1      -7.772   6.628  66.880  1.00  0.00    -0.106 A  
HETATM   10  N   UNL     1      -8.324   5.810  67.868  1.00  0.00    -0.104 NA 
HETATM   11 BR   UNL     1      -6.484   7.988  67.056  1.00  0.00    -0.057 Br 
BRANCH  10  12
HETATM   12  C   UNL     1      -8.334   6.054  69.288  1.00  0.00    -0.115 A  
HETATM   13  C   UNL     1      -7.114   6.129  69.963  1.00  0.00    -0.072 A  
HETATM   14  C   UNL     1      -7.062   6.521  71.298  1.00  0.00    -0.077 A  
HETATM   15  C   UNL     1      -8.205   6.910  72.011  1.00  0.00    -0.099 A  
HETATM   16  C   UNL     1     -10.658   7.093  72.055  1.00  0.00    -0.237 A  
HETATM   17  C   UNL     1      -9.464   6.773  71.367  1.00  0.00    -0.160 A  
HETATM   18  C   UNL     1     -11.916   6.941  71.479  1.00  0.00    -0.386 A  
HETATM   19  C   UNL     1      -9.549   6.291  70.021  1.00  0.00    -0.176 A  
HETATM   20  C   UNL     1     -10.858   6.033  69.524  1.00  0.00    -0.439 A  
HETATM   21  C   UNL     1     -12.018   6.385  70.221  1.00  0.00    -0.147 A  
BRANCH  15  22
HETATM   22  C   UNL     1      -8.007   7.397  73.443  1.00  0.00    -0.136 C  
HETATM   23  C   UNL     1      -8.109   6.378  74.564  1.00  0.00    -0.122 C  
HETATM   24  C   UNL     1      -6.802   7.034  74.275  1.00  0.00    -0.085 C  
ENDBRANCH  15  22
ENDBRANCH  10  12
ENDBRANCH   5   6
ENDBRANCH   4   5
TORSDOF 4
ENDMDL
MODEL      250
REMARK 921   NORMALIZED FREE ENERGY PREDICTED BY IDOCK:   -2.49 KCAL/MOL
REMARK 922        TOTAL FREE ENERGY PREDICTED BY IDOCK:   -3.95 KCAL/MOL
REMARK 923 INTER-LIGAND FREE ENERGY PREDICTED BY IDOCK:   -4.28 KCAL/MOL
REMARK 924 INTRA-LIGAND FREE ENERGY PREDICTED BY IDOCK:    0.33 KCAL/MOL
REMARK 927      BINDING AFFINITY PREDICTED BY RF-SCORE:    0.00 PKD
ROOT
HETATM    1  O   UNL     1      -6.071   3.732  70.384  1.00  0.00    -0.018 OA 
HETATM    2  C   UNL     1      -6.139   5.010  70.833  1.00  0.00    -0.018 C  
HETATM    3  O   UNL     1      -5.139   5.691  70.974  1.00  0.00    -0.008 OA 
HETATM    4  C   UNL     1      -7.547   5.534  71.062  1.00  0.00    -0.091 C  
ENDROOT
BRANCH   4   5
HETATM    5  S   UNL     1      -8.743   4.189  71.441  1.00  0.00    -0.109 SA 
BRANCH   5   6
HETATM    6  C   UNL     1      -9.460   3.989  69.869  1.00  0.00    -0.194 A  
HETATM    7  N   UNL     1      -9.401   2.834  69.244  1.00  0.00    -0.139 NA 
HETATM    8  N   UNL     1      -9.903   3.011  67.993  1.00  0.00     0.124 NA 
HETATM    9  C   UNL     1     -10.248   4.275  67.874  1.00  0.00     0.232 A  
HETATM   10  N   UNL     1     -10.187   4.915  69.113  1.00  0.00    -0.165 NA 
HETATM   11 BR   UNL     1     -10.467   5.030  66.164  1.00  0.00    -0.290 Br 
BRANCH  10  12
HETATM   12  C   UNL     1     -10.652   6.243  69.425  1.00  0.00    -0.271 A  
HETATM   13  C   UNL     1     -11.515   6.413  70.510  1.00  0.00    -0.444 A  
HETATM   14  C   UNL     1     -11.862   7.688  70.949  1.00  0.00    -0.272 A  
HETATM   15  C   UNL     1     -11.331   8.851  70.374  1.00  0.00    -0.229 A  
HETATM   16  C   UNL     1      -9.990   9.844  68.566  1.00  0.00    -0.175 A  
HETATM   17  C   UNL     1     -10.508   8.704  69.225  1.00  0.00    -0.226 A  
HETATM   18  C   UNL     1      -9.210   9.751  67.416  1.00  0.00    -0.151 A  
HETATM   19  C   UNL     1     -10.205   7.405  68.703  1.00  0.00    -0.203 A  
HETATM   20  C   UNL     1      -9.514   7.370  67.459  1.00  0.00    -0.162 A  
HETATM   21  C   UNL     1      -8.993   8.513  66.847  1.00  0.00    -0.166 A  
BRANCH  15  22
HETATM   22  C   UNL     1     -11.726  10.185  70.998  1.00  0.00    -0.470 C  
HETATM   23  C   UNL     1     -12.895  10.940  70.390  1.00  0.00    -0.257 C  
HETATM   24  C   UNL     1     -13.007  10.385  71.770  1.00  0.00    -0.580 C  
ENDBRANCH  15  22
ENDBRANCH  10  12
ENDBRANCH   5   6
ENDBRANCH   4   5
TORSDOF 4
ENDMDL
MODEL      251
REMARK 921   NORMALIZED FREE ENERGY PREDICTED BY IDOCK:   -2.47 KCAL/MOL
REMARK 922        TOTAL FREE ENERGY PREDICTED BY IDOCK:   -3.93 KCAL/MOL
REMARK 923 INTER-LIGAND FREE ENERGY PREDICTED BY IDOCK:   -4.25 KCAL/MOL
REMARK 924 INTRA-LIGAND FREE ENERGY PREDICTED BY IDOCK:    0.32 KCAL/MOL
REMARK 927      BINDING AFFINITY PREDICTED BY RF-SCORE:    0.00 PKD
ROOT
HETATM    1  O   UNL     1      -7.720   9.336  69.408  1.00  0.00    -0.076 OA 
HETATM    2  C   UNL     1      -7.348  10.468  68.763  1.00  0.00    -0.092 C  
HETATM    3  O   UNL     1      -6.949  11.447  69.369  1.00  0.00    -0.114 OA 
HETATM    4  C   UNL     1      -7.393  10.385  67.246  1.00  0.00    -0.090 C  
ENDROOT
BRANCH   4   5
HETATM    5  S   UNL     1      -8.618   9.152  66.647  1.00  0.00    -0.129 SA 
BRANCH   5   6
HETATM    6  C   UNL     1     -10.059   9.801  67.373  1.00  0.00    -0.208 A  
HETATM    7  N   UNL     1     -10.583  10.927  66.941  1.00  0.00    -0.250 NA 
HETATM    8  N   UNL     1     -11.599  11.263  67.779  1.00  0.00    -0.531 NA 
HETATM    9  C   UNL     1     -11.669  10.341  68.715  1.00  0.00     0.051 A  
HETATM   10  N   UNL     1     -10.846   9.260  68.395  1.00  0.00    -0.134 NA 
HETATM   11 BR   UNL     1     -12.556  10.713  70.333  1.00  0.00    -0.346 Br 
BRANCH  10  12
HETATM   12  C   UNL     1     -10.782   7.991  69.075  1.00  0.00    -0.088 A  
HETATM   13  C   UNL     1     -11.101   6.833  68.363  1.00  0.00    -0.214 A  
HETATM   14  C   UNL     1     -10.900   5.575  68.925  1.00  0.00    -0.132 A  
HETATM   15  C   UNL     1     -10.324   5.401  70.192  1.00  0.00    -0.361 A  
HETATM   16  C   UNL     1      -9.533   6.452  72.271  1.00  0.00    -0.149 A  
HETATM   17  C   UNL     1     -10.059   6.564  70.962  1.00  0.00    -0.208 A  
HETATM   18  C   UNL     1      -9.291   7.561  73.077  1.00  0.00    -0.242 A  
HETATM   19  C   UNL     1     -10.336   7.869  70.438  1.00  0.00    -0.212 A  
HETATM   20  C   UNL     1     -10.193   8.957  71.344  1.00  0.00    -0.375 A  
HETATM   21  C   UNL     1      -9.645   8.814  72.622  1.00  0.00    -0.021 A  
BRANCH  15  22
HETATM   22  C   UNL     1     -10.081   3.971  70.661  1.00  0.00    -0.018 C  
HETATM   23  C   UNL     1      -9.132   3.105  69.851  1.00  0.00    -0.196 C  
HETATM   24  C   UNL     1      -8.766   3.507  71.240  1.00  0.00    -0.121 C  
ENDBRANCH  15  22
ENDBRANCH  10  12
ENDBRANCH   5   6
ENDBRANCH   4   5
TORSDOF 4
ENDMDL
MODEL      252
REMARK 921   NORMALIZED FREE ENERGY PREDICTED BY IDOCK:   -2.38 KCAL/MOL
REMARK 922        TOTAL FREE ENERGY PREDICTED BY IDOCK:   -3.82 KCAL/MOL
REMARK 923 INTER-LIGAND FREE ENERGY PREDICTED BY IDOCK:   -2.51 KCAL/MOL
REMARK 924 INTRA-LIGAND FREE ENERGY PREDICTED BY IDOCK:   -1.31 KCAL/MOL
REMARK 927      BINDING AFFINITY PREDICTED BY RF-SCORE:    0.00 PKD
ROOT
HETATM    1  O   UNL     1     -10.030   8.539  67.369  1.00  0.00    -0.180 OA 
HETATM    2  C   UNL     1      -9.391   9.227  66.391  1.00  0.00    -0.192 C  
HETATM    3  O   UNL     1      -9.576  10.419  66.225  1.00  0.00    -0.169 OA 
HETATM    4  C   UNL     1      -8.385   8.417  65.591  1.00  0.00    -0.154 C  
ENDROOT
BRANCH   4   5
HETATM    5  S   UNL     1      -8.792   6.624  65.562  1.00  0.00     0.107 SA 
BRANCH   5   6
HETATM    6  C   UNL     1      -7.359   5.990  66.317  1.00  0.00    -0.081 A  
HETATM    7  N   UNL     1      -6.300   5.684  65.602  1.00  0.00    -0.037 NA 
HETATM    8  N   UNL     1      -5.402   5.079  66.424  1.00  0.00    -0.009 NA 
HETATM    9  C   UNL     1      -5.935   5.017  67.625  1.00  0.00    -0.023 A  
HETATM   10  N   UNL     1      -7.106   5.775  67.676  1.00  0.00    -0.072 NA 
HETATM   11 BR   UNL     1      -5.261   3.796  68.888  1.00  0.00    -0.012 Br 
BRANCH  10  12
HETATM   12  C   UNL     1      -7.878   6.096  68.850  1.00  0.00    -0.101 A  
HETATM   13  C   UNL     1      -8.830   5.178  69.298  1.00  0.00    -0.115 A  
HETATM   14  C   UNL     1      -9.485   5.367  70.512  1.00  0.00    -0.215 A  
HETATM   15  C   UNL     1      -9.191   6.440  71.365  1.00  0.00    -0.150 A  
HETATM   16  C   UNL     1      -7.987   8.561  71.688  1.00  0.00    -0.183 A  
HETATM   17  C   UNL     1      -8.279   7.424  70.898  1.00  0.00    -0.114 A  
HETATM   18  C   UNL     1      -7.128   9.569  71.258  1.00  0.00     0.126 A  
HETATM   19  C   UNL     1      -7.656   7.295  69.614  1.00  0.00    -0.099 A  
HETATM   20  C   UNL     1      -6.890   8.409  69.169  1.00  0.00    -0.055 A  
HETATM   21  C   UNL     1      -6.599   9.506  69.985  1.00  0.00    -0.065 A  
BRANCH  15  22
HETATM   22  C   UNL     1      -9.918   6.491  72.704  1.00  0.00    -0.185 C  
HETATM   23  C   UNL     1     -11.311   5.890  72.784  1.00  0.00    -0.305 C  
HETATM   24  C   UNL     1     -10.188   5.265  73.541  1.00  0.00    -0.229 C  
ENDBRANCH  15  22
ENDBRANCH  10  12
ENDBRANCH   5   6
ENDBRANCH   4   5
TORSDOF 4
ENDMDL
MODEL      253
REMARK 921   NORMALIZED FREE ENERGY PREDICTED BY IDOCK:   -2.34 KCAL/MOL
REMARK 922        TOTAL FREE ENERGY PREDICTED BY IDOCK:   -3.76 KCAL/MOL
REMARK 923 INTER-LIGAND FREE ENERGY PREDICTED BY IDOCK:   -5.11 KCAL/MOL
REMARK 924 INTRA-LIGAND FREE ENERGY PREDICTED BY IDOCK:    1.35 KCAL/MOL
REMARK 927      BINDING AFFINITY PREDICTED BY RF-SCORE:    0.00 PKD
ROOT
HETATM    1  O   UNL     1     -10.376  18.730  66.511  1.00  0.00    -0.377 OA 
HETATM    2  C   UNL     1     -10.534  17.689  65.657  1.00  0.00    -0.144 C  
HETATM    3  O   UNL     1     -11.092  17.824  64.583  1.00  0.00    -0.810 OA 
HETATM    4  C   UNL     1      -9.898  16.386  66.111  1.00  0.00    -0.338 C  
ENDROOT
BRANCH   4   5
HETATM    5  S   UNL     1      -9.761  16.272  67.941  1.00  0.00    -0.236 SA 
BRANCH   5   6
HETATM    6  C   UNL     1      -8.704  14.897  68.067  1.00  0.00    -0.165 A  
HETATM    7  N   UNL     1      -7.427  15.000  67.776  1.00  0.00    -0.142 NA 
HETATM    8  N   UNL     1      -6.887  13.752  67.818  1.00  0.00    -0.161 NA 
HETATM    9  C   UNL     1      -7.850  12.909  68.122  1.00  0.00    -0.147 A  
HETATM   10  N   UNL     1      -9.001  13.601  68.504  1.00  0.00    -0.147 NA 
HETATM   11 BR   UNL     1      -7.643  11.076  67.749  1.00  0.00    -0.102 Br 
BRANCH  10  12
HETATM   12  C   UNL     1     -10.201  13.039  69.070  1.00  0.00     0.119 A  
HETATM   13  C   UNL     1     -10.562  11.737  68.718  1.00  0.00    -0.234 A  
HETATM   14  C   UNL     1     -11.618  11.094  69.358  1.00  0.00    -0.388 A  
HETATM   15  C   UNL     1     -12.329  11.685  70.411  1.00  0.00    -0.373 A  
HETATM   16  C   UNL     1     -12.752  13.704  71.752  1.00  0.00    -0.359 A  
HETATM   17  C   UNL     1     -12.027  13.034  70.738  1.00  0.00    -0.129 A  
HETATM   18  C   UNL     1     -12.516  15.036  72.082  1.00  0.00    -0.421 A  
HETATM   19  C   UNL     1     -11.001  13.745  70.036  1.00  0.00     0.264 A  
HETATM   20  C   UNL     1     -10.887  15.135  70.321  1.00  0.00    -0.258 A  
HETATM   21  C   UNL     1     -11.600  15.760  71.348  1.00  0.00    -0.511 A  
BRANCH  15  22
HETATM   22  C   UNL     1     -13.411  10.847  71.085  1.00  0.00    -0.054 C  
HETATM   23  C   UNL     1     -12.972   9.690  71.967  1.00  0.00    -0.518 C  
HETATM   24  C   UNL     1     -13.659  10.866  72.573  1.00  0.00     0.523 C  
ENDBRANCH  15  22
ENDBRANCH  10  12
ENDBRANCH   5   6
ENDBRANCH   4   5
TORSDOF 4
ENDMDL
MODEL      254
REMARK 921   NORMALIZED FREE ENERGY PREDICTED BY IDOCK:   -2.32 KCAL/MOL
REMARK 922        TOTAL FREE ENERGY PREDICTED BY IDOCK:   -3.74 KCAL/MOL
REMARK 923 INTER-LIGAND FREE ENERGY PREDICTED BY IDOCK:   -3.59 KCAL/MOL
REMARK 924 INTRA-LIGAND FREE ENERGY PREDICTED BY IDOCK:   -0.15 KCAL/MOL
REMARK 927      BINDING AFFINITY PREDICTED BY RF-SCORE:    0.00 PKD
ROOT
HETATM    1  O   UNL     1      -6.286   6.831  71.063  1.00  0.00    -0.038 OA 
HETATM    2  C   UNL     1      -6.449   7.972  71.777  1.00  0.00    -0.044 C  
HETATM    3  O   UNL     1      -5.659   8.895  71.695  1.00  0.00    -0.042 OA 
HETATM    4  C   UNL     1      -7.718   8.029  72.611  1.00  0.00    -0.122 C  
ENDROOT
BRANCH   4   5
HETATM    5  S   UNL     1      -8.321   6.358  73.087  1.00  0.00    -0.114 SA 
BRANCH   5   6
HETATM    6  C   UNL     1      -8.738   5.742  71.514  1.00  0.00    -0.133 A  
HETATM    7  N   UNL     1      -8.333   4.553  71.128  1.00  0.00    -0.089 NA 
HETATM    8  N   UNL     1      -8.673   4.402  69.820  1.00  0.00    -0.072 NA 
HETATM    9  C   UNL     1      -9.269   5.507  69.430  1.00  0.00    -0.117 A  
HETATM   10  N   UNL     1      -9.534   6.330  70.526  1.00  0.00    -0.161 NA 
HETATM   11 BR   UNL     1      -9.398   5.906  67.595  1.00  0.00    -0.107 Br 
BRANCH  10  12
HETATM   12  C   UNL     1     -10.323   7.536  70.532  1.00  0.00    -0.215 A  
HETATM   13  C   UNL     1      -9.809   8.676  69.911  1.00  0.00    -0.185 A  
HETATM   14  C   UNL     1     -10.595   9.814  69.750  1.00  0.00    -0.285 A  
HETATM   15  C   UNL     1     -11.940   9.860  70.144  1.00  0.00    -0.146 A  
HETATM   16  C   UNL     1     -13.796   8.748  71.316  1.00  0.00    -0.226 A  
HETATM   17  C   UNL     1     -12.462   8.738  70.841  1.00  0.00    -0.050 A  
HETATM   18  C   UNL     1     -14.340   7.689  72.035  1.00  0.00    -0.455 A  
HETATM   19  C   UNL     1     -11.647   7.588  71.094  1.00  0.00    -0.304 A  
HETATM   20  C   UNL     1     -12.207   6.590  71.941  1.00  0.00    -0.373 A  
HETATM   21  C   UNL     1     -13.537   6.618  72.371  1.00  0.00     0.342 A  
BRANCH  15  22
HETATM   22  C   UNL     1     -12.717  11.136  69.838  1.00  0.00    -0.072 C  
HETATM   23  C   UNL     1     -12.378  12.386  70.631  1.00  0.00    -0.367 C  
HETATM   24  C   UNL     1     -12.096  12.337  69.168  1.00  0.00    -0.214 C  
ENDBRANCH  15  22
ENDBRANCH  10  12
ENDBRANCH   5   6
ENDBRANCH   4   5
TORSDOF 4
ENDMDL
MODEL      255
REMARK 921   NORMALIZED FREE ENERGY PREDICTED BY IDOCK:   -1.92 KCAL/MOL
REMARK 922        TOTAL FREE ENERGY PREDICTED BY IDOCK:   -3.24 KCAL/MOL
REMARK 923 INTER-LIGAND FREE ENERGY PREDICTED BY IDOCK:   -3.27 KCAL/MOL
REMARK 924 INTRA-LIGAND FREE ENERGY PREDICTED BY IDOCK:    0.02 KCAL/MOL
REMARK 927      BINDING AFFINITY PREDICTED BY RF-SCORE:    0.00 PKD
ROOT
HETATM    1  O   UNL     1      -9.156   4.139  72.117  1.00  0.00    -0.116 OA 
HETATM    2  C   UNL     1      -8.921   3.264  71.109  1.00  0.00    -0.098 C  
HETATM    3  O   UNL     1      -8.320   2.221  71.297  1.00  0.00    -0.055 OA 
HETATM    4  C   UNL     1      -9.529   3.650  69.771  1.00  0.00    -0.184 C  
ENDROOT
BRANCH   4   5
HETATM    5  S   UNL     1      -9.746   5.467  69.598  1.00  0.00    -0.188 SA 
BRANCH   5   6
HETATM    6  C   UNL     1      -9.546   5.619  67.876  1.00  0.00    -0.120 A  
HETATM    7  N   UNL     1     -10.093   4.750  67.056  1.00  0.00    -0.203 NA 
HETATM    8  N   UNL     1      -9.650   5.026  65.800  1.00  0.00    -0.160 NA 
HETATM    9  C   UNL     1      -8.831   6.053  65.880  1.00  0.00    -0.149 A  
HETATM   10  N   UNL     1      -8.883   6.618  67.155  1.00  0.00    -0.114 NA 
HETATM   11 BR   UNL     1      -7.613   6.390  64.486  1.00  0.00    -0.107 Br 
BRANCH  10  12
HETATM   12  C   UNL     1      -8.270   7.851  67.581  1.00  0.00    -0.124 A  
HETATM   13  C   UNL     1      -7.095   7.790  68.333  1.00  0.00    -0.077 A  
HETATM   14  C   UNL     1      -6.380   8.947  68.630  1.00  0.00    -0.053 A  
HETATM   15  C   UNL     1      -6.761  10.208  68.152  1.00  0.00    -0.062 A  
HETATM   16  C   UNL     1      -8.457  11.560  66.991  1.00  0.00    -0.164 A  
HETATM   17  C   UNL     1      -7.990  10.304  67.447  1.00  0.00    -0.107 A  
HETATM   18  C   UNL     1      -9.672  11.709  66.328  1.00  0.00    -0.241 A  
HETATM   19  C   UNL     1      -8.787   9.139  67.202  1.00  0.00    -0.130 A  
HETATM   20  C   UNL     1     -10.074   9.362  66.637  1.00  0.00    -0.332 A  
HETATM   21  C   UNL     1     -10.494  10.612  66.173  1.00  0.00    -0.260 A  
BRANCH  15  22
HETATM   22  C   UNL     1      -5.849  11.387  68.478  1.00  0.00    -0.042 C  
HETATM   23  C   UNL     1      -5.234  12.156  67.321  1.00  0.00    -0.106 C  
HETATM   24  C   UNL     1      -6.230  12.821  68.209  1.00  0.00    -0.078 C  
ENDBRANCH  15  22
ENDBRANCH  10  12
ENDBRANCH   5   6
ENDBRANCH   4   5
TORSDOF 4
ENDMDL
MODEL      256
REMARK 921   NORMALIZED FREE ENERGY PREDICTED BY IDOCK:   -1.64 KCAL/MOL
REMARK 922        TOTAL FREE ENERGY PREDICTED BY IDOCK:   -2.90 KCAL/MOL
REMARK 923 INTER-LIGAND FREE ENERGY PREDICTED BY IDOCK:   -4.23 KCAL/MOL
REMARK 924 INTRA-LIGAND FREE ENERGY PREDICTED BY IDOCK:    1.32 KCAL/MOL
REMARK 927      BINDING AFFINITY PREDICTED BY RF-SCORE:    0.00 PKD
ROOT
HETATM    1  O   UNL     1     -12.459  14.058  72.342  1.00  0.00    -0.181 OA 
HETATM    2  C   UNL     1     -13.170  14.538  71.293  1.00  0.00    -0.357 C  
HETATM    3  O   UNL     1     -14.300  14.970  71.432  1.00  0.00    -0.476 OA 
HETATM    4  C   UNL     1     -12.420  14.566  69.971  1.00  0.00    -0.298 C  
ENDROOT
BRANCH   4   5
HETATM    5  S   UNL     1     -11.096  13.294  69.889  1.00  0.00     0.403 SA 
BRANCH   5   6
HETATM    6  C   UNL     1     -12.021  11.885  70.318  1.00  0.00    -0.330 A  
HETATM    7  N   UNL     1     -13.158  11.998  70.967  1.00  0.00    -0.059 NA 
HETATM    8  N   UNL     1     -13.578  10.747  71.295  1.00  0.00     0.102 NA 
HETATM    9  C   UNL     1     -12.681   9.894  70.850  1.00  0.00    -0.290 A  
HETATM   10  N   UNL     1     -11.760  10.542  70.026  1.00  0.00    -0.289 NA 
HETATM   11 BR   UNL     1     -12.611   8.152  71.559  1.00  0.00    -0.320 Br 
BRANCH  10  12
HETATM   12  C   UNL     1     -10.739   9.926  69.216  1.00  0.00    -0.224 A  
HETATM   13  C   UNL     1     -10.911   9.894  67.831  1.00  0.00    -0.281 A  
HETATM   14  C   UNL     1      -9.886   9.457  66.997  1.00  0.00    -0.258 A  
HETATM   15  C   UNL     1      -8.626   9.084  67.487  1.00  0.00    -0.120 A  
HETATM   16  C   UNL     1      -7.223   8.614  69.452  1.00  0.00    -0.057 A  
HETATM   17  C   UNL     1      -8.452   9.039  68.896  1.00  0.00    -0.130 A  
HETATM   18  C   UNL     1      -7.017   8.520  70.826  1.00  0.00    -0.050 A  
HETATM   19  C   UNL     1      -9.521   9.404  69.778  1.00  0.00    -0.216 A  
HETATM   20  C   UNL     1      -9.304   9.168  71.165  1.00  0.00    -0.313 A  
HETATM   21  C   UNL     1      -8.067   8.772  71.683  1.00  0.00    -0.153 A  
BRANCH  15  22
HETATM   22  C   UNL     1      -7.561   8.702  66.465  1.00  0.00    -0.088 C  
HETATM   23  C   UNL     1      -8.003   8.447  65.034  1.00  0.00    -0.139 C  
HETATM   24  C   UNL     1      -7.131   9.617  65.344  1.00  0.00    -0.100 C  
ENDBRANCH  15  22
ENDBRANCH  10  12
ENDBRANCH   5   6
ENDBRANCH   4   5
TORSDOF 4
ENDMDL
MODEL      257
REMARK 921   NORMALIZED FREE ENERGY PREDICTED BY IDOCK:   -1.62 KCAL/MOL
REMARK 922        TOTAL FREE ENERGY PREDICTED BY IDOCK:   -2.88 KCAL/MOL
REMARK 923 INTER-LIGAND FREE ENERGY PREDICTED BY IDOCK:   -6.32 KCAL/MOL
REMARK 924 INTRA-LIGAND FREE ENERGY PREDICTED BY IDOCK:    3.43 KCAL/MOL
REMARK 927      BINDING AFFINITY PREDICTED BY RF-SCORE:    0.00 PKD
ROOT
HETATM    1  O   UNL     1     -12.842  13.805  65.982  1.00  0.00    -0.402 OA 
HETATM    2  C   UNL     1     -11.905  13.684  66.953  1.00  0.00    -0.411 C  
HETATM    3  O   UNL     1     -12.205  13.682  68.133  1.00  0.00    -0.322 OA 
HETATM    4  C   UNL     1     -10.486  13.475  66.450  1.00  0.00    -0.287 C  
ENDROOT
BRANCH   4   5
HETATM    5  S   UNL     1     -10.223  14.186  64.775  1.00  0.00    -0.109 SA 
BRANCH   5   6
HETATM    6  C   UNL     1     -10.376  15.877  65.152  1.00  0.00    -0.252 A  
HETATM    7  N   UNL     1     -11.301  16.614  64.579  1.00  0.00    -0.943 NA 
HETATM    8  N   UNL     1     -11.089  17.907  64.943  1.00  0.00    -0.560 NA 
HETATM    9  C   UNL     1     -10.029  17.936  65.723  1.00  0.00     0.031 A  
HETATM   10  N   UNL     1      -9.646  16.639  66.071  1.00  0.00    -0.435 NA 
HETATM   11 BR   UNL     1      -9.103  19.553  65.987  1.00  0.00    -0.132 Br 
BRANCH  10  12
HETATM   12  C   UNL     1      -8.648  16.262  67.040  1.00  0.00    -0.200 A  
HETATM   13  C   UNL     1      -8.200  14.941  67.060  1.00  0.00    -0.228 A  
HETATM   14  C   UNL     1      -7.127  14.566  67.865  1.00  0.00    -0.168 A  
HETATM   15  C   UNL     1      -6.414  15.488  68.643  1.00  0.00    -0.102 A  
HETATM   16  C   UNL     1      -6.254  17.786  69.507  1.00  0.00    -0.238 A  
HETATM   17  C   UNL     1      -6.897  16.823  68.693  1.00  0.00    -0.175 A  
HETATM   18  C   UNL     1      -6.712  19.096  69.617  1.00  0.00    -0.217 A  
HETATM   19  C   UNL     1      -8.051  17.214  67.939  1.00  0.00    -0.201 A  
HETATM   20  C   UNL     1      -8.552  18.523  68.185  1.00  0.00    -0.324 A  
HETATM   21  C   UNL     1      -7.878  19.459  68.975  1.00  0.00    -0.325 A  
BRANCH  15  22
HETATM   22  C   UNL     1      -5.207  14.968  69.417  1.00  0.00    -0.091 C  
HETATM   23  C   UNL     1      -5.358  14.751  70.913  1.00  0.00    -0.141 C  
HETATM   24  C   UNL     1      -5.146  13.583  70.012  1.00  0.00    -0.085 C  
ENDBRANCH  15  22
ENDBRANCH  10  12
ENDBRANCH   5   6
ENDBRANCH   4   5
TORSDOF 4
ENDMDL
MODEL      258
REMARK 921   NORMALIZED FREE ENERGY PREDICTED BY IDOCK:   -1.61 KCAL/MOL
REMARK 922        TOTAL FREE ENERGY PREDICTED BY IDOCK:   -2.87 KCAL/MOL
REMARK 923 INTER-LIGAND FREE ENERGY PREDICTED BY IDOCK:   -2.23 KCAL/MOL
REMARK 924 INTRA-LIGAND FREE ENERGY PREDICTED BY IDOCK:   -0.65 KCAL/MOL
REMARK 927      BINDING AFFINITY PREDICTED BY RF-SCORE:    0.00 PKD
ROOT
HETATM    1  O   UNL     1     -10.537  20.558  69.698  1.00  0.00     0.083 OA 
HETATM    2  C   UNL     1     -10.687  19.876  68.536  1.00  0.00     0.192 C  
HETATM    3  O   UNL     1     -11.769  19.436  68.189  1.00  0.00     1.170 OA 
HETATM    4  C   UNL     1      -9.433  19.779  67.684  1.00  0.00    -0.352 C  
ENDROOT
BRANCH   4   5
HETATM    5  S   UNL     1      -7.895  19.884  68.686  1.00  0.00    -0.093 SA 
BRANCH   5   6
HETATM    6  C   UNL     1      -6.713  19.797  67.412  1.00  0.00    -0.210 A  
HETATM    7  N   UNL     1      -6.039  20.864  67.045  1.00  0.00    -0.240 NA 
HETATM    8  N   UNL     1      -5.310  20.537  65.945  1.00  0.00    -0.173 NA 
HETATM    9  C   UNL     1      -5.563  19.279  65.654  1.00  0.00    -0.161 A  
HETATM   10  N   UNL     1      -6.294  18.680  66.682  1.00  0.00    -0.177 NA 
HETATM   11 BR   UNL     1      -5.189  18.622  63.931  1.00  0.00    -0.049 Br 
BRANCH  10  12
HETATM   12  C   UNL     1      -6.611  17.281  66.816  1.00  0.00    -0.212 A  
HETATM   13  C   UNL     1      -5.640  16.420  67.329  1.00  0.00    -0.152 A  
HETATM   14  C   UNL     1      -5.949  15.095  67.627  1.00  0.00    -0.104 A  
HETATM   15  C   UNL     1      -7.243  14.576  67.485  1.00  0.00    -0.210 A  
HETATM   16  C   UNL     1      -9.539  14.926  66.673  1.00  0.00    -0.284 A  
HETATM   17  C   UNL     1      -8.229  15.412  66.897  1.00  0.00    -0.281 A  
HETATM   18  C   UNL     1     -10.529  15.695  66.067  1.00  0.00    -0.343 A  
HETATM   19  C   UNL     1      -7.913  16.753  66.504  1.00  0.00    -0.334 A  
HETATM   20  C   UNL     1      -8.917  17.452  65.776  1.00  0.00     0.212 A  
HETATM   21  C   UNL     1     -10.210  16.951  65.594  1.00  0.00    -0.227 A  
BRANCH  15  22
HETATM   22  C   UNL     1      -7.473  13.134  67.923  1.00  0.00    -0.136 C  
HETATM   23  C   UNL     1      -7.063  12.024  66.970  1.00  0.00    -0.091 C  
HETATM   24  C   UNL     1      -6.347  12.190  68.268  1.00  0.00    -0.053 C  
ENDBRANCH  15  22
ENDBRANCH  10  12
ENDBRANCH   5   6
ENDBRANCH   4   5
TORSDOF 4
ENDMDL
MODEL      259
REMARK 921   NORMALIZED FREE ENERGY PREDICTED BY IDOCK:   -1.37 KCAL/MOL
REMARK 922        TOTAL FREE ENERGY PREDICTED BY IDOCK:   -2.57 KCAL/MOL
REMARK 923 INTER-LIGAND FREE ENERGY PREDICTED BY IDOCK:   -1.83 KCAL/MOL
REMARK 924 INTRA-LIGAND FREE ENERGY PREDICTED BY IDOCK:   -0.74 KCAL/MOL
REMARK 927      BINDING AFFINITY PREDICTED BY RF-SCORE:    0.00 PKD
ROOT
HETATM    1  O   UNL     1     -11.498   7.404  68.990  1.00  0.00     0.241 OA 
HETATM    2  C   UNL     1     -11.005   6.637  69.993  1.00  0.00    -0.311 C  
HETATM    3  O   UNL     1     -10.976   7.033  71.144  1.00  0.00    -0.238 OA 
HETATM    4  C   UNL     1     -10.577   5.239  69.578  1.00  0.00    -0.173 C  
ENDROOT
BRANCH   4   5
HETATM    5  S   UNL     1     -10.086   5.152  67.808  1.00  0.00    -0.118 SA 
BRANCH   5   6
HETATM    6  C   UNL     1      -8.866   6.392  67.786  1.00  0.00    -0.112 A  
HETATM    7  N   UNL     1      -8.944   7.398  66.944  1.00  0.00    -0.130 NA 
HETATM    8  N   UNL     1      -7.795   8.117  67.046  1.00  0.00    -0.103 NA 
HETATM    9  C   UNL     1      -7.031   7.529  67.941  1.00  0.00    -0.076 A  
HETATM   10  N   UNL     1      -7.746   6.534  68.611  1.00  0.00    -0.100 NA 
HETATM   11 BR   UNL     1      -5.184   7.884  67.976  1.00  0.00    -0.033 Br 
BRANCH  10  12
HETATM   12  C   UNL     1      -7.316   5.791  69.769  1.00  0.00    -0.071 A  
HETATM   13  C   UNL     1      -6.993   4.442  69.616  1.00  0.00    -0.049 A  
HETATM   14  C   UNL     1      -6.422   3.724  70.664  1.00  0.00    -0.031 A  
HETATM   15  C   UNL     1      -6.093   4.319  71.890  1.00  0.00    -0.017 A  
HETATM   16  C   UNL     1      -6.227   6.309  73.330  1.00  0.00    -0.063 A  
HETATM   17  C   UNL     1      -6.479   5.671  72.093  1.00  0.00    -0.056 A  
HETATM   18  C   UNL     1      -6.618   7.620  73.588  1.00  0.00    -0.083 A  
HETATM   19  C   UNL     1      -7.144   6.406  71.058  1.00  0.00    -0.070 A  
HETATM   20  C   UNL     1      -7.635   7.694  71.414  1.00  0.00    -0.080 A  
HETATM   21  C   UNL     1      -7.346   8.305  72.637  1.00  0.00    -0.141 A  
BRANCH  15  22
HETATM   22  C   UNL     1      -5.397   3.447  72.929  1.00  0.00     0.000 C  
HETATM   23  C   UNL     1      -6.245   2.826  74.025  1.00  0.00    -0.015 C  
HETATM   24  C   UNL     1      -5.589   1.952  73.011  1.00  0.00     0.000 C  
ENDBRANCH  15  22
ENDBRANCH  10  12
ENDBRANCH   5   6
ENDBRANCH   4   5
TORSDOF 4
ENDMDL
MODEL      260
REMARK 921   NORMALIZED FREE ENERGY PREDICTED BY IDOCK:   -1.29 KCAL/MOL
REMARK 922        TOTAL FREE ENERGY PREDICTED BY IDOCK:   -2.48 KCAL/MOL
REMARK 923 INTER-LIGAND FREE ENERGY PREDICTED BY IDOCK:   -1.69 KCAL/MOL
REMARK 924 INTRA-LIGAND FREE ENERGY PREDICTED BY IDOCK:   -0.79 KCAL/MOL
REMARK 927      BINDING AFFINITY PREDICTED BY RF-SCORE:    0.00 PKD
ROOT
HETATM    1  O   UNL     1     -11.190   8.054  68.171  1.00  0.00     0.277 OA 
HETATM    2  C   UNL     1     -10.644   7.130  68.999  1.00  0.00    -0.210 C  
HETATM    3  O   UNL     1     -10.308   7.409  70.136  1.00  0.00    -0.206 OA 
HETATM    4  C   UNL     1     -10.563   5.725  68.424  1.00  0.00    -0.220 C  
ENDROOT
BRANCH   4   5
HETATM    5  S   UNL     1     -10.471   5.723  66.588  1.00  0.00    -0.253 SA 
BRANCH   5   6
HETATM    6  C   UNL     1      -9.053   6.705  66.368  1.00  0.00    -0.152 A  
HETATM    7  N   UNL     1      -9.068   7.737  65.554  1.00  0.00     0.055 NA 
HETATM    8  N   UNL     1      -7.799   8.219  65.467  1.00  0.00    -0.100 NA 
HETATM    9  C   UNL     1      -7.031   7.463  66.221  1.00  0.00    -0.069 A  
HETATM   10  N   UNL     1      -7.808   6.600  66.997  1.00  0.00    -0.106 NA 
HETATM   11 BR   UNL     1      -5.168   7.455  65.952  1.00  0.00    -0.025 Br 
BRANCH  10  12
HETATM   12  C   UNL     1      -7.350   5.747  68.065  1.00  0.00    -0.073 A  
HETATM   13  C   UNL     1      -7.049   6.324  69.300  1.00  0.00    -0.073 A  
HETATM   14  C   UNL     1      -6.759   5.527  70.405  1.00  0.00    -0.047 A  
HETATM   15  C   UNL     1      -6.808   4.127  70.354  1.00  0.00    -0.033 A  
HETATM   16  C   UNL     1      -7.042   2.109  68.966  1.00  0.00    -0.040 A  
HETATM   17  C   UNL     1      -7.040   3.519  69.092  1.00  0.00    -0.049 A  
HETATM   18  C   UNL     1      -7.229   1.469  67.745  1.00  0.00    -0.039 A  
HETATM   19  C   UNL     1      -7.258   4.318  67.923  1.00  0.00    -0.064 A  
HETATM   20  C   UNL     1      -7.316   3.621  66.683  1.00  0.00    -0.068 A  
HETATM   21  C   UNL     1      -7.341   2.226  66.597  1.00  0.00    -0.061 A  
BRANCH  15  22
HETATM   22  C   UNL     1      -6.550   3.369  71.653  1.00  0.00    -0.022 C  
HETATM   23  C   UNL     1      -6.941   4.038  72.959  1.00  0.00    -0.057 C  
HETATM   24  C   UNL     1      -7.657   2.809  72.512  1.00  0.00    -0.053 C  
ENDBRANCH  15  22
ENDBRANCH  10  12
ENDBRANCH   5   6
ENDBRANCH   4   5
TORSDOF 4
ENDMDL
MODEL      261
REMARK 921   NORMALIZED FREE ENERGY PREDICTED BY IDOCK:   -1.17 KCAL/MOL
REMARK 922        TOTAL FREE ENERGY PREDICTED BY IDOCK:   -2.33 KCAL/MOL
REMARK 923 INTER-LIGAND FREE ENERGY PREDICTED BY IDOCK:   -4.18 KCAL/MOL
REMARK 924 INTRA-LIGAND FREE ENERGY PREDICTED BY IDOCK:    1.85 KCAL/MOL
REMARK 927      BINDING AFFINITY PREDICTED BY RF-SCORE:    0.00 PKD
ROOT
HETATM    1  O   UNL     1     -12.321  13.902  64.071  1.00  0.00    -0.637 OA 
HETATM    2  C   UNL     1     -11.786  15.037  64.583  1.00  0.00    -0.382 C  
HETATM    3  O   UNL     1     -12.156  16.139  64.218  1.00  0.00    -0.551 OA 
HETATM    4  C   UNL     1     -10.765  14.821  65.688  1.00  0.00    -0.336 C  
ENDROOT
BRANCH   4   5
HETATM    5  S   UNL     1      -9.923  13.192  65.556  1.00  0.00    -0.153 SA 
BRANCH   5   6
HETATM    6  C   UNL     1      -8.664  13.422  66.734  1.00  0.00    -0.078 A  
HETATM    7  N   UNL     1      -7.821  12.453  67.017  1.00  0.00    -0.130 NA 
HETATM    8  N   UNL     1      -7.055  12.859  68.064  1.00  0.00    -0.097 NA 
HETATM    9  C   UNL     1      -7.454  14.065  68.409  1.00  0.00    -0.119 A  
HETATM   10  N   UNL     1      -8.342  14.573  67.460  1.00  0.00    -0.175 NA 
HETATM   11 BR   UNL     1      -7.033  14.739  70.115  1.00  0.00     0.120 Br 
BRANCH  10  12
HETATM   12  C   UNL     1      -8.859  15.917  67.391  1.00  0.00    -0.188 A  
HETATM   13  C   UNL     1     -10.101  16.188  67.968  1.00  0.00    -0.242 A  
HETATM   14  C   UNL     1     -10.569  17.495  68.069  1.00  0.00    -0.384 A  
HETATM   15  C   UNL     1      -9.808  18.599  67.657  1.00  0.00    -0.351 A  
HETATM   16  C   UNL     1      -7.790  19.413  66.510  1.00  0.00    -0.300 A  
HETATM   17  C   UNL     1      -8.574  18.343  67.002  1.00  0.00    -0.264 A  
HETATM   18  C   UNL     1      -6.592  19.211  65.830  1.00  0.00    -0.280 A  
HETATM   19  C   UNL     1      -8.111  17.001  66.810  1.00  0.00    -0.277 A  
HETATM   20  C   UNL     1      -6.951  16.843  66.000  1.00  0.00     0.177 A  
HETATM   21  C   UNL     1      -6.185  17.922  65.552  1.00  0.00    -0.152 A  
BRANCH  15  22
HETATM   22  C   UNL     1     -10.397  19.985  67.896  1.00  0.00    -0.506 C  
HETATM   23  C   UNL     1      -9.438  21.157  68.019  1.00  0.00     0.272 C  
HETATM   24  C   UNL     1     -10.371  21.080  66.858  1.00  0.00     0.854 C  
ENDBRANCH  15  22
ENDBRANCH  10  12
ENDBRANCH   5   6
ENDBRANCH   4   5
TORSDOF 4
ENDMDL
MODEL      262
REMARK 921   NORMALIZED FREE ENERGY PREDICTED BY IDOCK:   -0.89 KCAL/MOL
REMARK 922        TOTAL FREE ENERGY PREDICTED BY IDOCK:   -1.98 KCAL/MOL
REMARK 923 INTER-LIGAND FREE ENERGY PREDICTED BY IDOCK:   -3.34 KCAL/MOL
REMARK 924 INTRA-LIGAND FREE ENERGY PREDICTED BY IDOCK:    1.37 KCAL/MOL
REMARK 927      BINDING AFFINITY PREDICTED BY RF-SCORE:    0.00 PKD
ROOT
HETATM    1  O   UNL     1     -13.261  13.598  66.825  1.00  0.00     0.667 OA 
HETATM    2  C   UNL     1     -12.351  13.304  67.785  1.00  0.00     0.083 C  
HETATM    3  O   UNL     1     -12.598  13.459  68.968  1.00  0.00     0.070 OA 
HETATM    4  C   UNL     1     -11.053  12.702  67.273  1.00  0.00    -0.278 C  
ENDROOT
BRANCH   4   5
HETATM    5  S   UNL     1     -10.678  13.207  65.546  1.00  0.00    -0.289 SA 
BRANCH   5   6
HETATM    6  C   UNL     1      -9.995  14.778  65.845  1.00  0.00    -0.326 A  
HETATM    7  N   UNL     1     -10.546  15.859  65.342  1.00  0.00    -0.402 NA 
HETATM    8  N   UNL     1      -9.724  16.909  65.609  1.00  0.00    -0.548 NA 
HETATM    9  C   UNL     1      -8.680  16.446  66.261  1.00  0.00    -0.334 A  
HETATM   10  N   UNL     1      -8.889  15.117  66.633  1.00  0.00    -0.277 NA 
HETATM   11 BR   UNL     1      -7.094  17.456  66.331  1.00  0.00    -0.343 Br 
BRANCH  10  12
HETATM   12  C   UNL     1      -8.060  14.320  67.503  1.00  0.00    -0.187 A  
HETATM   13  C   UNL     1      -8.002  12.941  67.294  1.00  0.00    -0.151 A  
HETATM   14  C   UNL     1      -7.097  12.153  68.000  1.00  0.00    -0.096 A  
HETATM   15  C   UNL     1      -6.171  12.696  68.901  1.00  0.00    -0.081 A  
HETATM   16  C   UNL     1      -5.392  14.682  70.128  1.00  0.00    -0.102 A  
HETATM   17  C   UNL     1      -6.261  14.086  69.183  1.00  0.00    -0.103 A  
HETATM   18  C   UNL     1      -5.466  16.031  70.463  1.00  0.00    -0.144 A  
HETATM   19  C   UNL     1      -7.240  14.903  68.531  1.00  0.00    -0.113 A  
HETATM   20  C   UNL     1      -7.359  16.242  69.001  1.00  0.00    -0.214 A  
HETATM   21  C   UNL     1      -6.468  16.807  69.918  1.00  0.00    -0.009 A  
BRANCH  15  22
HETATM   22  C   UNL     1      -5.178  11.738  69.550  1.00  0.00    -0.058 C  
HETATM   23  C   UNL     1      -5.442  11.293  70.978  1.00  0.00    -0.068 C  
HETATM   24  C   UNL     1      -5.509  10.300  69.868  1.00  0.00    -0.039 C  
ENDBRANCH  15  22
ENDBRANCH  10  12
ENDBRANCH   5   6
ENDBRANCH   4   5
TORSDOF 4
ENDMDL
MODEL      263
REMARK 921   NORMALIZED FREE ENERGY PREDICTED BY IDOCK:    0.31 KCAL/MOL
REMARK 922        TOTAL FREE ENERGY PREDICTED BY IDOCK:   -0.50 KCAL/MOL
REMARK 923 INTER-LIGAND FREE ENERGY PREDICTED BY IDOCK:   -3.78 KCAL/MOL
REMARK 924 INTRA-LIGAND FREE ENERGY PREDICTED BY IDOCK:    3.28 KCAL/MOL
REMARK 927      BINDING AFFINITY PREDICTED BY RF-SCORE:    0.00 PKD
ROOT
HETATM    1  O   UNL     1     -14.405  14.005  71.368  1.00  0.00    -0.196 OA 
HETATM    2  C   UNL     1     -13.164  14.134  71.897  1.00  0.00    -0.387 C  
HETATM    3  O   UNL     1     -12.865  15.082  72.600  1.00  0.00    -0.330 OA 
HETATM    4  C   UNL     1     -12.223  12.975  71.611  1.00  0.00     0.437 C  
ENDROOT
BRANCH   4   5
HETATM    5  S   UNL     1     -12.649  12.093  70.055  1.00  0.00     0.272 SA 
BRANCH   5   6
HETATM    6  C   UNL     1     -11.310  12.592  69.064  1.00  0.00    -0.292 A  
HETATM    7  N   UNL     1     -11.218  13.829  68.630  1.00  0.00    -0.263 NA 
HETATM    8  N   UNL     1     -10.168  13.892  67.768  1.00  0.00    -0.234 NA 
HETATM    9  C   UNL     1      -9.647  12.687  67.683  1.00  0.00    -0.188 A  
HETATM   10  N   UNL     1     -10.199  11.848  68.652  1.00  0.00    -0.213 NA 
HETATM   11 BR   UNL     1      -8.554  12.240  66.217  1.00  0.00     0.233 Br 
BRANCH  10  12
HETATM   12  C   UNL     1      -9.768  10.515  68.991  1.00  0.00    -0.210 A  
HETATM   13  C   UNL     1      -8.581  10.034  68.436  1.00  0.00    -0.113 A  
HETATM   14  C   UNL     1      -8.040   8.821  68.855  1.00  0.00    -0.114 A  
HETATM   15  C   UNL     1      -8.616   8.056  69.879  1.00  0.00    -0.135 A  
HETATM   16  C   UNL     1     -10.521   7.728  71.401  1.00  0.00    -0.237 A  
HETATM   17  C   UNL     1      -9.861   8.490  70.407  1.00  0.00    -0.198 A  
HETATM   18  C   UNL     1     -11.759   8.094  71.923  1.00  0.00    -0.362 A  
HETATM   19  C   UNL     1     -10.480   9.691  69.932  1.00  0.00    -0.285 A  
HETATM   20  C   UNL     1     -11.798   9.951  70.402  1.00  0.00    -0.310 A  
HETATM   21  C   UNL     1     -12.410   9.193  71.404  1.00  0.00    -0.404 A  
BRANCH  15  22
HETATM   22  C   UNL     1      -7.883   6.788  70.303  1.00  0.00    -0.110 C  
HETATM   23  C   UNL     1      -6.414   6.901  70.672  1.00  0.00    -0.051 C  
HETATM   24  C   UNL     1      -7.415   6.542  71.717  1.00  0.00    -0.093 C  
ENDBRANCH  15  22
ENDBRANCH  10  12
ENDBRANCH   5   6
ENDBRANCH   4   5
TORSDOF 4
ENDMDL
MODEL      264
REMARK 921   NORMALIZED FREE ENERGY PREDICTED BY IDOCK:    0.36 KCAL/MOL
REMARK 922        TOTAL FREE ENERGY PREDICTED BY IDOCK:   -0.44 KCAL/MOL
REMARK 923 INTER-LIGAND FREE ENERGY PREDICTED BY IDOCK:   -0.07 KCAL/MOL
REMARK 924 INTRA-LIGAND FREE ENERGY PREDICTED BY IDOCK:   -0.37 KCAL/MOL
REMARK 927      BINDING AFFINITY PREDICTED BY RF-SCORE:    0.00 PKD
ROOT
HETATM    1  O   UNL     1     -10.950  11.839  69.335  1.00  0.00    -0.211 OA 
HETATM    2  C   UNL     1     -10.023  12.581  68.681  1.00  0.00    -0.103 C  
HETATM    3  O   UNL     1      -8.834  12.329  68.756  1.00  0.00    -0.026 OA 
HETATM    4  C   UNL     1     -10.591  13.681  67.799  1.00  0.00    -0.242 C  
ENDROOT
BRANCH   4   5
HETATM    5  S   UNL     1     -12.233  14.268  68.380  1.00  0.00    -0.028 SA 
BRANCH   5   6
HETATM    6  C   UNL     1     -11.727  15.291  69.693  1.00  0.00    -0.334 A  
HETATM    7  N   UNL     1     -12.296  15.202  70.874  1.00  0.00    -0.323 NA 
HETATM    8  N   UNL     1     -11.811  16.210  71.648  1.00  0.00    -0.491 NA 
HETATM    9  C   UNL     1     -10.964  16.904  70.918  1.00  0.00     0.660 A  
HETATM   10  N   UNL     1     -10.701  16.242  69.717  1.00  0.00    -0.339 NA 
HETATM   11 BR   UNL     1     -10.505  18.656  71.427  1.00  0.00     3.816 Br 
BRANCH  10  12
HETATM   12  C   UNL     1      -9.703  16.591  68.738  1.00  0.00    -0.251 A  
HETATM   13  C   UNL     1     -10.098  17.301  67.603  1.00  0.00    -0.313 A  
HETATM   14  C   UNL     1      -9.152  17.799  66.710  1.00  0.00    -0.273 A  
HETATM   15  C   UNL     1      -7.773  17.667  66.927  1.00  0.00    -0.245 A  
HETATM   16  C   UNL     1      -5.972  16.668  68.273  1.00  0.00    -0.121 A  
HETATM   17  C   UNL     1      -7.350  16.887  68.036  1.00  0.00    -0.175 A  
HETATM   18  C   UNL     1      -5.511  15.882  69.325  1.00  0.00    -0.112 A  
HETATM   19  C   UNL     1      -8.307  16.293  68.921  1.00  0.00    -0.231 A  
HETATM   20  C   UNL     1      -7.791  15.397  69.900  1.00  0.00     0.072 A  
HETATM   21  C   UNL     1      -6.423  15.224  70.124  1.00  0.00    -0.089 A  
BRANCH  15  22
HETATM   22  C   UNL     1      -6.839  18.327  65.918  1.00  0.00    -0.325 C  
HETATM   23  C   UNL     1      -6.442  19.774  66.153  1.00  0.00    -0.210 C  
HETATM   24  C   UNL     1      -5.412  18.700  66.240  1.00  0.00    -0.177 C  
ENDBRANCH  15  22
ENDBRANCH  10  12
ENDBRANCH   5   6
ENDBRANCH   4   5
TORSDOF 4
ENDMDL
MODEL      265
REMARK 921   NORMALIZED FREE ENERGY PREDICTED BY IDOCK:    0.85 KCAL/MOL
REMARK 922        TOTAL FREE ENERGY PREDICTED BY IDOCK:    0.16 KCAL/MOL
REMARK 923 INTER-LIGAND FREE ENERGY PREDICTED BY IDOCK:   -3.30 KCAL/MOL
REMARK 924 INTRA-LIGAND FREE ENERGY PREDICTED BY IDOCK:    3.47 KCAL/MOL
REMARK 927      BINDING AFFINITY PREDICTED BY RF-SCORE:    0.00 PKD
ROOT
HETATM    1  O   UNL     1     -10.941   9.845  67.428  1.00  0.00    -0.269 OA 
HETATM    2  C   UNL     1     -11.505  11.078  67.429  1.00  0.00    -0.135 C  
HETATM    3  O   UNL     1     -12.125  11.497  66.468  1.00  0.00    -0.252 OA 
HETATM    4  C   UNL     1     -11.368  11.843  68.735  1.00  0.00    -0.274 C  
ENDROOT
BRANCH   4   5
HETATM    5  S   UNL     1      -9.888  11.329  69.697  1.00  0.00     0.796 SA 
BRANCH   5   6
HETATM    6  C   UNL     1      -8.715  11.269  68.414  1.00  0.00    -0.159 A  
HETATM    7  N   UNL     1      -8.694  10.265  67.567  1.00  0.00    -0.125 NA 
HETATM    8  N   UNL     1      -7.595  10.407  66.779  1.00  0.00    -0.107 NA 
HETATM    9  C   UNL     1      -6.959  11.490  67.169  1.00  0.00    -0.138 A  
HETATM   10  N   UNL     1      -7.737  12.211  68.076  1.00  0.00    -0.123 NA 
HETATM   11 BR   UNL     1      -5.149  11.730  66.713  1.00  0.00    -0.031 Br 
BRANCH  10  12
HETATM   12  C   UNL     1      -7.467  13.529  68.593  1.00  0.00    -0.108 A  
HETATM   13  C   UNL     1      -6.149  13.870  68.901  1.00  0.00    -0.087 A  
HETATM   14  C   UNL     1      -5.815  15.176  69.249  1.00  0.00    -0.097 A  
HETATM   15  C   UNL     1      -6.756  16.216  69.254  1.00  0.00    -0.198 A  
HETATM   16  C   UNL     1      -9.118  16.874  69.065  1.00  0.00    -0.174 A  
HETATM   17  C   UNL     1      -8.114  15.879  69.014  1.00  0.00    -0.229 A  
HETATM   18  C   UNL     1     -10.467  16.586  68.873  1.00  0.00    -0.304 A  
HETATM   19  C   UNL     1      -8.495  14.525  68.737  1.00  0.00    -0.145 A  
HETATM   20  C   UNL     1      -9.893  14.263  68.676  1.00  0.00    -0.228 A  
HETATM   21  C   UNL     1     -10.857  15.274  68.704  1.00  0.00    -0.253 A  
BRANCH  15  22
HETATM   22  C   UNL     1      -6.249  17.619  69.573  1.00  0.00    -0.245 C  
HETATM   23  C   UNL     1      -5.171  18.209  68.679  1.00  0.00    -0.160 C  
HETATM   24  C   UNL     1      -6.534  18.815  68.698  1.00  0.00    -0.258 C  
ENDBRANCH  15  22
ENDBRANCH  10  12
ENDBRANCH   5   6
ENDBRANCH   4   5
TORSDOF 4
ENDMDL
MODEL      266
REMARK 921   NORMALIZED FREE ENERGY PREDICTED BY IDOCK:    1.46 KCAL/MOL
REMARK 922        TOTAL FREE ENERGY PREDICTED BY IDOCK:    0.91 KCAL/MOL
REMARK 923 INTER-LIGAND FREE ENERGY PREDICTED BY IDOCK:   -3.65 KCAL/MOL
REMARK 924 INTRA-LIGAND FREE ENERGY PREDICTED BY IDOCK:    4.56 KCAL/MOL
REMARK 927      BINDING AFFINITY PREDICTED BY RF-SCORE:    0.00 PKD
ROOT
HETATM    1  O   UNL     1      -8.050   9.082  69.323  1.00  0.00    -0.100 OA 
HETATM    2  C   UNL     1      -7.938  10.075  68.407  1.00  0.00    -0.097 C  
HETATM    3  O   UNL     1      -7.635  11.210  68.730  1.00  0.00    -0.113 OA 
HETATM    4  C   UNL     1      -8.139   9.642  66.965  1.00  0.00    -0.113 C  
ENDROOT
BRANCH   4   5
HETATM    5  S   UNL     1      -9.210   8.155  66.822  1.00  0.00    -0.176 SA 
BRANCH   5   6
HETATM    6  C   UNL     1     -10.348   8.495  68.093  1.00  0.00    -0.206 A  
HETATM    7  N   UNL     1     -10.940   9.666  68.171  1.00  0.00    -0.183 NA 
HETATM    8  N   UNL     1     -11.648   9.698  69.332  1.00  0.00     0.095 NA 
HETATM    9  C   UNL     1     -11.464   8.550  69.947  1.00  0.00     0.167 A  
HETATM   10  N   UNL     1     -10.810   7.648  69.106  1.00  0.00    -0.132 NA 
HETATM   11 BR   UNL     1     -11.814   8.407  71.790  1.00  0.00    -0.406 Br 
BRANCH  10  12
HETATM   12  C   UNL     1     -10.585   6.245  69.350  1.00  0.00    -0.271 A  
HETATM   13  C   UNL     1     -10.392   5.398  68.257  1.00  0.00    -0.213 A  
HETATM   14  C   UNL     1     -10.013   4.071  68.443  1.00  0.00     0.068 A  
HETATM   15  C   UNL     1      -9.754   3.536  69.713  1.00  0.00    -0.114 A  
HETATM   16  C   UNL     1      -9.827   3.854  72.151  1.00  0.00    -0.235 A  
HETATM   17  C   UNL     1     -10.013   4.357  70.842  1.00  0.00    -0.242 A  
HETATM   18  C   UNL     1     -10.103   4.609  73.288  1.00  0.00    -0.201 A  
HETATM   19  C   UNL     1     -10.485   5.701  70.678  1.00  0.00    -0.340 A  
HETATM   20  C   UNL     1     -10.872   6.383  71.865  1.00  0.00    -0.279 A  
HETATM   21  C   UNL     1     -10.650   5.867  73.145  1.00  0.00    -0.270 A  
BRANCH  15  22
HETATM   22  C   UNL     1      -9.267   2.092  69.779  1.00  0.00    -0.181 C  
HETATM   23  C   UNL     1      -7.865   1.788  69.278  1.00  0.00    -0.048 C  
HETATM   24  C   UNL     1      -8.186   1.631  70.726  1.00  0.00    -0.058 C  
ENDBRANCH  15  22
ENDBRANCH  10  12
ENDBRANCH   5   6
ENDBRANCH   4   5
TORSDOF 4
ENDMDL
MODEL      267
REMARK 921   NORMALIZED FREE ENERGY PREDICTED BY IDOCK:    3.16 KCAL/MOL
REMARK 922        TOTAL FREE ENERGY PREDICTED BY IDOCK:    3.02 KCAL/MOL
REMARK 923 INTER-LIGAND FREE ENERGY PREDICTED BY IDOCK:    2.29 KCAL/MOL
REMARK 924 INTRA-LIGAND FREE ENERGY PREDICTED BY IDOCK:    0.73 KCAL/MOL
REMARK 927      BINDING AFFINITY PREDICTED BY RF-SCORE:    0.00 PKD
ROOT
HETATM    1  O   UNL     1     -12.020  14.638  65.190  1.00  0.00    -0.368 OA 
HETATM    2  C   UNL     1     -11.774  15.288  66.353  1.00  0.00     0.096 C  
HETATM    3  O   UNL     1     -12.527  16.146  66.777  1.00  0.00     1.857 OA 
HETATM    4  C   UNL     1     -10.545  14.807  67.107  1.00  0.00    -0.285 C  
ENDROOT
BRANCH   4   5
HETATM    5  S   UNL     1      -9.283  14.068  65.993  1.00  0.00     0.194 SA 
BRANCH   5   6
HETATM    6  C   UNL     1      -7.981  13.861  67.128  1.00  0.00    -0.050 A  
HETATM    7  N   UNL     1      -6.731  13.836  66.722  1.00  0.00     0.704 NA 
HETATM    8  N   UNL     1      -5.953  13.513  67.789  1.00  0.00    -0.204 NA 
HETATM    9  C   UNL     1      -6.745  13.336  68.825  1.00  0.00    -0.099 A  
HETATM   10  N   UNL     1      -8.042  13.750  68.521  1.00  0.00    -0.144 NA 
HETATM   11 BR   UNL     1      -6.132  12.369  70.318  1.00  0.00     0.022 Br 
BRANCH  10  12
HETATM   12  C   UNL     1      -9.147  13.877  69.438  1.00  0.00     0.712 A  
HETATM   13  C   UNL     1      -9.287  15.064  70.159  1.00  0.00     0.468 A  
HETATM   14  C   UNL     1     -10.420  15.297  70.933  1.00  0.00     0.151 A  
HETATM   15  C   UNL     1     -11.492  14.394  70.986  1.00  0.00    -0.052 A  
HETATM   16  C   UNL     1     -12.363  12.174  70.386  1.00  0.00    -0.315 A  
HETATM   17  C   UNL     1     -11.341  13.150  70.319  1.00  0.00     0.265 A  
HETATM   18  C   UNL     1     -12.245  10.926  69.779  1.00  0.00    -0.381 A  
HETATM   19  C   UNL     1     -10.147  12.852  69.585  1.00  0.00     1.193 A  
HETATM   20  C   UNL     1     -10.022  11.522  69.094  1.00  0.00     0.050 A  
HETATM   21  C   UNL     1     -11.063  10.590  69.154  1.00  0.00    -0.302 A  
BRANCH  15  22
HETATM   22  C   UNL     1     -12.712  14.802  71.805  1.00  0.00    -0.396 C  
HETATM   23  C   UNL     1     -13.894  15.411  71.071  1.00  0.00    -0.361 C  
HETATM   24  C   UNL     1     -14.035  14.079  71.726  1.00  0.00    -0.470 C  
ENDBRANCH  15  22
ENDBRANCH  10  12
ENDBRANCH   5   6
ENDBRANCH   4   5
TORSDOF 4
ENDMDL
MODEL      268
REMARK 921   NORMALIZED FREE ENERGY PREDICTED BY IDOCK:    3.36 KCAL/MOL
REMARK 922        TOTAL FREE ENERGY PREDICTED BY IDOCK:    3.26 KCAL/MOL
REMARK 923 INTER-LIGAND FREE ENERGY PREDICTED BY IDOCK:    1.65 KCAL/MOL
REMARK 924 INTRA-LIGAND FREE ENERGY PREDICTED BY IDOCK:    1.61 KCAL/MOL
REMARK 927      BINDING AFFINITY PREDICTED BY RF-SCORE:    0.00 PKD
ROOT
HETATM    1  O   UNL     1      -6.937  13.690  71.429  1.00  0.00     1.312 OA 
HETATM    2  C   UNL     1      -7.317  12.865  70.424  1.00  0.00     2.454 C  
HETATM    3  O   UNL     1      -6.928  11.712  70.363  1.00  0.00     0.240 OA 
HETATM    4  C   UNL     1      -8.314  13.465  69.446  1.00  0.00     0.915 C  
ENDROOT
BRANCH   4   5
HETATM    5  S   UNL     1      -8.189  15.297  69.353  1.00  0.00    -0.190 SA 
BRANCH   5   6
HETATM    6  C   UNL     1      -8.895  15.555  67.784  1.00  0.00    -0.172 A  
HETATM    7  N   UNL     1      -8.896  16.749  67.234  1.00  0.00    -0.201 NA 
HETATM    8  N   UNL     1      -9.636  16.683  66.096  1.00  0.00    -0.350 NA 
HETATM    9  C   UNL     1     -10.084  15.452  65.979  1.00  0.00    -0.324 A  
HETATM   10  N   UNL     1      -9.471  14.620  66.917  1.00  0.00    -0.236 NA 
HETATM   11 BR   UNL     1     -11.558  15.092  64.866  1.00  0.00    -0.335 Br 
BRANCH  10  12
HETATM   12  C   UNL     1      -9.565  13.184  66.993  1.00  0.00    -0.241 A  
HETATM   13  C   UNL     1     -10.822  12.603  67.166  1.00  0.00    -0.282 A  
HETATM   14  C   UNL     1     -10.985  11.222  67.084  1.00  0.00    -0.348 A  
HETATM   15  C   UNL     1      -9.926  10.358  66.773  1.00  0.00    -0.256 A  
HETATM   16  C   UNL     1      -7.507  10.090  66.411  1.00  0.00    -0.104 A  
HETATM   17  C   UNL     1      -8.626  10.919  66.665  1.00  0.00    -0.148 A  
HETATM   18  C   UNL     1      -6.210  10.589  66.332  1.00  0.00    -0.095 A  
HETATM   19  C   UNL     1      -8.419  12.328  66.829  1.00  0.00    -0.119 A  
HETATM   20  C   UNL     1      -7.066  12.768  66.867  1.00  0.00     0.312 A  
HETATM   21  C   UNL     1      -5.986  11.926  66.586  1.00  0.00     0.045 A  
BRANCH  15  22
HETATM   22  C   UNL     1     -10.249   8.874  66.632  1.00  0.00    -0.338 C  
HETATM   23  C   UNL     1      -9.585   7.904  67.593  1.00  0.00    -0.183 C  
HETATM   24  C   UNL     1     -11.061   8.109  67.648  1.00  0.00     0.296 C  
ENDBRANCH  15  22
ENDBRANCH  10  12
ENDBRANCH   5   6
ENDBRANCH   4   5
TORSDOF 4
ENDMDL
MODEL      269
REMARK 921   NORMALIZED FREE ENERGY PREDICTED BY IDOCK:    6.36 KCAL/MOL
REMARK 922        TOTAL FREE ENERGY PREDICTED BY IDOCK:    6.97 KCAL/MOL
REMARK 923 INTER-LIGAND FREE ENERGY PREDICTED BY IDOCK:   -1.46 KCAL/MOL
REMARK 924 INTRA-LIGAND FREE ENERGY PREDICTED BY IDOCK:    8.43 KCAL/MOL
REMARK 927      BINDING AFFINITY PREDICTED BY RF-SCORE:    0.00 PKD
ROOT
HETATM    1  O   UNL     1      -6.304   7.186  71.728  1.00  0.00    -0.041 OA 
HETATM    2  C   UNL     1      -5.642   8.130  71.015  1.00  0.00    -0.033 C  
HETATM    3  O   UNL     1      -5.147   7.881  69.931  1.00  0.00    -0.022 OA 
HETATM    4  C   UNL     1      -5.643   9.518  71.636  1.00  0.00    -0.068 C  
ENDROOT
BRANCH   4   5
HETATM    5  S   UNL     1      -5.817   9.467  73.465  1.00  0.00     0.398 SA 
BRANCH   5   6
HETATM    6  C   UNL     1      -6.565   7.907  73.642  1.00  0.00    -0.095 A  
HETATM    7  N   UNL     1      -6.002   6.968  74.369  1.00  0.00    -0.070 NA 
HETATM    8  N   UNL     1      -6.721   5.826  74.205  1.00  0.00    -0.079 NA 
HETATM    9  C   UNL     1      -7.704   6.087  73.370  1.00  0.00    -0.100 A  
HETATM   10  N   UNL     1      -7.790   7.460  73.134  1.00  0.00    -0.092 NA 
HETATM   11 BR   UNL     1      -8.575   4.678  72.478  1.00  0.00    -0.119 Br 
BRANCH  10  12
HETATM   12  C   UNL     1      -8.834   8.152  72.421  1.00  0.00    -0.197 A  
HETATM   13  C   UNL     1      -8.492   9.257  71.639  1.00  0.00     0.332 A  
HETATM   14  C   UNL     1      -9.433   9.859  70.808  1.00  0.00     0.239 A  
HETATM   15  C   UNL     1     -10.738   9.364  70.669  1.00  0.00    -0.353 A  
HETATM   16  C   UNL     1     -12.449   7.781  71.455  1.00  0.00    -0.342 A  
HETATM   17  C   UNL     1     -11.128   8.286  71.507  1.00  0.00    -0.315 A  
HETATM   18  C   UNL     1     -12.888   6.751  72.282  1.00  0.00     0.037 A  
HETATM   19  C   UNL     1     -10.201   7.704  72.432  1.00  0.00    -0.282 A  
HETATM   20  C   UNL     1     -10.733   6.746  73.340  1.00  0.00    -0.332 A  
HETATM   21  C   UNL     1     -12.036   6.250  73.244  1.00  0.00     0.923 A  
BRANCH  15  22
HETATM   22  C   UNL     1     -11.649  10.062  69.665  1.00  0.00    -0.156 C  
HETATM   23  C   UNL     1     -12.170  11.445  70.014  1.00  0.00    -0.377 C  
HETATM   24  C   UNL     1     -11.225  11.274  68.873  1.00  0.00    -0.315 C  
ENDBRANCH  15  22
ENDBRANCH  10  12
ENDBRANCH   5   6
ENDBRANCH   4   5
TORSDOF 4
ENDMDL
MODEL      270
REMARK 921   NORMALIZED FREE ENERGY PREDICTED BY IDOCK:    9.07 KCAL/MOL
REMARK 922        TOTAL FREE ENERGY PREDICTED BY IDOCK:   10.31 KCAL/MOL
REMARK 923 INTER-LIGAND FREE ENERGY PREDICTED BY IDOCK:   10.14 KCAL/MOL
REMARK 924 INTRA-LIGAND FREE ENERGY PREDICTED BY IDOCK:    0.17 KCAL/MOL
REMARK 927      BINDING AFFINITY PREDICTED BY RF-SCORE:    0.00 PKD
ROOT
HETATM    1  O   UNL     1     -12.496  15.742  72.848  1.00  0.00    -0.375 OA 
HETATM    2  C   UNL     1     -13.004  15.549  71.606  1.00  0.00    -0.464 C  
HETATM    3  O   UNL     1     -13.920  16.229  71.178  1.00  0.00     0.725 OA 
HETATM    4  C   UNL     1     -12.292  14.490  70.781  1.00  0.00    -0.340 C  
ENDROOT
BRANCH   4   5
HETATM    5  S   UNL     1     -11.480  13.215  71.828  1.00  0.00     3.645 SA 
BRANCH   5   6
HETATM    6  C   UNL     1     -12.163  11.781  71.119  1.00  0.00    -0.103 A  
HETATM    7  N   UNL     1     -13.331  11.818  70.516  1.00  0.00     0.664 NA 
HETATM    8  N   UNL     1     -13.677  10.542  70.198  1.00  0.00     0.685 NA 
HETATM    9  C   UNL     1     -12.718   9.748  70.625  1.00  0.00    -0.088 A  
HETATM   10  N   UNL     1     -11.614  10.496  71.037  1.00  0.00    -0.300 NA 
HETATM   11 BR   UNL     1     -13.059   7.913  70.866  1.00  0.00     0.242 Br 
BRANCH  10  12
HETATM   12  C   UNL     1     -10.314   9.992  71.401  1.00  0.00     0.871 A  
HETATM   13  C   UNL     1     -10.032   9.781  72.752  1.00  0.00     4.542 A  
HETATM   14  C   UNL     1      -8.856   9.147  73.143  1.00  0.00     1.573 A  
HETATM   15  C   UNL     1      -7.931   8.644  72.216  1.00  0.00    -0.072 A  
HETATM   16  C   UNL     1      -7.234   8.480  69.863  1.00  0.00    -0.051 A  
HETATM   17  C   UNL     1      -8.162   8.911  70.841  1.00  0.00    -0.207 A  
HETATM   18  C   UNL     1      -7.399   8.749  68.507  1.00  0.00    -0.085 A  
HETATM   19  C   UNL     1      -9.324   9.636  70.420  1.00  0.00    -0.268 A  
HETATM   20  C   UNL     1      -9.381   9.995  69.044  1.00  0.00    -0.183 A  
HETATM   21  C   UNL     1      -8.461   9.530  68.099  1.00  0.00    -0.119 A  
BRANCH  15  22
HETATM   22  C   UNL     1      -6.721   7.897  72.768  1.00  0.00    -0.081 C  
HETATM   23  C   UNL     1      -6.080   6.833  71.895  1.00  0.00    -0.038 C  
HETATM   24  C   UNL     1      -5.325   8.076  72.224  1.00  0.00    -0.036 C  
ENDBRANCH  15  22
ENDBRANCH  10  12
ENDBRANCH   5   6
ENDBRANCH   4   5
TORSDOF 4
ENDMDL
MODEL      271
REMARK 921   NORMALIZED FREE ENERGY PREDICTED BY IDOCK:   10.24 KCAL/MOL
REMARK 922        TOTAL FREE ENERGY PREDICTED BY IDOCK:   11.76 KCAL/MOL
REMARK 923 INTER-LIGAND FREE ENERGY PREDICTED BY IDOCK:    8.14 KCAL/MOL
REMARK 924 INTRA-LIGAND FREE ENERGY PREDICTED BY IDOCK:    3.62 KCAL/MOL
REMARK 927      BINDING AFFINITY PREDICTED BY RF-SCORE:    0.00 PKD
ROOT
HETATM    1  O   UNL     1      -6.927  16.025  70.130  1.00  0.00     0.092 OA 
HETATM    2  C   UNL     1      -6.294  15.363  69.131  1.00  0.00    -0.117 C  
HETATM    3  O   UNL     1      -5.156  14.947  69.260  1.00  0.00    -0.091 OA 
HETATM    4  C   UNL     1      -7.138  15.117  67.891  1.00  0.00    -0.146 C  
ENDROOT
BRANCH   4   5
HETATM    5  S   UNL     1      -8.465  16.373  67.686  1.00  0.00    -0.170 SA 
BRANCH   5   6
HETATM    6  C   UNL     1      -9.597  15.446  66.745  1.00  0.00    -0.241 A  
HETATM    7  N   UNL     1      -9.238  14.903  65.603  1.00  0.00     0.003 NA 
HETATM    8  N   UNL     1     -10.350  14.376  65.024  1.00  0.00    -0.424 NA 
HETATM    9  C   UNL     1     -11.370  14.620  65.819  1.00  0.00    -0.340 A  
HETATM   10  N   UNL     1     -10.924  15.119  67.044  1.00  0.00    -0.319 NA 
HETATM   11 BR   UNL     1     -13.125  14.544  65.142  1.00  0.00     0.517 Br 
BRANCH  10  12
HETATM   12  C   UNL     1     -11.715  15.340  68.228  1.00  0.00    -0.301 A  
HETATM   13  C   UNL     1     -12.984  14.764  68.303  1.00  0.00     1.870 A  
HETATM   14  C   UNL     1     -13.720  14.814  69.485  1.00  0.00     2.733 A  
HETATM   15  C   UNL     1     -13.213  15.386  70.660  1.00  0.00    -0.356 A  
HETATM   16  C   UNL     1     -11.419  16.689  71.726  1.00  0.00     0.051 A  
HETATM   17  C   UNL     1     -11.955  16.041  70.588  1.00  0.00    -0.300 A  
HETATM   18  C   UNL     1     -10.208  17.375  71.694  1.00  0.00     4.521 A  
HETATM   19  C   UNL     1     -11.218  16.077  69.360  1.00  0.00    -0.349 A  
HETATM   20  C   UNL     1     -10.053  16.896  69.346  1.00  0.00    -0.162 A  
HETATM   21  C   UNL     1      -9.537  17.500  70.495  1.00  0.00     3.016 A  
BRANCH  15  22
HETATM   22  C   UNL     1     -14.083  15.305  71.910  1.00  0.00    -0.656 C  
HETATM   23  C   UNL     1     -13.986  14.055  72.768  1.00  0.00    -0.223 C  
HETATM   24  C   UNL     1     -13.520  15.364  73.309  1.00  0.00    -0.467 C  
ENDBRANCH  15  22
ENDBRANCH  10  12
ENDBRANCH   5   6
ENDBRANCH   4   5
TORSDOF 4
ENDMDL
MODEL      272
REMARK 921   NORMALIZED FREE ENERGY PREDICTED BY IDOCK:   12.62 KCAL/MOL
REMARK 922        TOTAL FREE ENERGY PREDICTED BY IDOCK:   14.69 KCAL/MOL
REMARK 923 INTER-LIGAND FREE ENERGY PREDICTED BY IDOCK:   14.84 KCAL/MOL
REMARK 924 INTRA-LIGAND FREE ENERGY PREDICTED BY IDOCK:   -0.15 KCAL/MOL
REMARK 927      BINDING AFFINITY PREDICTED BY RF-SCORE:    0.00 PKD
ROOT
HETATM    1  O   UNL     1     -10.810  13.440  72.657  1.00  0.00     5.939 OA 
HETATM    2  C   UNL     1     -11.482  13.548  71.485  1.00  0.00     1.915 C  
HETATM    3  O   UNL     1     -12.605  14.017  71.434  1.00  0.00    -0.341 OA 
HETATM    4  C   UNL     1     -10.700  13.116  70.256  1.00  0.00     1.604 C  
ENDROOT
BRANCH   4   5
HETATM    5  S   UNL     1      -9.406  11.871  70.649  1.00  0.00     7.343 SA 
BRANCH   5   6
HETATM    6  C   UNL     1     -10.402  10.453  70.789  1.00  0.00     0.658 A  
HETATM    7  N   UNL     1     -11.457  10.445  71.573  1.00  0.00     0.053 NA 
HETATM    8  N   UNL     1     -11.948   9.177  71.599  1.00  0.00    -0.342 NA 
HETATM    9  C   UNL     1     -11.175   8.432  70.839  1.00  0.00    -0.262 A  
HETATM   10  N   UNL     1     -10.286   9.231  70.117  1.00  0.00    -0.206 NA 
HETATM   11 BR   UNL     1     -11.186   6.561  71.040  1.00  0.00    -0.383 Br 
BRANCH  10  12
HETATM   12  C   UNL     1      -9.406   8.807  69.058  1.00  0.00    -0.145 A  
HETATM   13  C   UNL     1      -9.687   9.212  67.752  1.00  0.00    -0.188 A  
HETATM   14  C   UNL     1      -8.784   8.965  66.721  1.00  0.00    -0.130 A  
HETATM   15  C   UNL     1      -7.540   8.358  66.942  1.00  0.00    -0.091 A  
HETATM   16  C   UNL     1      -6.050   7.198  68.519  1.00  0.00    -0.030 A  
HETATM   17  C   UNL     1      -7.264   7.873  68.248  1.00  0.00    -0.090 A  
HETATM   18  C   UNL     1      -5.751   6.674  69.773  1.00  0.00    -0.015 A  
HETATM   19  C   UNL     1      -8.214   8.040  69.307  1.00  0.00    -0.127 A  
HETATM   20  C   UNL     1      -7.918   7.377  70.531  1.00  0.00    -0.099 A  
HETATM   21  C   UNL     1      -6.698   6.741  70.775  1.00  0.00    -0.054 A  
BRANCH  15  22
HETATM   22  C   UNL     1      -6.606   8.217  65.744  1.00  0.00    -0.052 C  
HETATM   23  C   UNL     1      -6.175   9.482  65.022  1.00  0.00    -0.078 C  
HETATM   24  C   UNL     1      -5.167   8.673  65.766  1.00  0.00    -0.034 C  
ENDBRANCH  15  22
ENDBRANCH  10  12
ENDBRANCH   5   6
ENDBRANCH   4   5
TORSDOF 4
ENDMDL
MODEL      273
REMARK 921   NORMALIZED FREE ENERGY PREDICTED BY IDOCK:   15.81 KCAL/MOL
REMARK 922        TOTAL FREE ENERGY PREDICTED BY IDOCK:   18.62 KCAL/MOL
REMARK 923 INTER-LIGAND FREE ENERGY PREDICTED BY IDOCK:    9.81 KCAL/MOL
REMARK 924 INTRA-LIGAND FREE ENERGY PREDICTED BY IDOCK:    8.81 KCAL/MOL
REMARK 927      BINDING AFFINITY PREDICTED BY RF-SCORE:    0.00 PKD
ROOT
HETATM    1  O   UNL     1      -9.545  12.059  68.151  1.00  0.00    -0.189 OA 
HETATM    2  C   UNL     1      -9.214  12.460  66.899  1.00  0.00    -0.209 C  
HETATM    3  O   UNL     1      -8.360  13.306  66.705  1.00  0.00     0.017 OA 
HETATM    4  C   UNL     1      -9.927  11.719  65.780  1.00  0.00    -0.238 C  
ENDROOT
BRANCH   4   5
HETATM    5  S   UNL     1     -11.558  11.055  66.307  1.00  0.00     0.945 SA 
BRANCH   5   6
HETATM    6  C   UNL     1     -11.143   9.375  66.485  1.00  0.00     0.729 A  
HETATM    7  N   UNL     1     -11.806   8.445  65.835  1.00  0.00     6.936 NA 
HETATM    8  N   UNL     1     -11.369   7.235  66.277  1.00  0.00     1.780 NA 
HETATM    9  C   UNL     1     -10.455   7.451  67.198  1.00  0.00    -0.333 A  
HETATM   10  N   UNL     1     -10.107   8.803  67.231  1.00  0.00    -0.214 NA 
HETATM   11 BR   UNL     1     -10.010   6.087  68.416  1.00  0.00    -0.192 Br 
BRANCH  10  12
HETATM   12  C   UNL     1      -9.028   9.401  67.976  1.00  0.00    -0.127 A  
HETATM   13  C   UNL     1      -9.253  10.619  68.620  1.00  0.00    -0.181 A  
HETATM   14  C   UNL     1      -8.299  11.156  69.480  1.00  0.00     0.373 A  
HETATM   15  C   UNL     1      -7.104  10.488  69.787  1.00  0.00    -0.150 A  
HETATM   16  C   UNL     1      -5.606   8.596  69.311  1.00  0.00    -0.035 A  
HETATM   17  C   UNL     1      -6.822   9.284  69.089  1.00  0.00    -0.050 A  
HETATM   18  C   UNL     1      -5.269   7.433  68.625  1.00  0.00    -0.021 A  
HETATM   19  C   UNL     1      -7.752   8.755  68.135  1.00  0.00    -0.101 A  
HETATM   20  C   UNL     1      -7.306   7.640  67.371  1.00  0.00    -0.092 A  
HETATM   21  C   UNL     1      -6.109   6.968  67.634  1.00  0.00    -0.033 A  
BRANCH  15  22
HETATM   22  C   UNL     1      -6.178  11.142  70.807  1.00  0.00     0.191 C  
HETATM   23  C   UNL     1      -5.141  12.130  70.300  1.00  0.00    -0.095 C  
HETATM   24  C   UNL     1      -6.255  12.605  71.170  1.00  0.00     1.095 C  
ENDBRANCH  15  22
ENDBRANCH  10  12
ENDBRANCH   5   6
ENDBRANCH   4   5
TORSDOF 4
ENDMDL
MODEL      274
REMARK 921   NORMALIZED FREE ENERGY PREDICTED BY IDOCK:   32.18 KCAL/MOL
REMARK 922        TOTAL FREE ENERGY PREDICTED BY IDOCK:   38.82 KCAL/MOL
REMARK 923 INTER-LIGAND FREE ENERGY PREDICTED BY IDOCK:   31.71 KCAL/MOL
REMARK 924 INTRA-LIGAND FREE ENERGY PREDICTED BY IDOCK:    7.11 KCAL/MOL
REMARK 927      BINDING AFFINITY PREDICTED BY RF-SCORE:    0.00 PKD
ROOT
HETATM    1  O   UNL     1      -9.647  12.023  68.405  1.00  0.00    -0.204 OA 
HETATM    2  C   UNL     1      -9.142  13.053  69.127  1.00  0.00     0.709 C  
HETATM    3  O   UNL     1      -8.010  13.025  69.575  1.00  0.00     0.657 OA 
HETATM    4  C   UNL     1     -10.063  14.255  69.258  1.00  0.00     0.030 C  
ENDROOT
BRANCH   4   5
HETATM    5  S   UNL     1     -11.839  13.796  69.123  1.00  0.00    -0.367 SA 
BRANCH   5   6
HETATM    6  C   UNL     1     -12.563  15.346  69.435  1.00  0.00     0.106 A  
HETATM    7  N   UNL     1     -13.832  15.443  69.761  1.00  0.00     1.319 NA 
HETATM    8  N   UNL     1     -14.154  16.764  69.796  1.00  0.00     6.170 NA 
HETATM    9  C   UNL     1     -13.076  17.448  69.479  1.00  0.00     9.271 A  
HETATM   10  N   UNL     1     -11.961  16.609  69.441  1.00  0.00     0.420 NA 
HETATM   11 BR   UNL     1     -13.235  19.229  68.892  1.00  0.00    15.369 Br 
BRANCH  10  12
HETATM   12  C   UNL     1     -10.582  17.007  69.304  1.00  0.00    -0.276 A  
HETATM   13  C   UNL     1      -9.591  16.185  69.842  1.00  0.00     0.226 A  
HETATM   14  C   UNL     1      -8.244  16.441  69.597  1.00  0.00     0.397 A  
HETATM   15  C   UNL     1      -7.818  17.486  68.766  1.00  0.00    -0.242 A  
HETATM   16  C   UNL     1      -8.429  19.486  67.471  1.00  0.00    -0.339 A  
HETATM   17  C   UNL     1      -8.804  18.378  68.267  1.00  0.00    -0.323 A  
HETATM   18  C   UNL     1      -9.356  20.407  66.990  1.00  0.00    -0.511 A  
HETATM   19  C   UNL     1     -10.190  18.184  68.575  1.00  0.00    -0.399 A  
HETATM   20  C   UNL     1     -11.078  19.220  68.168  1.00  0.00     0.321 A  
HETATM   21  C   UNL     1     -10.679  20.288  67.361  1.00  0.00    -0.085 A  
BRANCH  15  22
HETATM   22  C   UNL     1      -6.319  17.612  68.510  1.00  0.00    -0.185 C  
HETATM   23  C   UNL     1      -5.497  18.444  69.480  1.00  0.00    -0.211 C  
HETATM   24  C   UNL     1      -5.277  16.972  69.394  1.00  0.00    -0.141 C  
ENDBRANCH  15  22
ENDBRANCH  10  12
ENDBRANCH   5   6
ENDBRANCH   4   5
TORSDOF 4
ENDMDL
MODEL      275
REMARK 921   NORMALIZED FREE ENERGY PREDICTED BY IDOCK:   48.08 KCAL/MOL
REMARK 922        TOTAL FREE ENERGY PREDICTED BY IDOCK:   58.44 KCAL/MOL
REMARK 923 INTER-LIGAND FREE ENERGY PREDICTED BY IDOCK:   58.35 KCAL/MOL
REMARK 924 INTRA-LIGAND FREE ENERGY PREDICTED BY IDOCK:    0.09 KCAL/MOL
REMARK 927      BINDING AFFINITY PREDICTED BY RF-SCORE:    0.00 PKD
ROOT
HETATM    1  O   UNL     1     -10.759  14.175  72.427  1.00  0.00     2.841 OA 
HETATM    2  C   UNL     1     -11.709  14.472  71.507  1.00  0.00    -0.119 C  
HETATM    3  O   UNL     1     -12.665  15.175  71.780  1.00  0.00    -0.308 OA 
HETATM    4  C   UNL     1     -11.441  13.929  70.113  1.00  0.00    -0.099 C  
ENDROOT
BRANCH   4   5
HETATM    5  S   UNL     1     -10.393  12.418  70.138  1.00  0.00     2.709 SA 
BRANCH   5   6
HETATM    6  C   UNL     1     -11.507  11.306  70.877  1.00  0.00     0.532 A  
HETATM    7  N   UNL     1     -11.946  11.504  72.100  1.00  0.00     1.751 NA 
HETATM    8  N   UNL     1     -12.671  10.414  72.465  1.00  0.00     0.279 NA 
HETATM    9  C   UNL     1     -12.651   9.563  71.461  1.00  0.00    -0.373 A  
HETATM   10  N   UNL     1     -12.098  10.162  70.328  1.00  0.00    -0.237 NA 
HETATM   11 BR   UNL     1     -13.060   7.751  71.759  1.00  0.00    -0.334 Br 
BRANCH  10  12
HETATM   12  C   UNL     1     -12.061   9.620  68.993  1.00  0.00     1.179 A  
HETATM   13  C   UNL     1     -12.906  10.166  68.025  1.00  0.00     5.898 A  
HETATM   14  C   UNL     1     -12.795   9.789  66.689  1.00  0.00    12.267 A  
HETATM   15  C   UNL     1     -11.810   8.898  66.240  1.00  0.00     6.174 A  
HETATM   16  C   UNL     1     -10.014   7.324  66.831  1.00  0.00    -0.302 A  
HETATM   17  C   UNL     1     -10.987   8.276  67.216  1.00  0.00     0.095 A  
HETATM   18  C   UNL     1      -9.210   6.661  67.754  1.00  0.00    -0.111 A  
HETATM   19  C   UNL     1     -11.139   8.585  68.607  1.00  0.00     0.281 A  
HETATM   20  C   UNL     1     -10.386   7.790  69.517  1.00  0.00    -0.219 A  
HETATM   21  C   UNL     1      -9.414   6.876  69.101  1.00  0.00    -0.142 A  
BRANCH  15  22
HETATM   22  C   UNL     1     -11.740   8.627  64.741  1.00  0.00    13.233 C  
HETATM   23  C   UNL     1     -11.506   9.807  63.813  1.00  0.00     6.944 C  
HETATM   24  C   UNL     1     -10.465   8.747  63.942  1.00  0.00     6.409 C  
ENDBRANCH  15  22
ENDBRANCH  10  12
ENDBRANCH   5   6
ENDBRANCH   4   5
TORSDOF 4
ENDMDL
