MODEL        1
REMARK 921   NORMALIZED FREE ENERGY PREDICTED BY IDOCK:   -7.55 KCAL/MOL
REMARK 922        TOTAL FREE ENERGY PREDICTED BY IDOCK:  -11.43 KCAL/MOL
REMARK 923 INTER-LIGAND FREE ENERGY PREDICTED BY IDOCK:  -10.19 KCAL/MOL
REMARK 924 INTRA-LIGAND FREE ENERGY PREDICTED BY IDOCK:   -1.24 KCAL/MOL
REMARK 927      BINDING AFFINITY PREDICTED BY RF-SCORE:    0.00 PKD
ROOT
HETATM    1  C   UNL     1      -8.519   1.741  70.028  1.00  0.00    -0.047 C  
HETATM    2  O   UNL     1      -9.175   3.004  70.079  1.00  0.00    -0.118 OA 
ENDROOT
BRANCH   2   3
HETATM    3  C   UNL     1      -9.637   3.420  71.302  1.00  0.00    -0.161 A  
HETATM    4  C   UNL     1      -9.724   2.634  72.444  1.00  0.00    -0.206 A  
HETATM    5  C   UNL     1     -10.241   3.188  73.612  1.00  0.00    -0.205 A  
HETATM    6  C   UNL     1     -10.661   4.526  73.642  1.00  0.00    -0.344 A  
HETATM    7  C   UNL     1     -10.569   5.363  72.520  1.00  0.00    -0.227 A  
HETATM    8  C   UNL     1     -10.052   4.763  71.355  1.00  0.00    -0.259 A  
BRANCH   7   9
HETATM    9  N   UNL     1     -10.959   6.686  72.557  1.00  0.00    -0.237 NA 
HETATM   10  C   UNL     1     -10.052   7.789  72.913  1.00  0.00    -0.301 C  
HETATM   11  C   UNL     1      -9.957   8.792  71.754  1.00  0.00    -0.326 C  
HETATM   12  N   UNL     1     -11.270   9.277  71.265  1.00  0.00    -0.324 NA 
HETATM   13  C   UNL     1     -12.331   8.230  71.161  1.00  0.00    -0.206 C  
HETATM   14  C   UNL     1     -12.326   7.157  72.283  1.00  0.00    -0.100 C  
BRANCH  12  15
HETATM   15  C   UNL     1     -11.488  10.536  70.695  1.00  0.00    -0.327 C  
HETATM   16  N   UNL     1     -12.369  11.295  71.306  1.00  0.00    -0.313 NA 
HETATM   17  C   UNL     1     -12.563  12.638  70.930  1.00  0.00    -0.249 A  
HETATM   18  C   UNL     1     -11.796  13.228  69.940  1.00  0.00    -0.380 A  
HETATM   19  C   UNL     1     -11.909  14.614  69.686  1.00  0.00    -0.367 A  
HETATM   20  C   UNL     1     -10.917  12.359  69.063  1.00  0.00    -0.197 C  
HETATM   21  F   UNL     1     -14.312  12.910  72.531  1.00  0.00    -0.502 F  
HETATM   22  C   UNL     1     -12.850  15.394  70.345  1.00  0.00    -0.355 A  
HETATM   23  N   UNL     1     -10.816  10.930  69.519  1.00  0.00    -0.247 NA 
HETATM   24  C   UNL     1     -13.513  13.439  71.591  1.00  0.00    -0.299 A  
HETATM   25  C   UNL     1     -13.672  14.798  71.288  1.00  0.00    -0.476 A  
BRANCH  20  26
HETATM   26  C   UNL     1     -11.422  12.515  67.605  1.00  0.00    -0.392 C  
HETATM   27  O   UNL     1      -9.802  14.263  67.105  1.00  0.00    -0.243 OA 
HETATM   28  C   UNL     1     -10.536  13.244  66.628  1.00  0.00    -0.281 C  
HETATM   29  O   UNL     1     -10.561  12.984  65.430  1.00  0.00    -0.281 OA 
ENDBRANCH  20  26
BRANCH  23  30
HETATM   30  C   UNL     1     -10.211  10.051  68.544  1.00  0.00    -0.175 A  
HETATM   31  C   UNL     1     -10.304   7.911  67.329  1.00  0.00    -0.377 A  
HETATM   32  C   UNL     1     -10.881   8.869  68.173  1.00  0.00    -0.062 A  
HETATM   33  C   UNL     1     -10.793   6.484  67.329  1.00  0.00    -0.390 C  
HETATM   34  C   UNL     1      -9.196   8.268  66.576  1.00  0.00    -0.236 A  
HETATM   35  F   UNL     1     -11.711   6.227  68.297  1.00  0.00    -0.264 F  
HETATM   36  F   UNL     1     -11.357   6.114  66.149  1.00  0.00    -0.082 F  
HETATM   37  F   UNL     1      -9.769   5.612  67.553  1.00  0.00    -0.112 F  
HETATM   38  C   UNL     1      -8.554   9.474  66.829  1.00  0.00    -0.133 A  
HETATM   39  C   UNL     1      -8.974  10.303  67.881  1.00  0.00    -0.131 A  
BRANCH  39  40
HETATM   40  O   UNL     1      -8.256  11.424  68.225  1.00  0.00    -0.134 OA 
HETATM   41  C   UNL     1      -7.155  11.787  67.395  1.00  0.00    -0.126 C  
ENDBRANCH  39  40
ENDBRANCH  23  30
ENDBRANCH  12  15
ENDBRANCH   7   9
ENDBRANCH   2   3
TORSDOF 6
ENDMDL
MODEL        2
REMARK 921   NORMALIZED FREE ENERGY PREDICTED BY IDOCK:   -7.34 KCAL/MOL
REMARK 922        TOTAL FREE ENERGY PREDICTED BY IDOCK:  -11.16 KCAL/MOL
REMARK 923 INTER-LIGAND FREE ENERGY PREDICTED BY IDOCK:   -9.42 KCAL/MOL
REMARK 924 INTRA-LIGAND FREE ENERGY PREDICTED BY IDOCK:   -1.74 KCAL/MOL
REMARK 927      BINDING AFFINITY PREDICTED BY RF-SCORE:    0.00 PKD
ROOT
HETATM    1  C   UNL     1      -6.310  19.231  65.624  1.00  0.00    -0.233 C  
HETATM    2  O   UNL     1      -7.478  20.046  65.606  1.00  0.00    -0.330 OA 
ENDROOT
BRANCH   2   3
HETATM    3  C   UNL     1      -8.606  19.535  66.197  1.00  0.00    -0.308 A  
HETATM    4  C   UNL     1      -9.660  20.283  66.707  1.00  0.00    -0.548 A  
HETATM    5  C   UNL     1     -10.732  19.626  67.306  1.00  0.00    -0.583 A  
HETATM    6  C   UNL     1     -10.755  18.225  67.387  1.00  0.00    -0.377 A  
HETATM    7  C   UNL     1      -9.724  17.431  66.863  1.00  0.00    -0.286 A  
HETATM    8  C   UNL     1      -8.654  18.132  66.276  1.00  0.00    -0.205 A  
BRANCH   7   9
HETATM    9  N   UNL     1      -9.760  16.052  66.920  1.00  0.00    -0.229 NA 
HETATM   10  C   UNL     1      -8.666  15.234  67.470  1.00  0.00    -0.178 C  
HETATM   11  C   UNL     1      -9.177  14.391  68.648  1.00  0.00    -0.181 C  
HETATM   12  N   UNL     1     -10.382  13.587  68.340  1.00  0.00    -0.244 NA 
HETATM   13  C   UNL     1     -11.416  14.287  67.519  1.00  0.00    -0.345 C  
HETATM   14  C   UNL     1     -10.868  15.228  66.412  1.00  0.00    -0.317 C  
BRANCH  12  15
HETATM   15  C   UNL     1     -10.697  12.365  68.944  1.00  0.00    -0.164 C  
HETATM   16  N   UNL     1     -11.517  12.429  69.970  1.00  0.00    -0.118 NA 
HETATM   17  C   UNL     1     -12.037  11.264  70.564  1.00  0.00    -0.387 A  
HETATM   18  C   UNL     1     -11.750  10.007  70.059  1.00  0.00    -0.242 A  
HETATM   19  C   UNL     1     -12.402   8.866  70.582  1.00  0.00     0.086 A  
HETATM   20  C   UNL     1     -10.657   9.854  69.021  1.00  0.00    -0.220 C  
HETATM   21  F   UNL     1     -13.193  12.536  72.220  1.00  0.00    -0.558 F  
HETATM   22  C   UNL     1     -13.264   8.961  71.667  1.00  0.00    -0.411 A  
HETATM   23  N   UNL     1     -10.133  11.157  68.486  1.00  0.00    -0.194 NA 
HETATM   24  C   UNL     1     -12.912  11.347  71.664  1.00  0.00    -0.418 A  
HETATM   25  C   UNL     1     -13.503  10.207  72.225  1.00  0.00    -0.291 A  
BRANCH  20  26
HETATM   26  C   UNL     1      -9.562   8.944  69.634  1.00  0.00    -0.170 C  
HETATM   27  O   UNL     1     -10.301   6.999  68.368  1.00  0.00    -0.178 OA 
HETATM   28  C   UNL     1      -9.268   7.636  68.947  1.00  0.00    -0.139 C  
HETATM   29  O   UNL     1      -8.156   7.123  69.001  1.00  0.00    -0.118 OA 
ENDBRANCH  20  26
BRANCH  23  30
HETATM   30  C   UNL     1      -8.919  11.020  67.711  1.00  0.00    -0.140 A  
HETATM   31  C   UNL     1      -7.881  10.469  65.548  1.00  0.00    -0.138 A  
HETATM   32  C   UNL     1      -9.010  10.734  66.336  1.00  0.00    -0.179 A  
HETATM   33  C   UNL     1      -8.005   9.710  64.249  1.00  0.00    -0.139 C  
HETATM   34  C   UNL     1      -6.630  10.812  66.038  1.00  0.00    -0.113 A  
HETATM   35  F   UNL     1      -9.253   9.221  64.025  1.00  0.00    -0.246 F  
HETATM   36  F   UNL     1      -7.679  10.459  63.162  1.00  0.00    -0.148 F  
HETATM   37  F   UNL     1      -7.177   8.627  64.230  1.00  0.00    -0.087 F  
HETATM   38  C   UNL     1      -6.497  11.203  67.364  1.00  0.00    -0.071 A  
HETATM   39  C   UNL     1      -7.602  11.189  68.231  1.00  0.00    -0.111 A  
BRANCH  39  40
HETATM   40  O   UNL     1      -7.446  11.436  69.574  1.00  0.00    -0.019 OA 
HETATM   41  C   UNL     1      -6.257  10.965  70.202  1.00  0.00    -0.142 C  
ENDBRANCH  39  40
ENDBRANCH  23  30
ENDBRANCH  12  15
ENDBRANCH   7   9
ENDBRANCH   2   3
TORSDOF 6
ENDMDL
MODEL        3
REMARK 921   NORMALIZED FREE ENERGY PREDICTED BY IDOCK:   -7.14 KCAL/MOL
REMARK 922        TOTAL FREE ENERGY PREDICTED BY IDOCK:  -10.88 KCAL/MOL
REMARK 923 INTER-LIGAND FREE ENERGY PREDICTED BY IDOCK:   -9.18 KCAL/MOL
REMARK 924 INTRA-LIGAND FREE ENERGY PREDICTED BY IDOCK:   -1.70 KCAL/MOL
REMARK 927      BINDING AFFINITY PREDICTED BY RF-SCORE:    0.00 PKD
ROOT
HETATM    1  C   UNL     1      -9.677   3.994  64.563  1.00  0.00    -0.182 C  
HETATM    2  O   UNL     1      -9.061   5.140  65.143  1.00  0.00    -0.156 OA 
ENDROOT
BRANCH   2   3
HETATM    3  C   UNL     1      -9.624   5.640  66.290  1.00  0.00    -0.147 A  
HETATM    4  C   UNL     1     -10.183   4.884  67.312  1.00  0.00    -0.190 A  
HETATM    5  C   UNL     1     -10.744   5.532  68.410  1.00  0.00    -0.156 A  
HETATM    6  C   UNL     1     -10.737   6.933  68.490  1.00  0.00    -0.252 A  
HETATM    7  C   UNL     1     -10.161   7.735  67.493  1.00  0.00    -0.235 A  
HETATM    8  C   UNL     1      -9.615   7.043  66.395  1.00  0.00    -0.159 A  
BRANCH   7   9
HETATM    9  N   UNL     1     -10.132   9.112  67.585  1.00  0.00    -0.205 NA 
HETATM   10  C   UNL     1     -11.106   9.991  66.917  1.00  0.00     0.118 C  
HETATM   11  C   UNL     1     -11.851  10.843  67.955  1.00  0.00     0.012 C  
HETATM   12  N   UNL     1     -10.961  11.586  68.878  1.00  0.00    -0.216 NA 
HETATM   13  C   UNL     1      -9.774  10.820  69.365  1.00  0.00    -0.061 C  
HETATM   14  C   UNL     1      -9.115   9.873  68.327  1.00  0.00    -0.122 C  
BRANCH  12  15
HETATM   15  C   UNL     1     -11.282  12.809  69.476  1.00  0.00    -0.077 C  
HETATM   16  N   UNL     1     -12.060  12.742  70.534  1.00  0.00    -0.349 NA 
HETATM   17  C   UNL     1     -12.327  13.879  71.319  1.00  0.00    -0.335 A  
HETATM   18  C   UNL     1     -11.738  15.101  71.042  1.00  0.00    -0.385 A  
HETATM   19  C   UNL     1     -11.905  16.187  71.932  1.00  0.00    -0.605 A  
HETATM   20  C   UNL     1     -11.005  15.293  69.730  1.00  0.00    -0.284 C  
HETATM   21  F   UNL     1     -13.793  12.644  72.740  1.00  0.00    -0.512 F  
HETATM   22  C   UNL     1     -12.733  16.090  73.042  1.00  0.00    -0.593 A  
HETATM   23  N   UNL     1     -10.816  14.028  68.941  1.00  0.00    -0.255 NA 
HETATM   24  C   UNL     1     -13.164  13.793  72.448  1.00  0.00    -0.481 A  
HETATM   25  C   UNL     1     -13.384  14.891  73.289  1.00  0.00    -0.379 A  
BRANCH  20  26
HETATM   26  C   UNL     1     -11.743  16.412  68.949  1.00  0.00    -0.059 C  
HETATM   27  O   UNL     1      -9.853  17.939  69.116  1.00  0.00    -0.267 OA 
HETATM   28  C   UNL     1     -10.918  17.545  68.397  1.00  0.00    -0.054 C  
HETATM   29  O   UNL     1     -11.262  18.151  67.388  1.00  0.00    -0.070 OA 
ENDBRANCH  20  26
BRANCH  23  30
HETATM   30  C   UNL     1     -10.369  14.251  67.585  1.00  0.00    -0.248 A  
HETATM   31  C   UNL     1     -10.840  14.043  65.177  1.00  0.00    -0.376 A  
HETATM   32  C   UNL     1     -11.243  13.968  66.517  1.00  0.00    -0.326 A  
HETATM   33  C   UNL     1     -11.589  13.296  64.101  1.00  0.00    -0.405 C  
HETATM   34  C   UNL     1      -9.671  14.721  64.869  1.00  0.00     0.295 A  
HETATM   35  F   UNL     1     -12.557  12.475  64.586  1.00  0.00    -0.493 F  
HETATM   36  F   UNL     1     -12.191  14.120  63.201  1.00  0.00    -0.280 F  
HETATM   37  F   UNL     1     -10.752  12.494  63.384  1.00  0.00    -0.431 F  
HETATM   38  C   UNL     1      -8.819  15.118  65.892  1.00  0.00     0.231 A  
HETATM   39  C   UNL     1      -9.094  14.781  67.227  1.00  0.00    -0.204 A  
BRANCH  39  40
HETATM   40  O   UNL     1      -8.185  15.045  68.223  1.00  0.00    -0.136 OA 
HETATM   41  C   UNL     1      -6.909  15.552  67.839  1.00  0.00    -0.148 C  
ENDBRANCH  39  40
ENDBRANCH  23  30
ENDBRANCH  12  15
ENDBRANCH   7   9
ENDBRANCH   2   3
TORSDOF 6
ENDMDL
MODEL        4
REMARK 921   NORMALIZED FREE ENERGY PREDICTED BY IDOCK:   -7.03 KCAL/MOL
REMARK 922        TOTAL FREE ENERGY PREDICTED BY IDOCK:  -10.73 KCAL/MOL
REMARK 923 INTER-LIGAND FREE ENERGY PREDICTED BY IDOCK:   -8.78 KCAL/MOL
REMARK 924 INTRA-LIGAND FREE ENERGY PREDICTED BY IDOCK:   -1.95 KCAL/MOL
REMARK 927      BINDING AFFINITY PREDICTED BY RF-SCORE:    0.00 PKD
ROOT
HETATM    1  C   UNL     1     -10.651  19.954  66.588  1.00  0.00    -0.421 C  
HETATM    2  O   UNL     1     -10.847  18.730  67.289  1.00  0.00    -0.443 OA 
ENDROOT
BRANCH   2   3
HETATM    3  C   UNL     1      -9.734  18.124  67.814  1.00  0.00    -0.293 A  
HETATM    4  C   UNL     1      -8.597  18.779  68.273  1.00  0.00    -0.357 A  
HETATM    5  C   UNL     1      -7.529  18.028  68.756  1.00  0.00    -0.271 A  
HETATM    6  C   UNL     1      -7.600  16.627  68.791  1.00  0.00    -0.227 A  
HETATM    7  C   UNL     1      -8.737  15.926  68.362  1.00  0.00    -0.183 A  
HETATM    8  C   UNL     1      -9.791  16.719  67.869  1.00  0.00    -0.257 A  
BRANCH   7   9
HETATM    9  N   UNL     1      -8.816  14.549  68.420  1.00  0.00    -0.175 NA 
HETATM   10  C   UNL     1     -10.083  13.805  68.330  1.00  0.00    -0.241 C  
HETATM   11  C   UNL     1     -10.049  12.846  67.131  1.00  0.00    -0.243 C  
HETATM   12  N   UNL     1      -8.867  11.952  67.103  1.00  0.00    -0.174 NA 
HETATM   13  C   UNL     1      -7.575  12.603  67.479  1.00  0.00    -0.160 C  
HETATM   14  C   UNL     1      -7.661  13.659  68.614  1.00  0.00    -0.115 C  
BRANCH  12  15
HETATM   15  C   UNL     1      -8.854  10.671  66.542  1.00  0.00    -0.151 C  
HETATM   16  N   UNL     1      -8.838  10.623  65.228  1.00  0.00    -0.186 NA 
HETATM   17  C   UNL     1      -8.664   9.406  64.543  1.00  0.00    -0.203 A  
HETATM   18  C   UNL     1      -8.446   8.220  65.224  1.00  0.00    -0.179 A  
HETATM   19  C   UNL     1      -8.125   7.041  64.511  1.00  0.00    -0.069 A  
HETATM   20  C   UNL     1      -8.658   8.173  66.723  1.00  0.00    -0.132 C  
HETATM   21  F   UNL     1      -8.898  10.480  62.425  1.00  0.00    -0.178 F  
HETATM   22  C   UNL     1      -8.117   7.017  63.123  1.00  0.00    -0.007 A  
HETATM   23  N   UNL     1      -8.888   9.518  67.353  1.00  0.00    -0.128 NA 
HETATM   24  C   UNL     1      -8.652   9.369  63.136  1.00  0.00    -0.219 A  
HETATM   25  C   UNL     1      -8.404   8.183  62.431  1.00  0.00    -0.142 A  
BRANCH  20  26
HETATM   26  C   UNL     1      -9.794   7.153  66.997  1.00  0.00    -0.257 C  
HETATM   27  O   UNL     1      -8.231   5.424  67.704  1.00  0.00    -0.101 OA 
HETATM   28  C   UNL     1      -9.465   5.942  67.830  1.00  0.00    -0.110 C  
HETATM   29  O   UNL     1     -10.318   5.391  68.518  1.00  0.00    -0.180 OA 
ENDBRANCH  20  26
BRANCH  23  30
HETATM   30  C   UNL     1      -9.357   9.448  68.718  1.00  0.00    -0.146 A  
HETATM   31  C   UNL     1     -11.221   9.756  70.299  1.00  0.00    -0.347 A  
HETATM   32  C   UNL     1     -10.718   9.688  68.992  1.00  0.00    -0.232 A  
HETATM   33  C   UNL     1     -12.516  10.472  70.592  1.00  0.00    -0.366 C  
HETATM   34  C   UNL     1     -10.449   9.257  71.337  1.00  0.00    -0.408 A  
HETATM   35  F   UNL     1     -13.029  11.126  69.518  1.00  0.00    -0.118 F  
HETATM   36  F   UNL     1     -13.493   9.641  71.045  1.00  0.00    -0.403 F  
HETATM   37  F   UNL     1     -12.347  11.422  71.555  1.00  0.00    -0.396 F  
HETATM   38  C   UNL     1      -9.126   8.904  71.100  1.00  0.00    -0.315 A  
HETATM   39  C   UNL     1      -8.543   9.112  69.840  1.00  0.00    -0.150 A  
BRANCH  39  40
HETATM   40  O   UNL     1      -7.199   8.900  69.643  1.00  0.00    -0.053 OA 
HETATM   41  C   UNL     1      -6.673   7.618  69.978  1.00  0.00    -0.049 C  
ENDBRANCH  39  40
ENDBRANCH  23  30
ENDBRANCH  12  15
ENDBRANCH   7   9
ENDBRANCH   2   3
TORSDOF 6
ENDMDL
MODEL        5
REMARK 921   NORMALIZED FREE ENERGY PREDICTED BY IDOCK:   -6.91 KCAL/MOL
REMARK 922        TOTAL FREE ENERGY PREDICTED BY IDOCK:  -10.58 KCAL/MOL
REMARK 923 INTER-LIGAND FREE ENERGY PREDICTED BY IDOCK:  -10.14 KCAL/MOL
REMARK 924 INTRA-LIGAND FREE ENERGY PREDICTED BY IDOCK:   -0.44 KCAL/MOL
REMARK 927      BINDING AFFINITY PREDICTED BY RF-SCORE:    0.00 PKD
ROOT
HETATM    1  C   UNL     1     -11.166   4.676  73.449  1.00  0.00    -0.338 C  
HETATM    2  O   UNL     1     -10.383   3.704  72.764  1.00  0.00    -0.161 OA 
ENDROOT
BRANCH   2   3
HETATM    3  C   UNL     1      -9.980   4.010  71.489  1.00  0.00    -0.150 A  
HETATM    4  C   UNL     1      -9.658   3.089  70.500  1.00  0.00    -0.187 A  
HETATM    5  C   UNL     1      -9.236   3.548  69.255  1.00  0.00    -0.230 A  
HETATM    6  C   UNL     1      -9.147   4.924  68.995  1.00  0.00    -0.150 A  
HETATM    7  C   UNL     1      -9.486   5.889  69.956  1.00  0.00    -0.159 A  
HETATM    8  C   UNL     1      -9.896   5.385  71.205  1.00  0.00    -0.235 A  
BRANCH   7   9
HETATM    9  N   UNL     1      -9.422   7.242  69.691  1.00  0.00    -0.156 NA 
HETATM   10  C   UNL     1      -9.900   7.846  68.437  1.00  0.00    -0.173 C  
HETATM   11  C   UNL     1     -10.999   8.878  68.732  1.00  0.00     0.100 C  
HETATM   12  N   UNL     1     -10.619   9.896  69.740  1.00  0.00    -0.245 NA 
HETATM   13  C   UNL     1      -9.860   9.369  70.914  1.00  0.00    -0.268 C  
HETATM   14  C   UNL     1      -8.841   8.240  70.603  1.00  0.00    -0.143 C  
BRANCH  12  15
HETATM   15  C   UNL     1     -11.114  11.204  69.772  1.00  0.00    -0.202 C  
HETATM   16  N   UNL     1     -12.022  11.450  70.690  1.00  0.00    -0.352 NA 
HETATM   17  C   UNL     1     -12.482  12.758  70.932  1.00  0.00    -0.283 A  
HETATM   18  C   UNL     1     -11.958  13.844  70.252  1.00  0.00    -0.401 A  
HETATM   19  C   UNL     1     -12.330  15.158  70.619  1.00  0.00    -0.420 A  
HETATM   20  C   UNL     1     -11.069  13.609  69.048  1.00  0.00    -0.255 C  
HETATM   21  F   UNL     1     -14.028  11.987  72.578  1.00  0.00    -0.353 F  
HETATM   22  C   UNL     1     -13.293  15.390  71.593  1.00  0.00    -0.578 A  
HETATM   23  N   UNL     1     -10.675  12.173  68.846  1.00  0.00    -0.206 NA 
HETATM   24  C   UNL     1     -13.457  13.005  71.917  1.00  0.00    -0.408 A  
HETATM   25  C   UNL     1     -13.876  14.305  72.230  1.00  0.00    -0.622 A  
BRANCH  20  26
HETATM   26  C   UNL     1     -11.778  14.241  67.821  1.00  0.00    -0.408 C  
HETATM   27  O   UNL     1     -10.371  16.228  67.882  1.00  0.00    -0.267 OA 
HETATM   28  C   UNL     1     -11.088  15.383  67.122  1.00  0.00    -0.291 C  
HETATM   29  O   UNL     1     -11.257  15.593  65.925  1.00  0.00    -0.214 OA 
ENDBRANCH  20  26
BRANCH  23  30
HETATM   30  C   UNL     1     -10.065  11.913  67.561  1.00  0.00    -0.193 A  
HETATM   31  C   UNL     1     -10.293  11.916  65.109  1.00  0.00    -0.318 A  
HETATM   32  C   UNL     1     -10.766  12.247  66.386  1.00  0.00    -0.284 A  
HETATM   33  C   UNL     1     -11.234  11.835  63.933  1.00  0.00    -0.414 C  
HETATM   34  C   UNL     1      -8.964  11.549  64.965  1.00  0.00     0.137 A  
HETATM   35  F   UNL     1     -12.541  11.973  64.275  1.00  0.00    -0.477 F  
HETATM   36  F   UNL     1     -10.979  12.772  62.981  1.00  0.00    -0.386 F  
HETATM   37  F   UNL     1     -11.142  10.624  63.311  1.00  0.00    -0.021 F  
HETATM   38  C   UNL     1      -8.193  11.306  66.096  1.00  0.00    -0.088 A  
HETATM   39  C   UNL     1      -8.762  11.363  67.378  1.00  0.00    -0.145 A  
BRANCH  39  40
HETATM   40  O   UNL     1      -8.042  10.985  68.486  1.00  0.00    -0.125 OA 
HETATM   41  C   UNL     1      -6.932  10.112  68.290  1.00  0.00    -0.070 C  
ENDBRANCH  39  40
ENDBRANCH  23  30
ENDBRANCH  12  15
ENDBRANCH   7   9
ENDBRANCH   2   3
TORSDOF 6
ENDMDL
MODEL        6
REMARK 921   NORMALIZED FREE ENERGY PREDICTED BY IDOCK:   -6.83 KCAL/MOL
REMARK 922        TOTAL FREE ENERGY PREDICTED BY IDOCK:  -10.46 KCAL/MOL
REMARK 923 INTER-LIGAND FREE ENERGY PREDICTED BY IDOCK:   -8.85 KCAL/MOL
REMARK 924 INTRA-LIGAND FREE ENERGY PREDICTED BY IDOCK:   -1.60 KCAL/MOL
REMARK 927      BINDING AFFINITY PREDICTED BY RF-SCORE:    0.00 PKD
ROOT
HETATM    1  C   UNL     1     -10.541  17.831  67.896  1.00  0.00    -0.382 C  
HETATM    2  O   UNL     1     -10.419  17.360  69.234  1.00  0.00    -0.341 OA 
ENDROOT
BRANCH   2   3
HETATM    3  C   UNL     1     -11.015  16.161  69.533  1.00  0.00    -0.341 A  
HETATM    4  C   UNL     1     -12.064  15.980  70.427  1.00  0.00    -0.198 A  
HETATM    5  C   UNL     1     -12.551  14.695  70.651  1.00  0.00    -0.419 A  
HETATM    6  C   UNL     1     -11.999  13.595  69.977  1.00  0.00    -0.413 A  
HETATM    7  C   UNL     1     -10.957  13.735  69.048  1.00  0.00    -0.243 A  
HETATM    8  C   UNL     1     -10.484  15.047  68.858  1.00  0.00    -0.241 A  
BRANCH   7   9
HETATM    9  N   UNL     1     -10.432  12.655  68.366  1.00  0.00    -0.234 NA 
HETATM   10  C   UNL     1      -9.002  12.303  68.384  1.00  0.00    -0.141 C  
HETATM   11  C   UNL     1      -8.814  10.885  68.944  1.00  0.00    -0.138 C  
HETATM   12  N   UNL     1      -9.641   9.854  68.273  1.00  0.00    -0.139 NA 
HETATM   13  C   UNL     1     -11.042  10.273  67.963  1.00  0.00    -0.274 C  
HETATM   14  C   UNL     1     -11.218  11.749  67.515  1.00  0.00    -0.291 C  
BRANCH  12  15
HETATM   15  C   UNL     1      -9.281   8.509  68.143  1.00  0.00    -0.137 C  
HETATM   16  N   UNL     1      -9.040   8.097  66.919  1.00  0.00    -0.147 NA 
HETATM   17  C   UNL     1      -8.516   6.814  66.669  1.00  0.00    -0.120 A  
HETATM   18  C   UNL     1      -8.183   5.957  67.704  1.00  0.00    -0.105 A  
HETATM   19  C   UNL     1      -7.521   4.737  67.430  1.00  0.00    -0.082 A  
HETATM   20  C   UNL     1      -8.626   6.286  69.115  1.00  0.00    -0.120 C  
HETATM   21  F   UNL     1      -8.606   7.158  64.309  1.00  0.00     0.011 F  
HETATM   22  C   UNL     1      -7.279   4.325  66.126  1.00  0.00    -0.075 A  
HETATM   23  N   UNL     1      -9.219   7.659  69.267  1.00  0.00    -0.145 NA 
HETATM   24  C   UNL     1      -8.265   6.385  65.352  1.00  0.00    -0.142 A  
HETATM   25  C   UNL     1      -7.674   5.144  65.080  1.00  0.00    -0.085 A  
BRANCH  20  26
HETATM   26  C   UNL     1      -9.566   5.144  69.581  1.00  0.00    -0.234 C  
HETATM   27  O   UNL     1      -7.813   4.078  70.894  1.00  0.00    -0.054 OA 
HETATM   28  C   UNL     1      -9.130   4.312  70.759  1.00  0.00    -0.112 C  
HETATM   29  O   UNL     1      -9.948   3.785  71.505  1.00  0.00    -0.179 OA 
ENDBRANCH  20  26
BRANCH  23  30
HETATM   30  C   UNL     1      -9.884   7.867  70.534  1.00  0.00    -0.186 A  
HETATM   31  C   UNL     1     -11.941   8.510  71.725  1.00  0.00    -0.393 A  
HETATM   32  C   UNL     1     -11.258   8.177  70.547  1.00  0.00    -0.249 A  
HETATM   33  C   UNL     1     -13.232   9.289  71.676  1.00  0.00    -0.388 C  
HETATM   34  C   UNL     1     -11.352   8.213  72.944  1.00  0.00    -0.301 A  
HETATM   35  F   UNL     1     -13.554   9.727  70.431  1.00  0.00    -0.202 F  
HETATM   36  F   UNL     1     -14.300   8.579  72.128  1.00  0.00    -0.437 F  
HETATM   37  F   UNL     1     -13.162  10.409  72.452  1.00  0.00    -0.508 F  
HETATM   38  C   UNL     1     -10.026   7.801  72.982  1.00  0.00    -0.356 A  
HETATM   39  C   UNL     1      -9.257   7.746  71.809  1.00  0.00    -0.141 A  
BRANCH  39  40
HETATM   40  O   UNL     1      -7.910   7.478  71.861  1.00  0.00    -0.086 OA 
HETATM   41  C   UNL     1      -7.412   6.801  73.012  1.00  0.00    -0.086 C  
ENDBRANCH  39  40
ENDBRANCH  23  30
ENDBRANCH  12  15
ENDBRANCH   7   9
ENDBRANCH   2   3
TORSDOF 6
ENDMDL
MODEL        7
REMARK 921   NORMALIZED FREE ENERGY PREDICTED BY IDOCK:   -6.79 KCAL/MOL
REMARK 922        TOTAL FREE ENERGY PREDICTED BY IDOCK:  -10.41 KCAL/MOL
REMARK 923 INTER-LIGAND FREE ENERGY PREDICTED BY IDOCK:   -9.44 KCAL/MOL
REMARK 924 INTRA-LIGAND FREE ENERGY PREDICTED BY IDOCK:   -0.97 KCAL/MOL
REMARK 927      BINDING AFFINITY PREDICTED BY RF-SCORE:    0.00 PKD
ROOT
HETATM    1  C   UNL     1      -9.923  18.616  66.475  1.00  0.00    -0.380 C  
HETATM    2  O   UNL     1      -8.727  18.835  65.734  1.00  0.00    -0.412 OA 
ENDROOT
BRANCH   2   3
HETATM    3  C   UNL     1      -7.616  18.128  66.116  1.00  0.00    -0.243 A  
HETATM    4  C   UNL     1      -6.300  18.474  65.833  1.00  0.00    -0.273 A  
HETATM    5  C   UNL     1      -5.270  17.642  66.264  1.00  0.00    -0.226 A  
HETATM    6  C   UNL     1      -5.554  16.471  66.983  1.00  0.00    -0.105 A  
HETATM    7  C   UNL     1      -6.865  16.095  67.312  1.00  0.00    -0.201 A  
HETATM    8  C   UNL     1      -7.878  16.956  66.849  1.00  0.00    -0.252 A  
BRANCH   7   9
HETATM    9  N   UNL     1      -7.141  14.957  68.042  1.00  0.00    -0.121 NA 
HETATM   10  C   UNL     1      -8.335  14.808  68.891  1.00  0.00    -0.163 C  
HETATM   11  C   UNL     1      -9.175  13.612  68.417  1.00  0.00    -0.169 C  
HETATM   12  N   UNL     1      -8.411  12.348  68.291  1.00  0.00    -0.176 NA 
HETATM   13  C   UNL     1      -7.050  12.491  67.691  1.00  0.00    -0.139 C  
HETATM   14  C   UNL     1      -6.271  13.772  68.093  1.00  0.00    -0.126 C  
BRANCH  12  15
HETATM   15  C   UNL     1      -8.956  11.072  68.462  1.00  0.00    -0.163 C  
HETATM   16  N   UNL     1      -8.617  10.449  69.569  1.00  0.00    -0.136 NA 
HETATM   17  C   UNL     1      -9.220   9.231  69.937  1.00  0.00    -0.195 A  
HETATM   18  C   UNL     1     -10.231   8.669  69.178  1.00  0.00    -0.215 A  
HETATM   19  C   UNL     1     -10.920   7.526  69.648  1.00  0.00    -0.164 A  
HETATM   20  C   UNL     1     -10.521   9.221  67.797  1.00  0.00    -0.255 C  
HETATM   21  F   UNL     1      -7.842   9.053  71.878  1.00  0.00    -0.132 F  
HETATM   22  C   UNL     1     -10.541   6.887  70.821  1.00  0.00    -0.245 A  
HETATM   23  N   UNL     1      -9.789  10.496  67.481  1.00  0.00    -0.165 NA 
HETATM   24  C   UNL     1      -8.844   8.574  71.125  1.00  0.00    -0.179 A  
HETATM   25  C   UNL     1      -9.482   7.402  71.553  1.00  0.00    -0.162 A  
BRANCH  20  26
HETATM   26  C   UNL     1     -10.258   8.081  66.780  1.00  0.00    -0.367 C  
HETATM   27  O   UNL     1      -7.958   7.786  67.524  1.00  0.00    -0.119 OA 
HETATM   28  C   UNL     1      -9.051   7.206  67.000  1.00  0.00    -0.134 C  
HETATM   29  O   UNL     1      -9.033   6.039  66.623  1.00  0.00    -0.120 OA 
ENDBRANCH  20  26
BRANCH  23  30
HETATM   30  C   UNL     1      -9.850  10.869  66.085  1.00  0.00    -0.222 A  
HETATM   31  C   UNL     1     -11.124  11.935  64.268  1.00  0.00    -0.418 A  
HETATM   32  C   UNL     1     -10.935  11.639  65.625  1.00  0.00    -0.322 A  
HETATM   33  C   UNL     1     -12.486  12.318  63.743  1.00  0.00    -0.515 C  
HETATM   34  C   UNL     1     -10.064  11.757  63.393  1.00  0.00    -0.470 A  
HETATM   35  F   UNL     1     -13.474  12.205  64.668  1.00  0.00    -0.271 F  
HETATM   36  F   UNL     1     -12.536  13.593  63.273  1.00  0.00    -0.542 F  
HETATM   37  F   UNL     1     -12.858  11.513  62.707  1.00  0.00    -0.503 F  
HETATM   38  C   UNL     1      -8.922  11.093  63.825  1.00  0.00    -0.010 A  
HETATM   39  C   UNL     1      -8.857  10.542  65.114  1.00  0.00    -0.190 A  
BRANCH  39  40
HETATM   40  O   UNL     1      -7.790   9.764  65.494  1.00  0.00    -0.112 OA 
HETATM   41  C   UNL     1      -6.524  10.035  64.898  1.00  0.00    -0.125 C  
ENDBRANCH  39  40
ENDBRANCH  23  30
ENDBRANCH  12  15
ENDBRANCH   7   9
ENDBRANCH   2   3
TORSDOF 6
ENDMDL
MODEL        8
REMARK 921   NORMALIZED FREE ENERGY PREDICTED BY IDOCK:   -6.77 KCAL/MOL
REMARK 922        TOTAL FREE ENERGY PREDICTED BY IDOCK:  -10.38 KCAL/MOL
REMARK 923 INTER-LIGAND FREE ENERGY PREDICTED BY IDOCK:   -9.55 KCAL/MOL
REMARK 924 INTRA-LIGAND FREE ENERGY PREDICTED BY IDOCK:   -0.83 KCAL/MOL
REMARK 927      BINDING AFFINITY PREDICTED BY RF-SCORE:    0.00 PKD
ROOT
HETATM    1  C   UNL     1      -8.550   3.011  70.526  1.00  0.00    -0.063 C  
HETATM    2  O   UNL     1      -9.894   3.374  70.829  1.00  0.00    -0.160 OA 
ENDROOT
BRANCH   2   3
HETATM    3  C   UNL     1     -10.087   4.250  71.866  1.00  0.00    -0.167 A  
HETATM    4  C   UNL     1     -10.267   3.899  73.198  1.00  0.00    -0.224 A  
HETATM    5  C   UNL     1     -10.480   4.900  74.143  1.00  0.00    -0.335 A  
HETATM    6  C   UNL     1     -10.504   6.249  73.758  1.00  0.00    -0.304 A  
HETATM    7  C   UNL     1     -10.302   6.651  72.429  1.00  0.00    -0.195 A  
HETATM    8  C   UNL     1     -10.101   5.609  71.503  1.00  0.00    -0.253 A  
BRANCH   7   9
HETATM    9  N   UNL     1     -10.300   7.980  72.056  1.00  0.00    -0.218 NA 
HETATM   10  C   UNL     1      -9.072   8.780  71.914  1.00  0.00    -0.220 C  
HETATM   11  C   UNL     1      -8.953   9.316  70.480  1.00  0.00    -0.250 C  
HETATM   12  N   UNL     1     -10.155  10.038  70.002  1.00  0.00    -0.253 NA 
HETATM   13  C   UNL     1     -11.459   9.412  70.378  1.00  0.00    -0.223 C  
HETATM   14  C   UNL     1     -11.512   8.770  71.790  1.00  0.00    -0.342 C  
BRANCH  12  15
HETATM   15  C   UNL     1     -10.136  11.077  69.065  1.00  0.00    -0.180 C  
HETATM   16  N   UNL     1     -10.809  12.157  69.394  1.00  0.00    -0.056 NA 
HETATM   17  C   UNL     1     -10.739  13.328  68.616  1.00  0.00    -0.259 A  
HETATM   18  C   UNL     1      -9.917  13.407  67.505  1.00  0.00    -0.230 A  
HETATM   19  C   UNL     1      -9.753  14.639  66.830  1.00  0.00    -0.249 A  
HETATM   20  C   UNL     1      -9.284  12.145  66.957  1.00  0.00    -0.202 C  
HETATM   21  F   UNL     1     -12.310  14.444  70.024  1.00  0.00    -0.336 F  
HETATM   22  C   UNL     1     -10.477  15.766  67.199  1.00  0.00    -0.309 A  
HETATM   23  N   UNL     1      -9.458  10.939  67.836  1.00  0.00    -0.157 NA 
HETATM   24  C   UNL     1     -11.467  14.477  68.980  1.00  0.00    -0.290 A  
HETATM   25  C   UNL     1     -11.356  15.678  68.267  1.00  0.00    -0.357 A  
BRANCH  20  26
HETATM   26  C   UNL     1      -9.818  11.949  65.514  1.00  0.00    -0.257 C  
HETATM   27  O   UNL     1     -12.139  11.910  66.252  1.00  0.00    -0.535 OA 
HETATM   28  C   UNL     1     -11.280  12.214  65.264  1.00  0.00    -0.332 C  
HETATM   29  O   UNL     1     -11.681  12.595  64.169  1.00  0.00    -0.343 OA 
ENDBRANCH  20  26
BRANCH  23  30
HETATM   30  C   UNL     1      -9.099   9.695  67.193  1.00  0.00    -0.134 A  
HETATM   31  C   UNL     1      -9.737   7.386  66.620  1.00  0.00    -0.262 A  
HETATM   32  C   UNL     1     -10.050   8.659  67.119  1.00  0.00    -0.329 A  
HETATM   33  C   UNL     1     -10.576   6.186  66.983  1.00  0.00    -0.315 C  
HETATM   34  C   UNL     1      -8.574   7.227  65.883  1.00  0.00    -0.159 A  
HETATM   35  F   UNL     1     -11.530   6.454  67.913  1.00  0.00    -0.385 F  
HETATM   36  F   UNL     1     -11.216   5.642  65.914  1.00  0.00    -0.117 F  
HETATM   37  F   UNL     1      -9.810   5.193  67.517  1.00  0.00    -0.140 F  
HETATM   38  C   UNL     1      -7.645   8.258  65.836  1.00  0.00    -0.082 A  
HETATM   39  C   UNL     1      -7.838   9.433  66.580  1.00  0.00    -0.104 A  
BRANCH  39  40
HETATM   40  O   UNL     1      -6.856  10.392  66.650  1.00  0.00    -0.088 OA 
HETATM   41  C   UNL     1      -5.948  10.493  65.556  1.00  0.00    -0.134 C  
ENDBRANCH  39  40
ENDBRANCH  23  30
ENDBRANCH  12  15
ENDBRANCH   7   9
ENDBRANCH   2   3
TORSDOF 6
ENDMDL
MODEL        9
REMARK 921   NORMALIZED FREE ENERGY PREDICTED BY IDOCK:   -6.75 KCAL/MOL
REMARK 922        TOTAL FREE ENERGY PREDICTED BY IDOCK:  -10.36 KCAL/MOL
REMARK 923 INTER-LIGAND FREE ENERGY PREDICTED BY IDOCK:   -8.32 KCAL/MOL
REMARK 924 INTRA-LIGAND FREE ENERGY PREDICTED BY IDOCK:   -2.03 KCAL/MOL
REMARK 927      BINDING AFFINITY PREDICTED BY RF-SCORE:    0.00 PKD
ROOT
HETATM    1  C   UNL     1     -10.008   3.995  72.796  1.00  0.00    -0.150 C  
HETATM    2  O   UNL     1     -10.176   2.779  72.074  1.00  0.00    -0.151 OA 
ENDROOT
BRANCH   2   3
HETATM    3  C   UNL     1      -9.378   2.587  70.975  1.00  0.00    -0.144 A  
HETATM    4  C   UNL     1      -8.514   1.517  70.780  1.00  0.00    -0.076 A  
HETATM    5  C   UNL     1      -7.743   1.470  69.621  1.00  0.00    -0.043 A  
HETATM    6  C   UNL     1      -7.841   2.484  68.656  1.00  0.00    -0.058 A  
HETATM    7  C   UNL     1      -8.719   3.569  68.801  1.00  0.00    -0.099 A  
HETATM    8  C   UNL     1      -9.472   3.587  69.990  1.00  0.00    -0.253 A  
BRANCH   7   9
HETATM    9  N   UNL     1      -8.834   4.552  67.839  1.00  0.00    -0.104 NA 
HETATM   10  C   UNL     1     -10.077   4.818  67.096  1.00  0.00    -0.168 C  
HETATM   11  C   UNL     1     -10.536   6.264  67.333  1.00  0.00    -0.291 C  
HETATM   12  N   UNL     1      -9.493   7.282  67.068  1.00  0.00    -0.148 NA 
HETATM   13  C   UNL     1      -8.125   6.924  67.553  1.00  0.00    -0.116 C  
HETATM   14  C   UNL     1      -7.733   5.429  67.412  1.00  0.00    -0.096 C  
BRANCH  12  15
HETATM   15  C   UNL     1      -9.749   8.587  66.634  1.00  0.00    -0.249 C  
HETATM   16  N   UNL     1      -9.360   8.870  65.411  1.00  0.00    -0.154 NA 
HETATM   17  C   UNL     1      -9.700  10.093  64.801  1.00  0.00    -0.322 A  
HETATM   18  C   UNL     1     -10.502  11.020  65.442  1.00  0.00    -0.306 A  
HETATM   19  C   UNL     1     -10.950  12.170  64.750  1.00  0.00    -0.356 A  
HETATM   20  C   UNL     1     -10.807  10.848  66.916  1.00  0.00    -0.249 C  
HETATM   21  F   UNL     1      -8.461   9.539  62.837  1.00  0.00    -0.144 F  
HETATM   22  C   UNL     1     -10.523  12.447  63.458  1.00  0.00    -0.430 A  
HETATM   23  N   UNL     1     -10.359   9.532  67.486  1.00  0.00    -0.232 NA 
HETATM   24  C   UNL     1      -9.274  10.384  63.491  1.00  0.00    -0.282 A  
HETATM   25  C   UNL     1      -9.662  11.559  62.833  1.00  0.00    -0.302 A  
BRANCH  20  26
HETATM   26  C   UNL     1     -10.223  12.080  67.655  1.00  0.00    -0.210 C  
HETATM   27  O   UNL     1     -12.402  13.151  67.841  1.00  0.00    -0.152 OA 
HETATM   28  C   UNL     1     -11.184  12.985  68.382  1.00  0.00    -0.269 C  
HETATM   29  O   UNL     1     -10.835  13.622  69.370  1.00  0.00    -0.148 OA 
ENDBRANCH  20  26
BRANCH  23  30
HETATM   30  C   UNL     1     -10.400   9.479  68.930  1.00  0.00    -0.208 A  
HETATM   31  C   UNL     1     -11.767   9.270  70.968  1.00  0.00    -0.378 A  
HETATM   32  C   UNL     1     -11.624   9.217  69.574  1.00  0.00     0.372 A  
HETATM   33  C   UNL     1     -13.122   9.469  71.600  1.00  0.00    -0.401 C  
HETATM   34  C   UNL     1     -10.626   9.255  71.755  1.00  0.00    -0.286 A  
HETATM   35  F   UNL     1     -14.108   9.720  70.699  1.00  0.00    -0.258 F  
HETATM   36  F   UNL     1     -13.529   8.400  72.335  1.00  0.00    -0.327 F  
HETATM   37  F   UNL     1     -13.118  10.537  72.447  1.00  0.00    -0.508 F  
HETATM   38  C   UNL     1      -9.379   9.406  71.160  1.00  0.00    -0.143 A  
HETATM   39  C   UNL     1      -9.267   9.642  69.781  1.00  0.00    -0.219 A  
BRANCH  39  40
HETATM   40  O   UNL     1      -8.050   9.934  69.213  1.00  0.00    -0.105 OA 
HETATM   41  C   UNL     1      -7.003  10.371  70.076  1.00  0.00    -0.157 C  
ENDBRANCH  39  40
ENDBRANCH  23  30
ENDBRANCH  12  15
ENDBRANCH   7   9
ENDBRANCH   2   3
TORSDOF 6
ENDMDL
MODEL       10
REMARK 921   NORMALIZED FREE ENERGY PREDICTED BY IDOCK:   -6.75 KCAL/MOL
REMARK 922        TOTAL FREE ENERGY PREDICTED BY IDOCK:  -10.36 KCAL/MOL
REMARK 923 INTER-LIGAND FREE ENERGY PREDICTED BY IDOCK:   -9.00 KCAL/MOL
REMARK 924 INTRA-LIGAND FREE ENERGY PREDICTED BY IDOCK:   -1.35 KCAL/MOL
REMARK 927      BINDING AFFINITY PREDICTED BY RF-SCORE:    0.00 PKD
ROOT
HETATM    1  C   UNL     1     -10.527  19.769  65.890  1.00  0.00    -0.486 C  
HETATM    2  O   UNL     1     -10.680  18.358  65.763  1.00  0.00    -0.482 OA 
ENDROOT
BRANCH   2   3
HETATM    3  C   UNL     1      -9.616  17.577  66.136  1.00  0.00    -0.182 A  
HETATM    4  C   UNL     1      -8.318  18.027  66.349  1.00  0.00    -0.275 A  
HETATM    5  C   UNL     1      -7.330  17.110  66.699  1.00  0.00    -0.285 A  
HETATM    6  C   UNL     1      -7.640  15.749  66.844  1.00  0.00    -0.235 A  
HETATM    7  C   UNL     1      -8.940  15.255  66.662  1.00  0.00    -0.291 A  
HETATM    8  C   UNL     1      -9.908  16.211  66.298  1.00  0.00    -0.329 A  
BRANCH   7   9
HETATM    9  N   UNL     1      -9.249  13.920  66.830  1.00  0.00    -0.252 NA 
HETATM   10  C   UNL     1      -8.266  12.908  67.252  1.00  0.00    -0.176 C  
HETATM   11  C   UNL     1      -8.719  12.243  68.560  1.00  0.00    -0.071 C  
HETATM   12  N   UNL     1     -10.099  11.706  68.520  1.00  0.00    -0.205 NA 
HETATM   13  C   UNL     1     -11.097  12.581  67.831  1.00  0.00    -0.245 C  
HETATM   14  C   UNL     1     -10.575  13.336  66.580  1.00  0.00    -0.286 C  
BRANCH  12  15
HETATM   15  C   UNL     1     -10.545  10.607  69.261  1.00  0.00    -0.233 C  
HETATM   16  N   UNL     1     -11.450  10.865  70.179  1.00  0.00    -0.313 NA 
HETATM   17  C   UNL     1     -12.095   9.829  70.881  1.00  0.00    -0.321 A  
HETATM   18  C   UNL     1     -11.843   8.499  70.596  1.00  0.00    -0.111 A  
HETATM   19  C   UNL     1     -12.611   7.483  71.210  1.00  0.00    -0.345 A  
HETATM   20  C   UNL     1     -10.671   8.138  69.706  1.00  0.00    -0.229 C  
HETATM   21  F   UNL     1     -13.317  11.392  72.209  1.00  0.00    -0.596 F  
HETATM   22  C   UNL     1     -13.561   7.782  72.178  1.00  0.00    -0.148 A  
HETATM   23  N   UNL     1     -10.018   9.318  69.043  1.00  0.00    -0.176 NA 
HETATM   24  C   UNL     1     -13.061  10.121  71.863  1.00  0.00    -0.466 A  
HETATM   25  C   UNL     1     -13.772   9.109  72.522  1.00  0.00    -0.499 A  
BRANCH  20  26
HETATM   26  C   UNL     1      -9.696   7.278  70.552  1.00  0.00    -0.176 C  
HETATM   27  O   UNL     1     -10.459   5.200  69.537  1.00  0.00    -0.257 OA 
HETATM   28  C   UNL     1      -9.437   5.863  70.106  1.00  0.00    -0.160 C  
HETATM   29  O   UNL     1      -8.371   5.305  70.342  1.00  0.00    -0.106 OA 
ENDBRANCH  20  26
BRANCH  23  30
HETATM   30  C   UNL     1      -8.750   9.007  68.422  1.00  0.00    -0.130 A  
HETATM   31  C   UNL     1      -7.553   8.009  66.515  1.00  0.00    -0.092 A  
HETATM   32  C   UNL     1      -8.734   8.447  67.130  1.00  0.00    -0.131 A  
HETATM   33  C   UNL     1      -7.593   7.003  65.392  1.00  0.00    -0.097 C  
HETATM   34  C   UNL     1      -6.337   8.425  67.035  1.00  0.00    -0.057 A  
HETATM   35  F   UNL     1      -8.833   6.497  65.162  1.00  0.00    -0.103 F  
HETATM   36  F   UNL     1      -7.153   7.508  64.209  1.00  0.00    -0.054 F  
HETATM   37  F   UNL     1      -6.802   5.926  65.665  1.00  0.00    -0.050 F  
HETATM   38  C   UNL     1      -6.302   9.077  68.261  1.00  0.00    -0.055 A  
HETATM   39  C   UNL     1      -7.475   9.258  69.011  1.00  0.00    -0.073 A  
BRANCH  39  40
HETATM   40  O   UNL     1      -7.424   9.771  70.285  1.00  0.00    -0.141 OA 
HETATM   41  C   UNL     1      -6.487   9.200  71.195  1.00  0.00    -0.084 C  
ENDBRANCH  39  40
ENDBRANCH  23  30
ENDBRANCH  12  15
ENDBRANCH   7   9
ENDBRANCH   2   3
TORSDOF 6
ENDMDL
MODEL       11
REMARK 921   NORMALIZED FREE ENERGY PREDICTED BY IDOCK:   -6.70 KCAL/MOL
REMARK 922        TOTAL FREE ENERGY PREDICTED BY IDOCK:  -10.28 KCAL/MOL
REMARK 923 INTER-LIGAND FREE ENERGY PREDICTED BY IDOCK:   -9.41 KCAL/MOL
REMARK 924 INTRA-LIGAND FREE ENERGY PREDICTED BY IDOCK:   -0.87 KCAL/MOL
REMARK 927      BINDING AFFINITY PREDICTED BY RF-SCORE:    0.00 PKD
ROOT
HETATM    1  C   UNL     1      -9.022   1.477  68.053  1.00  0.00    -0.129 C  
HETATM    2  O   UNL     1      -9.342   2.855  67.888  1.00  0.00    -0.195 OA 
ENDROOT
BRANCH   2   3
HETATM    3  C   UNL     1      -9.525   3.596  69.028  1.00  0.00    -0.156 A  
HETATM    4  C   UNL     1      -9.783   3.083  70.293  1.00  0.00    -0.067 A  
HETATM    5  C   UNL     1      -9.974   3.960  71.357  1.00  0.00    -0.198 A  
HETATM    6  C   UNL     1      -9.898   5.348  71.159  1.00  0.00    -0.243 A  
HETATM    7  C   UNL     1      -9.616   5.909  69.904  1.00  0.00    -0.158 A  
HETATM    8  C   UNL     1      -9.440   4.989  68.852  1.00  0.00    -0.195 A  
BRANCH   7   9
HETATM    9  N   UNL     1      -9.516   7.272  69.716  1.00  0.00    -0.150 NA 
HETATM   10  C   UNL     1      -9.879   7.946  68.458  1.00  0.00    -0.177 C  
HETATM   11  C   UNL     1     -10.989   8.977  68.713  1.00  0.00     0.072 C  
HETATM   12  N   UNL     1     -10.686   9.938  69.800  1.00  0.00    -0.248 NA 
HETATM   13  C   UNL     1     -10.036   9.341  71.006  1.00  0.00    -0.293 C  
HETATM   14  C   UNL     1      -9.005   8.214  70.724  1.00  0.00    -0.145 C  
BRANCH  12  15
HETATM   15  C   UNL     1     -11.169  11.249  69.857  1.00  0.00    -0.187 C  
HETATM   16  N   UNL     1     -12.111  11.474  70.745  1.00  0.00    -0.354 NA 
HETATM   17  C   UNL     1     -12.567  12.778  71.014  1.00  0.00    -0.271 A  
HETATM   18  C   UNL     1     -12.005  13.880  70.394  1.00  0.00    -0.393 A  
HETATM   19  C   UNL     1     -12.378  15.185  70.791  1.00  0.00    -0.415 A  
HETATM   20  C   UNL     1     -11.070  13.677  69.219  1.00  0.00    -0.193 C  
HETATM   21  F   UNL     1     -14.187  11.969  72.569  1.00  0.00    -0.152 F  
HETATM   22  C   UNL     1     -13.378  15.395  71.732  1.00  0.00    -0.567 A  
HETATM   23  N   UNL     1     -10.683  12.244  68.984  1.00  0.00    -0.159 NA 
HETATM   24  C   UNL     1     -13.579  13.003  71.967  1.00  0.00    -0.441 A  
HETATM   25  C   UNL     1     -13.997  14.296  72.308  1.00  0.00    -0.629 A  
BRANCH  20  26
HETATM   26  C   UNL     1     -11.722  14.359  67.988  1.00  0.00    -0.374 C  
HETATM   27  O   UNL     1     -10.272  16.309  68.151  1.00  0.00    -0.244 OA 
HETATM   28  C   UNL     1     -10.982  15.502  67.344  1.00  0.00    -0.306 C  
HETATM   29  O   UNL     1     -11.105  15.748  66.149  1.00  0.00    -0.226 OA 
ENDBRANCH  20  26
BRANCH  23  30
HETATM   30  C   UNL     1     -10.024  12.022  67.717  1.00  0.00    -0.195 A  
HETATM   31  C   UNL     1     -10.203  11.937  65.262  1.00  0.00    -0.309 A  
HETATM   32  C   UNL     1     -10.734  12.246  66.522  1.00  0.00    -0.279 A  
HETATM   33  C   UNL     1     -11.106  11.722  64.073  1.00  0.00    -0.390 C  
HETATM   34  C   UNL     1      -8.839  11.717  65.150  1.00  0.00     0.286 A  
HETATM   35  F   UNL     1     -12.428  11.722  64.390  1.00  0.00    -0.342 F  
HETATM   36  F   UNL     1     -10.939  12.657  63.101  1.00  0.00    -0.473 F  
HETATM   37  F   UNL     1     -10.870  10.514  63.487  1.00  0.00    -0.123 F  
HETATM   38  C   UNL     1      -8.068  11.590  66.299  1.00  0.00    -0.014 A  
HETATM   39  C   UNL     1      -8.664  11.616  67.569  1.00  0.00    -0.156 A  
BRANCH  39  40
HETATM   40  O   UNL     1      -7.927  11.348  68.699  1.00  0.00    -0.135 OA 
HETATM   41  C   UNL     1      -6.748  12.117  68.919  1.00  0.00    -0.094 C  
ENDBRANCH  39  40
ENDBRANCH  23  30
ENDBRANCH  12  15
ENDBRANCH   7   9
ENDBRANCH   2   3
TORSDOF 6
ENDMDL
MODEL       12
REMARK 921   NORMALIZED FREE ENERGY PREDICTED BY IDOCK:   -6.69 KCAL/MOL
REMARK 922        TOTAL FREE ENERGY PREDICTED BY IDOCK:  -10.28 KCAL/MOL
REMARK 923 INTER-LIGAND FREE ENERGY PREDICTED BY IDOCK:   -9.26 KCAL/MOL
REMARK 924 INTRA-LIGAND FREE ENERGY PREDICTED BY IDOCK:   -1.02 KCAL/MOL
REMARK 927      BINDING AFFINITY PREDICTED BY RF-SCORE:    0.00 PKD
ROOT
HETATM    1  C   UNL     1     -10.657  19.860  65.707  1.00  0.00    -0.385 C  
HETATM    2  O   UNL     1     -10.963  19.408  67.022  1.00  0.00    -0.467 OA 
ENDROOT
BRANCH   2   3
HETATM    3  C   UNL     1     -10.139  18.454  67.564  1.00  0.00    -0.357 A  
HETATM    4  C   UNL     1      -9.061  18.701  68.404  1.00  0.00    -0.352 A  
HETATM    5  C   UNL     1      -8.293  17.631  68.857  1.00  0.00    -0.139 A  
HETATM    6  C   UNL     1      -8.608  16.317  68.479  1.00  0.00    -0.211 A  
HETATM    7  C   UNL     1      -9.701  16.020  67.652  1.00  0.00    -0.224 A  
HETATM    8  C   UNL     1     -10.445  17.129  67.205  1.00  0.00    -0.313 A  
BRANCH   7   9
HETATM    9  N   UNL     1     -10.025  14.725  67.301  1.00  0.00    -0.230 NA 
HETATM   10  C   UNL     1      -9.103  13.822  66.591  1.00  0.00    -0.179 C  
HETATM   11  C   UNL     1      -8.840  12.565  67.434  1.00  0.00    -0.187 C  
HETATM   12  N   UNL     1     -10.069  11.873  67.888  1.00  0.00    -0.187 NA 
HETATM   13  C   UNL     1     -11.167  12.775  68.353  1.00  0.00    -0.278 C  
HETATM   14  C   UNL     1     -11.331  14.097  67.556  1.00  0.00    -0.322 C  
BRANCH  12  15
HETATM   15  C   UNL     1     -10.164  10.498  68.123  1.00  0.00    -0.162 C  
HETATM   16  N   UNL     1     -10.358  10.143  69.374  1.00  0.00    -0.216 NA 
HETATM   17  C   UNL     1     -10.628   8.806  69.722  1.00  0.00    -0.224 A  
HETATM   18  C   UNL     1     -10.757   7.822  68.757  1.00  0.00    -0.093 A  
HETATM   19  C   UNL     1     -11.176   6.521  69.122  1.00  0.00    -0.367 A  
HETATM   20  C   UNL     1     -10.343   8.120  67.330  1.00  0.00    -0.281 C  
HETATM   21  F   UNL     1     -10.679   9.345  72.047  1.00  0.00    -0.415 F  
HETATM   22  C   UNL     1     -11.372   6.173  70.451  1.00  0.00    -0.399 A  
HETATM   23  N   UNL     1     -10.025   9.566  67.073  1.00  0.00    -0.199 NA 
HETATM   24  C   UNL     1     -10.831   8.441  71.067  1.00  0.00    -0.238 A  
HETATM   25  C   UNL     1     -11.177   7.133  71.432  1.00  0.00    -0.278 A  
BRANCH  20  26
HETATM   26  C   UNL     1      -9.185   7.152  66.974  1.00  0.00    -0.167 C  
HETATM   27  O   UNL     1     -10.713   5.417  66.208  1.00  0.00    -0.274 OA 
HETATM   28  C   UNL     1      -9.499   5.979  66.082  1.00  0.00    -0.087 C  
HETATM   29  O   UNL     1      -8.647   5.493  65.345  1.00  0.00    -0.144 OA 
ENDBRANCH  20  26
BRANCH  23  30
HETATM   30  C   UNL     1      -9.375   9.801  65.804  1.00  0.00    -0.221 A  
HETATM   31  C   UNL     1      -7.309   9.684  64.469  1.00  0.00    -0.125 A  
HETATM   32  C   UNL     1      -8.041   9.385  65.625  1.00  0.00    -0.112 A  
HETATM   33  C   UNL     1      -5.800   9.671  64.484  1.00  0.00    -0.083 C  
HETATM   34  C   UNL     1      -7.991  10.108  63.339  1.00  0.00    -0.160 A  
HETATM   35  F   UNL     1      -5.273   9.485  65.722  1.00  0.00    -0.036 F  
HETATM   36  F   UNL     1      -5.268   8.708  63.685  1.00  0.00    -0.056 F  
HETATM   37  F   UNL     1      -5.293  10.857  64.042  1.00  0.00    -0.160 F  
HETATM   38  C   UNL     1      -9.338  10.434  63.433  1.00  0.00    -0.334 A  
HETATM   39  C   UNL     1      -9.999  10.404  64.672  1.00  0.00    -0.338 A  
BRANCH  39  40
HETATM   40  O   UNL     1     -11.289  10.863  64.793  1.00  0.00     0.110 OA 
HETATM   41  C   UNL     1     -11.579  12.168  64.300  1.00  0.00    -0.370 C  
ENDBRANCH  39  40
ENDBRANCH  23  30
ENDBRANCH  12  15
ENDBRANCH   7   9
ENDBRANCH   2   3
TORSDOF 6
ENDMDL
MODEL       13
REMARK 921   NORMALIZED FREE ENERGY PREDICTED BY IDOCK:   -6.67 KCAL/MOL
REMARK 922        TOTAL FREE ENERGY PREDICTED BY IDOCK:  -10.24 KCAL/MOL
REMARK 923 INTER-LIGAND FREE ENERGY PREDICTED BY IDOCK:   -9.95 KCAL/MOL
REMARK 924 INTRA-LIGAND FREE ENERGY PREDICTED BY IDOCK:   -0.30 KCAL/MOL
REMARK 927      BINDING AFFINITY PREDICTED BY RF-SCORE:    0.00 PKD
ROOT
HETATM    1  C   UNL     1      -8.359   6.755  74.446  1.00  0.00    -0.143 C  
HETATM    2  O   UNL     1      -9.247   7.815  74.106  1.00  0.00    -0.213 OA 
ENDROOT
BRANCH   2   3
HETATM    3  C   UNL     1     -10.194   7.556  73.148  1.00  0.00    -0.327 A  
HETATM    4  C   UNL     1     -11.065   6.473  73.144  1.00  0.00    -0.197 A  
HETATM    5  C   UNL     1     -11.959   6.323  72.087  1.00  0.00    -0.338 A  
HETATM    6  C   UNL     1     -11.989   7.259  71.041  1.00  0.00    -0.362 A  
HETATM    7  C   UNL     1     -11.146   8.379  71.017  1.00  0.00    -0.258 A  
HETATM    8  C   UNL     1     -10.249   8.489  72.097  1.00  0.00    -0.403 A  
BRANCH   7   9
HETATM    9  N   UNL     1     -11.194   9.313  70.001  1.00  0.00    -0.210 NA 
HETATM   10  C   UNL     1     -12.266  10.313  69.870  1.00  0.00    -0.061 C  
HETATM   11  C   UNL     1     -11.675  11.730  69.915  1.00  0.00    -0.323 C  
HETATM   12  N   UNL     1     -10.571  11.957  68.953  1.00  0.00    -0.204 NA 
HETATM   13  C   UNL     1      -9.599  10.828  68.831  1.00  0.00    -0.195 C  
HETATM   14  C   UNL     1     -10.212   9.404  68.910  1.00  0.00    -0.200 C  
BRANCH  12  15
HETATM   15  C   UNL     1     -10.268  13.192  68.370  1.00  0.00    -0.247 C  
HETATM   16  N   UNL     1     -10.635  14.253  69.054  1.00  0.00    -0.249 NA 
HETATM   17  C   UNL     1     -10.249  15.547  68.658  1.00  0.00    -0.216 A  
HETATM   18  C   UNL     1      -9.423  15.751  67.566  1.00  0.00    -0.218 A  
HETATM   19  C   UNL     1      -8.931  17.046  67.281  1.00  0.00    -0.224 A  
HETATM   20  C   UNL     1      -9.139  14.600  66.623  1.00  0.00    -0.258 C  
HETATM   21  F   UNL     1     -11.485  16.540  70.442  1.00  0.00    -0.347 F  
HETATM   22  C   UNL     1      -9.336  18.151  68.018  1.00  0.00    -0.289 A  
HETATM   23  N   UNL     1      -9.636  13.269  67.112  1.00  0.00    -0.232 NA 
HETATM   24  C   UNL     1     -10.652  16.675  69.399  1.00  0.00    -0.333 A  
HETATM   25  C   UNL     1     -10.219  17.967  69.071  1.00  0.00    -0.274 A  
BRANCH  20  26
HETATM   26  C   UNL     1      -9.689  14.999  65.229  1.00  0.00    -0.144 C  
HETATM   27  O   UNL     1     -11.926  15.414  66.100  1.00  0.00     0.190 OA 
HETATM   28  C   UNL     1     -11.003  15.734  65.176  1.00  0.00    -0.382 C  
HETATM   29  O   UNL     1     -11.259  16.518  64.268  1.00  0.00    -0.992 OA 
ENDBRANCH  20  26
BRANCH  23  30
HETATM   30  C   UNL     1      -9.611  12.234  66.103  1.00  0.00    -0.240 A  
HETATM   31  C   UNL     1      -8.285  10.581  64.848  1.00  0.00    -0.117 A  
HETATM   32  C   UNL     1      -8.421  11.512  65.887  1.00  0.00     0.062 A  
HETATM   33  C   UNL     1      -6.922  10.192  64.332  1.00  0.00    -0.106 C  
HETATM   34  C   UNL     1      -9.429  10.109  64.222  1.00  0.00    -0.366 A  
HETATM   35  F   UNL     1      -5.910  10.922  64.869  1.00  0.00    -0.128 F  
HETATM   36  F   UNL     1      -6.621   8.885  64.556  1.00  0.00    -0.069 F  
HETATM   37  F   UNL     1      -6.834  10.378  62.984  1.00  0.00    -0.135 F  
HETATM   38  C   UNL     1     -10.651  10.718  64.478  1.00  0.00    -0.258 A  
HETATM   39  C   UNL     1     -10.731  11.846  65.310  1.00  0.00    -0.283 A  
BRANCH  39  40
HETATM   40  O   UNL     1     -11.912  12.536  65.450  1.00  0.00    -0.406 OA 
HETATM   41  C   UNL     1     -12.889  12.394  64.423  1.00  0.00    -0.250 C  
ENDBRANCH  39  40
ENDBRANCH  23  30
ENDBRANCH  12  15
ENDBRANCH   7   9
ENDBRANCH   2   3
TORSDOF 6
ENDMDL
MODEL       14
REMARK 921   NORMALIZED FREE ENERGY PREDICTED BY IDOCK:   -6.66 KCAL/MOL
REMARK 922        TOTAL FREE ENERGY PREDICTED BY IDOCK:  -10.23 KCAL/MOL
REMARK 923 INTER-LIGAND FREE ENERGY PREDICTED BY IDOCK:   -8.59 KCAL/MOL
REMARK 924 INTRA-LIGAND FREE ENERGY PREDICTED BY IDOCK:   -1.64 KCAL/MOL
REMARK 927      BINDING AFFINITY PREDICTED BY RF-SCORE:    0.00 PKD
ROOT
HETATM    1  C   UNL     1     -12.359  12.018  63.334  1.00  0.00    -0.523 C  
HETATM    2  O   UNL     1     -12.731  13.165  64.092  1.00  0.00    -0.650 OA 
ENDROOT
BRANCH   2   3
HETATM    3  C   UNL     1     -12.265  13.242  65.380  1.00  0.00    -0.456 A  
HETATM    4  C   UNL     1     -12.452  14.313  66.245  1.00  0.00    -0.329 A  
HETATM    5  C   UNL     1     -11.896  14.262  67.521  1.00  0.00    -0.429 A  
HETATM    6  C   UNL     1     -11.162  13.139  67.934  1.00  0.00    -0.300 A  
HETATM    7  C   UNL     1     -10.969  12.026  67.103  1.00  0.00    -0.270 A  
HETATM    8  C   UNL     1     -11.537  12.120  65.818  1.00  0.00    -0.414 A  
BRANCH   7   9
HETATM    9  N   UNL     1     -10.269  10.912  67.520  1.00  0.00    -0.184 NA 
HETATM   10  C   UNL     1      -9.402  10.897  68.710  1.00  0.00    -0.185 C  
HETATM   11  C   UNL     1      -9.895   9.843  69.712  1.00  0.00    -0.236 C  
HETATM   12  N   UNL     1     -10.076   8.492  69.129  1.00  0.00    -0.197 NA 
HETATM   13  C   UNL     1     -10.697   8.469  67.770  1.00  0.00    -0.101 C  
HETATM   14  C   UNL     1     -10.271   9.619  66.818  1.00  0.00    -0.239 C  
BRANCH  12  15
HETATM   15  C   UNL     1      -9.932   7.296  69.840  1.00  0.00    -0.183 C  
HETATM   16  N   UNL     1     -10.230   7.351  71.119  1.00  0.00    -0.194 NA 
HETATM   17  C   UNL     1     -10.281   6.187  71.909  1.00  0.00    -0.200 A  
HETATM   18  C   UNL     1     -10.075   4.934  71.359  1.00  0.00    -0.268 A  
HETATM   19  C   UNL     1     -10.279   3.773  72.142  1.00  0.00    -0.179 A  
HETATM   20  C   UNL     1      -9.528   4.819  69.951  1.00  0.00    -0.161 C  
HETATM   21  F   UNL     1     -10.769   7.453  73.872  1.00  0.00    -0.403 F  
HETATM   22  C   UNL     1     -10.592   3.860  73.492  1.00  0.00    -0.283 A  
HETATM   23  N   UNL     1      -9.465   6.124  69.209  1.00  0.00    -0.133 NA 
HETATM   24  C   UNL     1     -10.599   6.262  73.278  1.00  0.00    -0.262 A  
HETATM   25  C   UNL     1     -10.732   5.113  74.069  1.00  0.00    -0.320 A  
BRANCH  20  26
HETATM   26  C   UNL     1      -8.164   4.087  70.044  1.00  0.00    -0.069 C  
HETATM   27  O   UNL     1      -9.095   1.996  69.213  1.00  0.00    -0.093 OA 
HETATM   28  C   UNL     1      -8.012   2.786  69.299  1.00  0.00    -0.044 C  
HETATM   29  O   UNL     1      -6.921   2.417  68.878  1.00  0.00    -0.039 OA 
ENDBRANCH  20  26
BRANCH  23  30
HETATM   30  C   UNL     1      -8.698   6.060  67.985  1.00  0.00    -0.112 A  
HETATM   31  C   UNL     1      -8.522   5.213  65.680  1.00  0.00    -0.134 A  
HETATM   32  C   UNL     1      -9.251   5.420  66.860  1.00  0.00    -0.121 A  
HETATM   33  C   UNL     1      -8.927   4.140  64.700  1.00  0.00    -0.141 C  
HETATM   34  C   UNL     1      -7.354   5.932  65.483  1.00  0.00    -0.076 A  
HETATM   35  F   UNL     1      -9.939   3.351  65.147  1.00  0.00    -0.161 F  
HETATM   36  F   UNL     1      -9.323   4.638  63.498  1.00  0.00    -0.147 F  
HETATM   37  F   UNL     1      -7.889   3.294  64.440  1.00  0.00    -0.077 F  
HETATM   38  C   UNL     1      -6.817   6.668  66.532  1.00  0.00    -0.061 A  
HETATM   39  C   UNL     1      -7.406   6.637  67.806  1.00  0.00    -0.096 A  
BRANCH  39  40
HETATM   40  O   UNL     1      -6.799   7.247  68.878  1.00  0.00    -0.067 OA 
HETATM   41  C   UNL     1      -6.427   8.616  68.740  1.00  0.00    -0.053 C  
ENDBRANCH  39  40
ENDBRANCH  23  30
ENDBRANCH  12  15
ENDBRANCH   7   9
ENDBRANCH   2   3
TORSDOF 6
ENDMDL
MODEL       15
REMARK 921   NORMALIZED FREE ENERGY PREDICTED BY IDOCK:   -6.63 KCAL/MOL
REMARK 922        TOTAL FREE ENERGY PREDICTED BY IDOCK:  -10.20 KCAL/MOL
REMARK 923 INTER-LIGAND FREE ENERGY PREDICTED BY IDOCK:   -8.55 KCAL/MOL
REMARK 924 INTRA-LIGAND FREE ENERGY PREDICTED BY IDOCK:   -1.65 KCAL/MOL
REMARK 927      BINDING AFFINITY PREDICTED BY RF-SCORE:    0.00 PKD
ROOT
HETATM    1  C   UNL     1      -9.607  15.809  65.929  1.00  0.00    -0.347 C  
HETATM    2  O   UNL     1     -10.742  15.643  65.085  1.00  0.00    -0.397 OA 
ENDROOT
BRANCH   2   3
HETATM    3  C   UNL     1     -11.081  14.361  64.735  1.00  0.00    -0.394 A  
HETATM    4  C   UNL     1     -11.979  14.005  63.737  1.00  0.00    -0.230 A  
HETATM    5  C   UNL     1     -12.246  12.657  63.511  1.00  0.00    -0.638 A  
HETATM    6  C   UNL     1     -11.610  11.667  64.275  1.00  0.00    -0.306 A  
HETATM    7  C   UNL     1     -10.679  11.979  65.277  1.00  0.00    -0.288 A  
HETATM    8  C   UNL     1     -10.445  13.352  65.483  1.00  0.00    -0.297 A  
BRANCH   7   9
HETATM    9  N   UNL     1     -10.035  11.003  66.011  1.00  0.00    -0.228 NA 
HETATM   10  C   UNL     1     -10.544  10.483  67.291  1.00  0.00    -0.264 C  
HETATM   11  C   UNL     1     -10.785   8.970  67.189  1.00  0.00    -0.136 C  
HETATM   12  N   UNL     1      -9.618   8.203  66.692  1.00  0.00    -0.211 NA 
HETATM   13  C   UNL     1      -8.878   8.842  65.563  1.00  0.00    -0.197 C  
HETATM   14  C   UNL     1      -8.754  10.388  65.631  1.00  0.00    -0.171 C  
BRANCH  12  15
HETATM   15  C   UNL     1      -9.335   6.878  67.037  1.00  0.00    -0.145 C  
HETATM   16  N   UNL     1      -9.617   5.976  66.124  1.00  0.00    -0.107 NA 
HETATM   17  C   UNL     1      -9.234   4.630  66.282  1.00  0.00    -0.135 A  
HETATM   18  C   UNL     1      -8.499   4.214  67.378  1.00  0.00    -0.100 A  
HETATM   19  C   UNL     1      -8.001   2.891  67.438  1.00  0.00    -0.076 A  
HETATM   20  C   UNL     1      -8.324   5.150  68.556  1.00  0.00    -0.089 C  
HETATM   21  F   UNL     1     -10.291   4.013  64.233  1.00  0.00    -0.192 F  
HETATM   22  C   UNL     1      -8.315   1.957  66.460  1.00  0.00    -0.090 A  
HETATM   23  N   UNL     1      -8.810   6.550  68.305  1.00  0.00    -0.120 NA 
HETATM   24  C   UNL     1      -9.546   3.674  65.296  1.00  0.00    -0.160 A  
HETATM   25  C   UNL     1      -9.111   2.346  65.393  1.00  0.00    -0.114 A  
BRANCH  20  26
HETATM   26  C   UNL     1      -8.980   4.472  69.787  1.00  0.00    -0.149 C  
HETATM   27  O   UNL     1      -6.830   4.042  70.847  1.00  0.00    -0.031 OA 
HETATM   28  C   UNL     1      -8.139   4.293  71.023  1.00  0.00    -0.072 C  
HETATM   29  O   UNL     1      -8.644   4.274  72.141  1.00  0.00    -0.105 OA 
ENDBRANCH  20  26
BRANCH  23  30
HETATM   30  C   UNL     1      -8.896   7.358  69.500  1.00  0.00    -0.137 A  
HETATM   31  C   UNL     1     -10.295   8.230  71.329  1.00  0.00    -0.256 A  
HETATM   32  C   UNL     1     -10.098   7.380  70.232  1.00  0.00    -0.197 A  
HETATM   33  C   UNL     1     -11.686   8.596  71.784  1.00  0.00    -0.331 C  
HETATM   34  C   UNL     1      -9.190   8.825  71.918  1.00  0.00    -0.320 A  
HETATM   35  F   UNL     1     -12.664   8.141  70.957  1.00  0.00    -0.279 F  
HETATM   36  F   UNL     1     -11.980   8.130  73.027  1.00  0.00    -0.433 F  
HETATM   37  F   UNL     1     -11.848   9.949  71.835  1.00  0.00    -0.448 F  
HETATM   38  C   UNL     1      -7.953   8.746  71.291  1.00  0.00    -0.176 A  
HETATM   39  C   UNL     1      -7.823   8.131  70.036  1.00  0.00    -0.103 A  
BRANCH  39  40
HETATM   40  O   UNL     1      -6.633   8.178  69.349  1.00  0.00    -0.035 OA 
HETATM   41  C   UNL     1      -6.313   9.382  68.657  1.00  0.00    -0.048 C  
ENDBRANCH  39  40
ENDBRANCH  23  30
ENDBRANCH  12  15
ENDBRANCH   7   9
ENDBRANCH   2   3
TORSDOF 6
ENDMDL
MODEL       16
REMARK 921   NORMALIZED FREE ENERGY PREDICTED BY IDOCK:   -6.63 KCAL/MOL
REMARK 922        TOTAL FREE ENERGY PREDICTED BY IDOCK:  -10.19 KCAL/MOL
REMARK 923 INTER-LIGAND FREE ENERGY PREDICTED BY IDOCK:   -8.47 KCAL/MOL
REMARK 924 INTRA-LIGAND FREE ENERGY PREDICTED BY IDOCK:   -1.72 KCAL/MOL
REMARK 927      BINDING AFFINITY PREDICTED BY RF-SCORE:    0.00 PKD
ROOT
HETATM    1  C   UNL     1     -10.592  19.200  65.832  1.00  0.00    -0.415 C  
HETATM    2  O   UNL     1     -10.413  17.812  65.566  1.00  0.00    -0.646 OA 
ENDROOT
BRANCH   2   3
HETATM    3  C   UNL     1      -9.353  17.190  66.176  1.00  0.00    -0.192 A  
HETATM    4  C   UNL     1      -8.119  17.769  66.442  1.00  0.00    -0.296 A  
HETATM    5  C   UNL     1      -7.124  17.004  67.044  1.00  0.00    -0.228 A  
HETATM    6  C   UNL     1      -7.365  15.665  67.388  1.00  0.00    -0.235 A  
HETATM    7  C   UNL     1      -8.603  15.046  67.160  1.00  0.00    -0.223 A  
HETATM    8  C   UNL     1      -9.579  15.850  66.539  1.00  0.00    -0.291 A  
BRANCH   7   9
HETATM    9  N   UNL     1      -8.847  13.737  67.522  1.00  0.00    -0.186 NA 
HETATM   10  C   UNL     1     -10.068  13.005  67.145  1.00  0.00    -0.244 C  
HETATM   11  C   UNL     1      -9.705  11.758  66.325  1.00  0.00    -0.222 C  
HETATM   12  N   UNL     1      -8.699  10.882  66.969  1.00  0.00    -0.139 NA 
HETATM   13  C   UNL     1      -7.569  11.600  67.633  1.00  0.00    -0.128 C  
HETATM   14  C   UNL     1      -7.945  12.923  68.352  1.00  0.00    -0.137 C  
BRANCH  12  15
HETATM   15  C   UNL     1      -8.622   9.497  66.789  1.00  0.00    -0.127 C  
HETATM   16  N   UNL     1      -8.467   9.089  65.550  1.00  0.00    -0.135 NA 
HETATM   17  C   UNL     1      -8.217   7.736  65.251  1.00  0.00    -0.140 A  
HETATM   18  C   UNL     1      -8.068   6.792  66.252  1.00  0.00    -0.112 A  
HETATM   19  C   UNL     1      -7.670   5.473  65.931  1.00  0.00    -0.091 A  
HETATM   20  C   UNL     1      -8.437   7.153  67.676  1.00  0.00    -0.120 C  
HETATM   21  F   UNL     1      -8.230   8.177  62.905  1.00  0.00    -0.163 F  
HETATM   22  C   UNL     1      -7.515   5.068  64.612  1.00  0.00    -0.075 A  
HETATM   23  N   UNL     1      -8.737   8.612  67.881  1.00  0.00    -0.137 NA 
HETATM   24  C   UNL     1      -8.057   7.313  63.917  1.00  0.00    -0.013 A  
HETATM   25  C   UNL     1      -7.731   5.988  63.597  1.00  0.00    -0.100 A  
BRANCH  20  26
HETATM   26  C   UNL     1      -9.592   6.212  68.106  1.00  0.00    -0.117 C  
HETATM   27  O   UNL     1      -8.078   4.680  69.244  1.00  0.00    -0.069 OA 
HETATM   28  C   UNL     1      -9.313   5.209  69.195  1.00  0.00    -0.124 C  
HETATM   29  O   UNL     1     -10.202   4.815  69.943  1.00  0.00    -0.252 OA 
ENDBRANCH  20  26
BRANCH  23  30
HETATM   30  C   UNL     1      -9.348   8.905  69.158  1.00  0.00    -0.148 A  
HETATM   31  C   UNL     1     -11.260   9.859  70.382  1.00  0.00    -0.379 A  
HETATM   32  C   UNL     1     -10.651   9.438  69.192  1.00  0.00    -0.234 A  
HETATM   33  C   UNL     1     -12.404  10.842  70.359  1.00  0.00    -0.353 C  
HETATM   34  C   UNL     1     -10.718   9.448  71.590  1.00  0.00    -0.298 A  
HETATM   35  F   UNL     1     -12.660  11.348  69.124  1.00  0.00    -0.270 F  
HETATM   36  F   UNL     1     -13.572  10.311  70.812  1.00  0.00    -0.402 F  
HETATM   37  F   UNL     1     -12.143  11.921  71.151  1.00  0.00    -0.394 F  
HETATM   38  C   UNL     1      -9.478   8.822  71.607  1.00  0.00    -0.358 A  
HETATM   39  C   UNL     1      -8.739   8.661  70.424  1.00  0.00    -0.155 A  
BRANCH  39  40
HETATM   40  O   UNL     1      -7.454   8.173  70.457  1.00  0.00    -0.061 OA 
HETATM   41  C   UNL     1      -7.064   7.405  71.593  1.00  0.00    -0.062 C  
ENDBRANCH  39  40
ENDBRANCH  23  30
ENDBRANCH  12  15
ENDBRANCH   7   9
ENDBRANCH   2   3
TORSDOF 6
ENDMDL
MODEL       17
REMARK 921   NORMALIZED FREE ENERGY PREDICTED BY IDOCK:   -6.62 KCAL/MOL
REMARK 922        TOTAL FREE ENERGY PREDICTED BY IDOCK:  -10.18 KCAL/MOL
REMARK 923 INTER-LIGAND FREE ENERGY PREDICTED BY IDOCK:   -9.13 KCAL/MOL
REMARK 924 INTRA-LIGAND FREE ENERGY PREDICTED BY IDOCK:   -1.04 KCAL/MOL
REMARK 927      BINDING AFFINITY PREDICTED BY RF-SCORE:    0.00 PKD
ROOT
HETATM    1  C   UNL     1      -5.525   1.958  67.300  1.00  0.00    -0.017 C  
HETATM    2  O   UNL     1      -5.866   2.059  65.921  1.00  0.00    -0.020 OA 
ENDROOT
BRANCH   2   3
HETATM    3  C   UNL     1      -7.082   2.616  65.616  1.00  0.00    -0.061 A  
HETATM    4  C   UNL     1      -8.056   2.041  64.808  1.00  0.00    -0.078 A  
HETATM    5  C   UNL     1      -9.236   2.738  64.564  1.00  0.00    -0.133 A  
HETATM    6  C   UNL     1      -9.447   4.004  65.133  1.00  0.00    -0.172 A  
HETATM    7  C   UNL     1      -8.502   4.612  65.973  1.00  0.00    -0.115 A  
HETATM    8  C   UNL     1      -7.318   3.880  66.186  1.00  0.00    -0.072 A  
BRANCH   7   9
HETATM    9  N   UNL     1      -8.722   5.845  66.552  1.00  0.00    -0.122 NA 
HETATM   10  C   UNL     1      -7.830   7.001  66.362  1.00  0.00    -0.106 C  
HETATM   11  C   UNL     1      -8.604   8.169  65.734  1.00  0.00    -0.154 C  
HETATM   12  N   UNL     1      -9.847   8.529  66.456  1.00  0.00    -0.259 NA 
HETATM   13  C   UNL     1     -10.657   7.368  66.935  1.00  0.00    -0.305 C  
HETATM   14  C   UNL     1      -9.844   6.152  67.453  1.00  0.00    -0.132 C  
BRANCH  12  15
HETATM   15  C   UNL     1     -10.397   9.815  66.496  1.00  0.00    -0.192 C  
HETATM   16  N   UNL     1     -10.302  10.512  65.386  1.00  0.00    -0.258 NA 
HETATM   17  C   UNL     1     -10.952  11.753  65.244  1.00  0.00    -0.295 A  
HETATM   18  C   UNL     1     -11.762  12.261  66.245  1.00  0.00    -0.431 A  
HETATM   19  C   UNL     1     -12.521  13.433  66.018  1.00  0.00    -0.431 A  
HETATM   20  C   UNL     1     -11.747  11.614  67.615  1.00  0.00    -0.228 C  
HETATM   21  F   UNL     1     -10.036  12.066  63.062  1.00  0.00    -0.413 F  
HETATM   22  C   UNL     1     -12.400  14.152  64.836  1.00  0.00    -0.446 A  
HETATM   23  N   UNL     1     -10.983  10.321  67.674  1.00  0.00    -0.303 NA 
HETATM   24  C   UNL     1     -10.839  12.491  64.050  1.00  0.00    -0.406 A  
HETATM   25  C   UNL     1     -11.537  13.690  63.854  1.00  0.00    -0.294 A  
BRANCH  20  26
HETATM   26  C   UNL     1     -11.249  12.681  68.623  1.00  0.00    -0.323 C  
HETATM   27  O   UNL     1      -9.158  13.015  67.419  1.00  0.00    -0.184 OA 
HETATM   28  C   UNL     1     -10.101  13.563  68.205  1.00  0.00    -0.250 C  
HETATM   29  O   UNL     1      -9.979  14.701  68.644  1.00  0.00    -0.223 OA 
ENDBRANCH  20  26
BRANCH  23  30
HETATM   30  C   UNL     1     -10.739   9.852  69.020  1.00  0.00    -0.222 A  
HETATM   31  C   UNL     1     -11.656   8.852  71.075  1.00  0.00    -0.347 A  
HETATM   32  C   UNL     1     -11.781   9.223  69.729  1.00  0.00     0.254 A  
HETATM   33  C   UNL     1     -12.877   8.642  71.935  1.00  0.00    -0.369 C  
HETATM   34  C   UNL     1     -10.390   8.796  71.636  1.00  0.00    -0.391 A  
HETATM   35  F   UNL     1     -14.040   8.978  71.317  1.00  0.00    -0.432 F  
HETATM   36  F   UNL     1     -13.017   7.357  72.356  1.00  0.00    -0.171 F  
HETATM   37  F   UNL     1     -12.825   9.409  73.061  1.00  0.00    -0.277 F  
HETATM   38  C   UNL     1      -9.306   9.309  70.935  1.00  0.00    -0.313 A  
HETATM   39  C   UNL     1      -9.487   9.944  69.697  1.00  0.00    -0.231 A  
BRANCH  39  40
HETATM   40  O   UNL     1      -8.441  10.578  69.070  1.00  0.00    -0.142 OA 
HETATM   41  C   UNL     1      -7.253   9.826  68.837  1.00  0.00    -0.072 C  
ENDBRANCH  39  40
ENDBRANCH  23  30
ENDBRANCH  12  15
ENDBRANCH   7   9
ENDBRANCH   2   3
TORSDOF 6
ENDMDL
MODEL       18
REMARK 921   NORMALIZED FREE ENERGY PREDICTED BY IDOCK:   -6.60 KCAL/MOL
REMARK 922        TOTAL FREE ENERGY PREDICTED BY IDOCK:  -10.15 KCAL/MOL
REMARK 923 INTER-LIGAND FREE ENERGY PREDICTED BY IDOCK:   -8.66 KCAL/MOL
REMARK 924 INTRA-LIGAND FREE ENERGY PREDICTED BY IDOCK:   -1.50 KCAL/MOL
REMARK 927      BINDING AFFINITY PREDICTED BY RF-SCORE:    0.00 PKD
ROOT
HETATM    1  C   UNL     1     -10.434  19.585  67.678  1.00  0.00    -0.467 C  
HETATM    2  O   UNL     1     -10.388  18.223  68.093  1.00  0.00    -0.365 OA 
ENDROOT
BRANCH   2   3
HETATM    3  C   UNL     1     -10.615  17.268  67.134  1.00  0.00    -0.256 A  
HETATM    4  C   UNL     1     -10.513  17.460  65.762  1.00  0.00    -0.221 A  
HETATM    5  C   UNL     1     -10.801  16.402  64.904  1.00  0.00    -0.268 A  
HETATM    6  C   UNL     1     -11.183  15.152  65.417  1.00  0.00    -0.338 A  
HETATM    7  C   UNL     1     -11.275  14.907  66.795  1.00  0.00    -0.338 A  
HETATM    8  C   UNL     1     -10.987  16.005  67.629  1.00  0.00    -0.284 A  
BRANCH   7   9
HETATM    9  N   UNL     1     -11.625  13.670  67.298  1.00  0.00    -0.335 NA 
HETATM   10  C   UNL     1     -11.903  12.499  66.451  1.00  0.00    -0.381 C  
HETATM   11  C   UNL     1     -10.935  11.357  66.793  1.00  0.00    -0.291 C  
HETATM   12  N   UNL     1     -10.891  11.012  68.234  1.00  0.00    -0.198 NA 
HETATM   13  C   UNL     1     -10.903  12.183  69.163  1.00  0.00    -0.115 C  
HETATM   14  C   UNL     1     -11.798  13.375  68.729  1.00  0.00    -0.351 C  
BRANCH  12  15
HETATM   15  C   UNL     1     -10.607   9.738  68.737  1.00  0.00    -0.219 C  
HETATM   16  N   UNL     1     -11.185   9.431  69.876  1.00  0.00    -0.201 NA 
HETATM   17  C   UNL     1     -11.111   8.129  70.407  1.00  0.00    -0.239 A  
HETATM   18  C   UNL     1     -10.473   7.108  69.724  1.00  0.00    -0.238 A  
HETATM   19  C   UNL     1     -10.542   5.781  70.208  1.00  0.00    -0.369 A  
HETATM   20  C   UNL     1      -9.616   7.440  68.520  1.00  0.00    -0.146 C  
HETATM   21  F   UNL     1     -12.331   8.775  72.355  1.00  0.00    -0.402 F  
HETATM   22  C   UNL     1     -11.158   5.483  71.416  1.00  0.00    -0.151 A  
HETATM   23  N   UNL     1      -9.727   8.867  68.063  1.00  0.00    -0.152 NA 
HETATM   24  C   UNL     1     -11.733   7.816  71.631  1.00  0.00    -0.280 A  
HETATM   25  C   UNL     1     -11.739   6.511  72.143  1.00  0.00    -0.353 A  
BRANCH  20  26
HETATM   26  C   UNL     1      -8.166   7.000  68.850  1.00  0.00    -0.122 C  
HETATM   27  O   UNL     1      -8.372   4.940  67.568  1.00  0.00    -0.105 OA 
HETATM   28  C   UNL     1      -7.553   5.910  68.010  1.00  0.00    -0.089 C  
HETATM   29  O   UNL     1      -6.342   5.853  67.824  1.00  0.00    -0.034 OA 
ENDBRANCH  20  26
BRANCH  23  30
HETATM   30  C   UNL     1      -8.717   9.249  67.101  1.00  0.00    -0.127 A  
HETATM   31  C   UNL     1      -7.807   8.997  64.826  1.00  0.00    -0.122 A  
HETATM   32  C   UNL     1      -8.809   8.770  65.780  1.00  0.00    -0.233 A  
HETATM   33  C   UNL     1      -7.676   8.108  63.615  1.00  0.00    -0.143 C  
HETATM   34  C   UNL     1      -6.863   9.982  65.074  1.00  0.00    -0.132 A  
HETATM   35  F   UNL     1      -8.511   7.036  63.637  1.00  0.00    -0.016 F  
HETATM   36  F   UNL     1      -7.912   8.762  62.446  1.00  0.00    -0.120 F  
HETATM   37  F   UNL     1      -6.418   7.592  63.516  1.00  0.00    -0.051 F  
HETATM   38  C   UNL     1      -6.794  10.565  66.333  1.00  0.00    -0.119 A  
HETATM   39  C   UNL     1      -7.623  10.122  67.375  1.00  0.00    -0.094 A  
BRANCH  39  40
HETATM   40  O   UNL     1      -7.459  10.595  68.655  1.00  0.00    -0.086 OA 
HETATM   41  C   UNL     1      -7.100  11.965  68.816  1.00  0.00    -0.111 C  
ENDBRANCH  39  40
ENDBRANCH  23  30
ENDBRANCH  12  15
ENDBRANCH   7   9
ENDBRANCH   2   3
TORSDOF 6
ENDMDL
MODEL       19
REMARK 921   NORMALIZED FREE ENERGY PREDICTED BY IDOCK:   -6.54 KCAL/MOL
REMARK 922        TOTAL FREE ENERGY PREDICTED BY IDOCK:  -10.07 KCAL/MOL
REMARK 923 INTER-LIGAND FREE ENERGY PREDICTED BY IDOCK:   -8.64 KCAL/MOL
REMARK 924 INTRA-LIGAND FREE ENERGY PREDICTED BY IDOCK:   -1.43 KCAL/MOL
REMARK 927      BINDING AFFINITY PREDICTED BY RF-SCORE:    0.00 PKD
ROOT
HETATM    1  C   UNL     1      -9.344   3.695  70.553  1.00  0.00    -0.161 C  
HETATM    2  O   UNL     1     -10.199   3.764  71.690  1.00  0.00    -0.125 OA 
ENDROOT
BRANCH   2   3
HETATM    3  C   UNL     1     -10.113   4.888  72.471  1.00  0.00    -0.182 A  
HETATM    4  C   UNL     1     -10.062   4.907  73.859  1.00  0.00    -0.219 A  
HETATM    5  C   UNL     1     -10.003   6.131  74.521  1.00  0.00    -0.343 A  
HETATM    6  C   UNL     1      -9.985   7.333  73.797  1.00  0.00    -0.368 A  
HETATM    7  C   UNL     1     -10.009   7.360  72.394  1.00  0.00    -0.180 A  
HETATM    8  C   UNL     1     -10.081   6.104  71.763  1.00  0.00    -0.214 A  
BRANCH   7   9
HETATM    9  N   UNL     1      -9.965   8.542  71.683  1.00  0.00    -0.232 NA 
HETATM   10  C   UNL     1      -8.716   9.146  71.190  1.00  0.00    -0.143 C  
HETATM   11  C   UNL     1      -8.761   9.282  69.661  1.00  0.00    -0.153 C  
HETATM   12  N   UNL     1      -9.965   9.980  69.151  1.00  0.00    -0.192 NA 
HETATM   13  C   UNL     1     -11.244   9.611  69.830  1.00  0.00    -0.174 C  
HETATM   14  C   UNL     1     -11.143   9.361  71.358  1.00  0.00    -0.380 C  
BRANCH  12  15
HETATM   15  C   UNL     1     -10.004  10.737  67.975  1.00  0.00    -0.164 C  
HETATM   16  N   UNL     1     -10.728  11.833  68.024  1.00  0.00    -0.200 NA 
HETATM   17  C   UNL     1     -10.722  12.761  66.966  1.00  0.00    -0.253 A  
HETATM   18  C   UNL     1      -9.913  12.586  65.857  1.00  0.00    -0.269 A  
HETATM   19  C   UNL     1      -9.815  13.605  64.881  1.00  0.00    -0.039 A  
HETATM   20  C   UNL     1      -9.219  11.255  65.645  1.00  0.00    -0.213 C  
HETATM   21  F   UNL     1     -12.339  14.132  68.063  1.00  0.00    -0.369 F  
HETATM   22  C   UNL     1     -10.592  14.752  64.956  1.00  0.00    -0.452 A  
HETATM   23  N   UNL     1      -9.327  10.314  66.812  1.00  0.00    -0.157 NA 
HETATM   24  C   UNL     1     -11.505  13.930  67.031  1.00  0.00    -0.346 A  
HETATM   25  C   UNL     1     -11.459  14.906  66.027  1.00  0.00    -0.275 A  
BRANCH  20  26
HETATM   26  C   UNL     1      -9.752  10.664  64.314  1.00  0.00    -0.372 C  
HETATM   27  O   UNL     1      -7.543  10.670  63.288  1.00  0.00    -0.058 OA 
HETATM   28  C   UNL     1      -8.750  10.082  63.352  1.00  0.00    -0.222 C  
HETATM   29  O   UNL     1      -9.055   9.174  62.586  1.00  0.00    -0.176 OA 
ENDBRANCH  20  26
BRANCH  23  30
HETATM   30  C   UNL     1      -8.910   8.964  66.510  1.00  0.00    -0.136 A  
HETATM   31  C   UNL     1      -9.518   6.583  66.345  1.00  0.00    -0.165 A  
HETATM   32  C   UNL     1      -9.867   7.931  66.509  1.00  0.00    -0.272 A  
HETATM   33  C   UNL     1     -10.436   5.484  66.818  1.00  0.00    -0.296 C  
HETATM   34  C   UNL     1      -8.262   6.276  65.846  1.00  0.00    -0.129 A  
HETATM   35  F   UNL     1     -11.513   5.938  67.512  1.00  0.00    -0.217 F  
HETATM   36  F   UNL     1     -10.921   4.721  65.802  1.00  0.00    -0.341 F  
HETATM   37  F   UNL     1      -9.789   4.630  67.661  1.00  0.00    -0.177 F  
HETATM   38  C   UNL     1      -7.307   7.279  65.727  1.00  0.00    -0.075 A  
HETATM   39  C   UNL     1      -7.578   8.583  66.168  1.00  0.00    -0.089 A  
BRANCH  39  40
HETATM   40  O   UNL     1      -6.591   9.540  66.185  1.00  0.00    -0.068 OA 
HETATM   41  C   UNL     1      -5.561   9.415  67.162  1.00  0.00    -0.040 C  
ENDBRANCH  39  40
ENDBRANCH  23  30
ENDBRANCH  12  15
ENDBRANCH   7   9
ENDBRANCH   2   3
TORSDOF 6
ENDMDL
MODEL       20
REMARK 921   NORMALIZED FREE ENERGY PREDICTED BY IDOCK:   -6.50 KCAL/MOL
REMARK 922        TOTAL FREE ENERGY PREDICTED BY IDOCK:  -10.02 KCAL/MOL
REMARK 923 INTER-LIGAND FREE ENERGY PREDICTED BY IDOCK:   -9.35 KCAL/MOL
REMARK 924 INTRA-LIGAND FREE ENERGY PREDICTED BY IDOCK:   -0.67 KCAL/MOL
REMARK 927      BINDING AFFINITY PREDICTED BY RF-SCORE:    0.00 PKD
ROOT
HETATM    1  C   UNL     1     -11.233   5.287  73.166  1.00  0.00    -0.318 C  
HETATM    2  O   UNL     1     -10.924   6.479  72.450  1.00  0.00    -0.227 OA 
ENDROOT
BRANCH   2   3
HETATM    3  C   UNL     1     -10.534   6.340  71.143  1.00  0.00    -0.223 A  
HETATM    4  C   UNL     1     -10.364   5.134  70.473  1.00  0.00    -0.314 A  
HETATM    5  C   UNL     1      -9.935   5.147  69.148  1.00  0.00    -0.273 A  
HETATM    6  C   UNL     1      -9.686   6.361  68.491  1.00  0.00    -0.134 A  
HETATM    7  C   UNL     1      -9.867   7.602  69.121  1.00  0.00    -0.171 A  
HETATM    8  C   UNL     1     -10.290   7.547  70.463  1.00  0.00    -0.217 A  
BRANCH   7   9
HETATM    9  N   UNL     1      -9.646   8.797  68.465  1.00  0.00    -0.148 NA 
HETATM   10  C   UNL     1     -10.658   9.861  68.356  1.00  0.00    -0.222 C  
HETATM   11  C   UNL     1     -10.133  11.157  68.992  1.00  0.00    -0.155 C  
HETATM   12  N   UNL     1      -8.807  11.585  68.487  1.00  0.00    -0.157 NA 
HETATM   13  C   UNL     1      -7.817  10.481  68.298  1.00  0.00    -0.111 C  
HETATM   14  C   UNL     1      -8.398   9.143  67.768  1.00  0.00    -0.117 C  
BRANCH  12  15
HETATM   15  C   UNL     1      -8.377  12.914  68.415  1.00  0.00    -0.116 C  
HETATM   16  N   UNL     1      -7.468  13.269  69.295  1.00  0.00     0.175 NA 
HETATM   17  C   UNL     1      -6.837  14.526  69.229  1.00  0.00    -0.134 A  
HETATM   18  C   UNL     1      -7.108  15.415  68.204  1.00  0.00    -0.128 A  
HETATM   19  C   UNL     1      -6.354  16.605  68.078  1.00  0.00    -0.146 A  
HETATM   20  C   UNL     1      -8.285  15.156  67.286  1.00  0.00    -0.208 C  
HETATM   21  F   UNL     1      -5.594  14.088  71.219  1.00  0.00    -0.143 F  
HETATM   22  C   UNL     1      -5.400  16.957  69.023  1.00  0.00    -0.135 A  
HETATM   23  N   UNL     1      -8.922  13.807  67.470  1.00  0.00    -0.191 NA 
HETATM   24  C   UNL     1      -5.867  14.894  70.181  1.00  0.00    -0.141 A  
HETATM   25  C   UNL     1      -5.170  16.107  70.094  1.00  0.00    -0.156 A  
BRANCH  20  26
HETATM   26  C   UNL     1      -9.272  16.341  67.454  1.00  0.00    -0.217 C  
HETATM   27  O   UNL     1      -8.276  17.587  65.614  1.00  0.00    -0.505 OA 
HETATM   28  C   UNL     1      -9.389  17.325  66.320  1.00  0.00    -0.223 C  
HETATM   29  O   UNL     1     -10.431  17.938  66.113  1.00  0.00    -0.381 OA 
ENDBRANCH  20  26
BRANCH  23  30
HETATM   30  C   UNL     1     -10.194  13.669  66.798  1.00  0.00    -0.268 A  
HETATM   31  C   UNL     1     -11.436  12.844  64.838  1.00  0.00    -0.351 A  
HETATM   32  C   UNL     1     -10.267  12.921  65.607  1.00  0.00    -0.295 A  
HETATM   33  C   UNL     1     -11.378  12.472  63.377  1.00  0.00    -0.422 C  
HETATM   34  C   UNL     1     -12.638  13.230  65.412  1.00  0.00    -0.526 A  
HETATM   35  F   UNL     1     -10.112  12.368  62.895  1.00  0.00    -0.272 F  
HETATM   36  F   UNL     1     -11.997  11.292  63.104  1.00  0.00    -0.379 F  
HETATM   37  F   UNL     1     -11.990  13.413  62.604  1.00  0.00    -0.257 F  
HETATM   38  C   UNL     1     -12.634  13.882  66.639  1.00  0.00    -0.177 A  
HETATM   39  C   UNL     1     -11.425  14.213  67.272  1.00  0.00    -0.350 A  
BRANCH  39  40
HETATM   40  O   UNL     1     -11.414  14.982  68.411  1.00  0.00    -0.295 OA 
HETATM   41  C   UNL     1     -12.070  14.465  69.567  1.00  0.00    -0.322 C  
ENDBRANCH  39  40
ENDBRANCH  23  30
ENDBRANCH  12  15
ENDBRANCH   7   9
ENDBRANCH   2   3
TORSDOF 6
ENDMDL
MODEL       21
REMARK 921   NORMALIZED FREE ENERGY PREDICTED BY IDOCK:   -6.41 KCAL/MOL
REMARK 922        TOTAL FREE ENERGY PREDICTED BY IDOCK:   -9.89 KCAL/MOL
REMARK 923 INTER-LIGAND FREE ENERGY PREDICTED BY IDOCK:   -8.58 KCAL/MOL
REMARK 924 INTRA-LIGAND FREE ENERGY PREDICTED BY IDOCK:   -1.32 KCAL/MOL
REMARK 927      BINDING AFFINITY PREDICTED BY RF-SCORE:    0.00 PKD
ROOT
HETATM    1  C   UNL     1      -7.389  20.176  66.245  1.00  0.00    -0.279 C  
HETATM    2  O   UNL     1      -8.432  19.309  65.811  1.00  0.00    -0.415 OA 
ENDROOT
BRANCH   2   3
HETATM    3  C   UNL     1      -9.085  18.583  66.775  1.00  0.00    -0.297 A  
HETATM    4  C   UNL     1      -9.690  19.107  67.910  1.00  0.00    -0.403 A  
HETATM    5  C   UNL     1     -10.294  18.242  68.819  1.00  0.00    -0.246 A  
HETATM    6  C   UNL     1     -10.303  16.858  68.588  1.00  0.00    -0.332 A  
HETATM    7  C   UNL     1      -9.726  16.288  67.444  1.00  0.00    -0.234 A  
HETATM    8  C   UNL     1      -9.115  17.194  66.555  1.00  0.00    -0.294 A  
BRANCH   7   9
HETATM    9  N   UNL     1      -9.758  14.929  67.205  1.00  0.00    -0.226 NA 
HETATM   10  C   UNL     1      -8.556  14.078  67.203  1.00  0.00    -0.205 C  
HETATM   11  C   UNL     1      -8.686  12.977  68.266  1.00  0.00    -0.173 C  
HETATM   12  N   UNL     1      -9.937  12.187  68.170  1.00  0.00    -0.197 NA 
HETATM   13  C   UNL     1     -11.166  12.985  67.878  1.00  0.00    -0.271 C  
HETATM   14  C   UNL     1     -10.978  14.169  66.891  1.00  0.00    -0.300 C  
BRANCH  12  15
HETATM   15  C   UNL     1     -10.062  10.850  68.559  1.00  0.00    -0.183 C  
HETATM   16  N   UNL     1     -10.772  10.633  69.644  1.00  0.00    -0.252 NA 
HETATM   17  C   UNL     1     -11.107   9.328  70.051  1.00  0.00    -0.205 A  
HETATM   18  C   UNL     1     -10.750   8.224  69.296  1.00  0.00    -0.140 A  
HETATM   19  C   UNL     1     -11.227   6.939  69.648  1.00  0.00    -0.289 A  
HETATM   20  C   UNL     1      -9.763   8.387  68.159  1.00  0.00    -0.155 C  
HETATM   21  F   UNL     1     -12.205  10.141  72.008  1.00  0.00    -0.444 F  
HETATM   22  C   UNL     1     -11.974   6.738  70.801  1.00  0.00    -0.433 A  
HETATM   23  N   UNL     1      -9.431   9.817  67.836  1.00  0.00    -0.131 NA 
HETATM   24  C   UNL     1     -11.866   9.111  71.217  1.00  0.00    -0.327 A  
HETATM   25  C   UNL     1     -12.277   7.828  71.602  1.00  0.00    -0.341 A  
BRANCH  20  26
HETATM   26  C   UNL     1      -8.523   7.518  68.495  1.00  0.00    -0.129 C  
HETATM   27  O   UNL     1      -8.980   5.955  66.684  1.00  0.00    -0.119 OA 
HETATM   28  C   UNL     1      -8.046   6.541  67.453  1.00  0.00    -0.121 C  
HETATM   29  O   UNL     1      -6.865   6.217  67.376  1.00  0.00    -0.059 OA 
ENDBRANCH  20  26
BRANCH  23  30
HETATM   30  C   UNL     1      -8.298   9.964  66.950  1.00  0.00    -0.124 A  
HETATM   31  C   UNL     1      -7.466  10.082  64.635  1.00  0.00    -0.143 A  
HETATM   32  C   UNL     1      -8.517  10.059  65.562  1.00  0.00    -0.155 A  
HETATM   33  C   UNL     1      -7.698   9.700  63.194  1.00  0.00    -0.128 C  
HETATM   34  C   UNL     1      -6.183  10.347  65.088  1.00  0.00    -0.114 A  
HETATM   35  F   UNL     1      -8.947   9.223  62.954  1.00  0.00    -0.230 F  
HETATM   36  F   UNL     1      -7.505  10.734  62.331  1.00  0.00    -0.153 F  
HETATM   37  F   UNL     1      -6.845   8.711  62.802  1.00  0.00    -0.091 F  
HETATM   38  C   UNL     1      -5.929  10.368  66.454  1.00  0.00    -0.075 A  
HETATM   39  C   UNL     1      -6.940  10.057  67.377  1.00  0.00    -0.083 A  
BRANCH  39  40
HETATM   40  O   UNL     1      -6.658   9.936  68.716  1.00  0.00    -0.046 OA 
HETATM   41  C   UNL     1      -5.450   9.275  69.084  1.00  0.00    -0.036 C  
ENDBRANCH  39  40
ENDBRANCH  23  30
ENDBRANCH  12  15
ENDBRANCH   7   9
ENDBRANCH   2   3
TORSDOF 6
ENDMDL
MODEL       22
REMARK 921   NORMALIZED FREE ENERGY PREDICTED BY IDOCK:   -6.39 KCAL/MOL
REMARK 922        TOTAL FREE ENERGY PREDICTED BY IDOCK:   -9.87 KCAL/MOL
REMARK 923 INTER-LIGAND FREE ENERGY PREDICTED BY IDOCK:   -8.09 KCAL/MOL
REMARK 924 INTRA-LIGAND FREE ENERGY PREDICTED BY IDOCK:   -1.78 KCAL/MOL
REMARK 927      BINDING AFFINITY PREDICTED BY RF-SCORE:    0.00 PKD
ROOT
HETATM    1  C   UNL     1     -11.487  16.072  68.339  1.00  0.00    -0.331 C  
HETATM    2  O   UNL     1     -10.618  16.084  67.211  1.00  0.00    -0.309 OA 
ENDROOT
BRANCH   2   3
HETATM    3  C   UNL     1     -10.513  14.922  66.489  1.00  0.00    -0.297 A  
HETATM    4  C   UNL     1     -10.634  14.814  65.109  1.00  0.00    -0.439 A  
HETATM    5  C   UNL     1     -10.530  13.559  64.514  1.00  0.00    -0.426 A  
HETATM    6  C   UNL     1     -10.297  12.417  65.295  1.00  0.00    -0.308 A  
HETATM    7  C   UNL     1     -10.144  12.483  66.688  1.00  0.00    -0.230 A  
HETATM    8  C   UNL     1     -10.267  13.766  67.253  1.00  0.00    -0.253 A  
BRANCH   7   9
HETATM    9  N   UNL     1      -9.890  11.361  67.452  1.00  0.00    -0.181 NA 
HETATM   10  C   UNL     1     -10.933  10.626  68.185  1.00  0.00    -0.269 C  
HETATM   11  C   UNL     1     -10.993   9.170  67.701  1.00  0.00     0.046 C  
HETATM   12  N   UNL     1      -9.688   8.469  67.724  1.00  0.00    -0.156 NA 
HETATM   13  C   UNL     1      -8.526   9.284  67.255  1.00  0.00    -0.125 C  
HETATM   14  C   UNL     1      -8.553  10.783  67.658  1.00  0.00    -0.123 C  
BRANCH  12  15
HETATM   15  C   UNL     1      -9.529   7.093  67.915  1.00  0.00    -0.130 C  
HETATM   16  N   UNL     1      -9.604   6.353  66.832  1.00  0.00    -0.144 NA 
HETATM   17  C   UNL     1      -9.305   4.977  66.863  1.00  0.00    -0.131 A  
HETATM   18  C   UNL     1      -8.866   4.362  68.022  1.00  0.00    -0.125 A  
HETATM   19  C   UNL     1      -8.431   3.016  67.991  1.00  0.00    -0.102 A  
HETATM   20  C   UNL     1      -8.958   5.104  69.340  1.00  0.00    -0.099 C  
HETATM   21  F   UNL     1      -9.850   4.731  64.553  1.00  0.00    -0.101 F  
HETATM   22  C   UNL     1      -8.522   2.256  66.832  1.00  0.00    -0.102 A  
HETATM   23  N   UNL     1      -9.334   6.553  69.203  1.00  0.00    -0.134 NA 
HETATM   24  C   UNL     1      -9.393   4.196  65.695  1.00  0.00    -0.162 A  
HETATM   25  C   UNL     1      -9.027   2.843  65.683  1.00  0.00    -0.143 A  
BRANCH  20  26
HETATM   26  C   UNL     1      -9.909   4.296  70.260  1.00  0.00    -0.263 C  
HETATM   27  O   UNL     1      -8.071   3.455  71.620  1.00  0.00    -0.060 OA 
HETATM   28  C   UNL     1      -9.366   3.811  71.580  1.00  0.00    -0.135 C  
HETATM   29  O   UNL     1     -10.099   3.651  72.550  1.00  0.00    -0.157 OA 
ENDBRANCH  20  26
BRANCH  23  30
HETATM   30  C   UNL     1      -9.686   7.182  70.456  1.00  0.00    -0.176 A  
HETATM   31  C   UNL     1     -11.427   8.242  71.838  1.00  0.00    -0.372 A  
HETATM   32  C   UNL     1     -11.030   7.522  70.702  1.00  0.00    -0.263 A  
HETATM   33  C   UNL     1     -12.730   9.002  71.855  1.00  0.00    -0.382 C  
HETATM   34  C   UNL     1     -10.548   8.340  72.905  1.00  0.00    -0.218 A  
HETATM   35  F   UNL     1     -13.363   9.019  70.653  1.00  0.00    -0.033 F  
HETATM   36  F   UNL     1     -13.621   8.511  72.758  1.00  0.00    -0.306 F  
HETATM   37  F   UNL     1     -12.533  10.310  72.186  1.00  0.00    -0.440 F  
HETATM   38  C   UNL     1      -9.232   7.922  72.751  1.00  0.00    -0.282 A  
HETATM   39  C   UNL     1      -8.766   7.465  71.509  1.00  0.00    -0.117 A  
BRANCH  39  40
HETATM   40  O   UNL     1      -7.433   7.187  71.315  1.00  0.00    -0.078 OA 
HETATM   41  C   UNL     1      -6.647   8.154  70.623  1.00  0.00    -0.037 C  
ENDBRANCH  39  40
ENDBRANCH  23  30
ENDBRANCH  12  15
ENDBRANCH   7   9
ENDBRANCH   2   3
TORSDOF 6
ENDMDL
MODEL       23
REMARK 921   NORMALIZED FREE ENERGY PREDICTED BY IDOCK:   -6.33 KCAL/MOL
REMARK 922        TOTAL FREE ENERGY PREDICTED BY IDOCK:   -9.78 KCAL/MOL
REMARK 923 INTER-LIGAND FREE ENERGY PREDICTED BY IDOCK:   -9.15 KCAL/MOL
REMARK 924 INTRA-LIGAND FREE ENERGY PREDICTED BY IDOCK:   -0.63 KCAL/MOL
REMARK 927      BINDING AFFINITY PREDICTED BY RF-SCORE:    0.00 PKD
ROOT
HETATM    1  C   UNL     1      -7.956   3.435  64.634  1.00  0.00    -0.086 C  
HETATM    2  O   UNL     1      -8.374   2.511  65.634  1.00  0.00    -0.085 OA 
ENDROOT
BRANCH   2   3
HETATM    3  C   UNL     1      -8.742   3.028  66.850  1.00  0.00    -0.126 A  
HETATM    4  C   UNL     1      -9.068   2.287  67.979  1.00  0.00    -0.223 A  
HETATM    5  C   UNL     1      -9.451   2.951  69.141  1.00  0.00    -0.154 A  
HETATM    6  C   UNL     1      -9.500   4.353  69.178  1.00  0.00    -0.240 A  
HETATM    7  C   UNL     1      -9.156   5.142  68.069  1.00  0.00    -0.112 A  
HETATM    8  C   UNL     1      -8.785   4.433  66.911  1.00  0.00    -0.112 A  
BRANCH   7   9
HETATM    9  N   UNL     1      -9.179   6.521  68.115  1.00  0.00    -0.114 NA 
HETATM   10  C   UNL     1      -9.756   7.358  67.050  1.00  0.00    -0.191 C  
HETATM   11  C   UNL     1     -10.891   8.224  67.614  1.00  0.00    -0.013 C  
HETATM   12  N   UNL     1     -10.513   9.015  68.809  1.00  0.00    -0.218 NA 
HETATM   13  C   UNL     1      -9.665   8.289  69.803  1.00  0.00    -0.180 C  
HETATM   14  C   UNL     1      -8.605   7.326  69.204  1.00  0.00    -0.133 C  
BRANCH  12  15
HETATM   15  C   UNL     1     -11.075  10.248  69.156  1.00  0.00    -0.235 C  
HETATM   16  N   UNL     1     -11.889  10.236  70.187  1.00  0.00    -0.270 NA 
HETATM   17  C   UNL     1     -12.394  11.430  70.735  1.00  0.00    -0.386 A  
HETATM   18  C   UNL     1     -12.010  12.666  70.245  1.00  0.00    -0.363 A  
HETATM   19  C   UNL     1     -12.414  13.849  70.907  1.00  0.00    -0.447 A  
HETATM   20  C   UNL     1     -11.247  12.745  68.938  1.00  0.00    -0.283 C  
HETATM   21  F   UNL     1     -13.705  10.231  72.329  1.00  0.00    -0.454 F  
HETATM   22  C   UNL     1     -13.276  13.808  71.995  1.00  0.00    -0.520 A  
HETATM   23  N   UNL     1     -10.796  11.412  68.410  1.00  0.00    -0.193 NA 
HETATM   24  C   UNL     1     -13.268  11.402  71.838  1.00  0.00    -0.380 A  
HETATM   25  C   UNL     1     -13.723  12.577  72.450  1.00  0.00    -0.284 A  
BRANCH  20  26
HETATM   26  C   UNL     1     -12.120  13.550  67.941  1.00  0.00    -0.304 C  
HETATM   27  O   UNL     1     -10.853  15.598  68.299  1.00  0.00    -0.274 OA 
HETATM   28  C   UNL     1     -11.586  14.867  67.443  1.00  0.00    -0.332 C  
HETATM   29  O   UNL     1     -11.892  15.301  66.337  1.00  0.00    -0.035 OA 
ENDBRANCH  20  26
BRANCH  23  30
HETATM   30  C   UNL     1     -10.317  11.460  67.047  1.00  0.00    -0.223 A  
HETATM   31  C   UNL     1     -10.823  11.886  64.675  1.00  0.00    -0.363 A  
HETATM   32  C   UNL     1     -11.174  11.924  66.031  1.00  0.00    -0.377 A  
HETATM   33  C   UNL     1     -11.881  11.918  63.601  1.00  0.00    -0.473 C  
HETATM   34  C   UNL     1      -9.491  11.698  64.337  1.00  0.00    -0.050 A  
HETATM   35  F   UNL     1     -13.148  11.847  64.086  1.00  0.00    -0.516 F  
HETATM   36  F   UNL     1     -11.822  13.035  62.828  1.00  0.00    -0.436 F  
HETATM   37  F   UNL     1     -11.754  10.859  62.751  1.00  0.00     0.280 F  
HETATM   38  C   UNL     1      -8.578  11.339  65.320  1.00  0.00     0.115 A  
HETATM   39  C   UNL     1      -8.999  11.098  66.637  1.00  0.00    -0.170 A  
BRANCH  39  40
HETATM   40  O   UNL     1      -8.126  10.605  67.577  1.00  0.00    -0.110 OA 
HETATM   41  C   UNL     1      -6.961   9.928  67.111  1.00  0.00    -0.084 C  
ENDBRANCH  39  40
ENDBRANCH  23  30
ENDBRANCH  12  15
ENDBRANCH   7   9
ENDBRANCH   2   3
TORSDOF 6
ENDMDL
MODEL       24
REMARK 921   NORMALIZED FREE ENERGY PREDICTED BY IDOCK:   -6.30 KCAL/MOL
REMARK 922        TOTAL FREE ENERGY PREDICTED BY IDOCK:   -9.74 KCAL/MOL
REMARK 923 INTER-LIGAND FREE ENERGY PREDICTED BY IDOCK:   -8.34 KCAL/MOL
REMARK 924 INTRA-LIGAND FREE ENERGY PREDICTED BY IDOCK:   -1.40 KCAL/MOL
REMARK 927      BINDING AFFINITY PREDICTED BY RF-SCORE:    0.00 PKD
ROOT
HETATM    1  C   UNL     1      -8.890   3.524  70.873  1.00  0.00    -0.083 C  
HETATM    2  O   UNL     1      -8.577   2.409  70.045  1.00  0.00    -0.046 OA 
ENDROOT
BRANCH   2   3
HETATM    3  C   UNL     1      -8.293   2.667  68.728  1.00  0.00    -0.064 A  
HETATM    4  C   UNL     1      -7.485   1.890  67.908  1.00  0.00    -0.054 A  
HETATM    5  C   UNL     1      -7.263   2.292  66.593  1.00  0.00    -0.056 A  
HETATM    6  C   UNL     1      -7.855   3.464  66.097  1.00  0.00    -0.085 A  
HETATM    7  C   UNL     1      -8.697   4.265  66.882  1.00  0.00    -0.113 A  
HETATM    8  C   UNL     1      -8.887   3.831  68.208  1.00  0.00    -0.147 A  
BRANCH   7   9
HETATM    9  N   UNL     1      -9.300   5.404  66.385  1.00  0.00    -0.145 NA 
HETATM   10  C   UNL     1     -10.721   5.726  66.595  1.00  0.00    -0.262 C  
HETATM   11  C   UNL     1     -10.856   7.070  67.326  1.00  0.00    -0.333 C  
HETATM   12  N   UNL     1     -10.113   8.183  66.690  1.00  0.00    -0.283 NA 
HETATM   13  C   UNL     1      -8.751   7.827  66.187  1.00  0.00    -0.156 C  
HETATM   14  C   UNL     1      -8.616   6.413  65.561  1.00  0.00    -0.109 C  
BRANCH  12  15
HETATM   15  C   UNL     1     -10.493   9.528  66.750  1.00  0.00    -0.193 C  
HETATM   16  N   UNL     1     -10.528  10.165  65.601  1.00  0.00    -0.123 NA 
HETATM   17  C   UNL     1     -11.046  11.470  65.504  1.00  0.00    -0.191 A  
HETATM   18  C   UNL     1     -11.589  12.114  66.602  1.00  0.00    -0.416 A  
HETATM   19  C   UNL     1     -12.235  13.362  66.446  1.00  0.00    -0.435 A  
HETATM   20  C   UNL     1     -11.391  11.524  67.984  1.00  0.00    -0.298 C  
HETATM   21  F   UNL     1     -10.527  11.581  63.177  1.00  0.00    -0.358 F  
HETATM   22  C   UNL     1     -12.257  14.014  65.220  1.00  0.00    -0.451 A  
HETATM   23  N   UNL     1     -10.784  10.149  67.982  1.00  0.00    -0.241 NA 
HETATM   24  C   UNL     1     -11.075  12.141  64.266  1.00  0.00    -0.346 A  
HETATM   25  C   UNL     1     -11.654  13.410  64.128  1.00  0.00    -0.440 A  
BRANCH  20  26
HETATM   26  C   UNL     1     -10.591  12.559  68.817  1.00  0.00    -0.204 C  
HETATM   27  O   UNL     1      -8.579  12.260  67.479  1.00  0.00    -0.156 OA 
HETATM   28  C   UNL     1      -9.313  13.098  68.230  1.00  0.00    -0.201 C  
HETATM   29  O   UNL     1      -8.907  14.221  68.509  1.00  0.00    -0.179 OA 
ENDBRANCH  20  26
BRANCH  23  30
HETATM   30  C   UNL     1     -10.347   9.706  69.287  1.00  0.00    -0.209 A  
HETATM   31  C   UNL     1      -8.484   8.974  70.722  1.00  0.00    -0.238 A  
HETATM   32  C   UNL     1      -8.972   9.516  69.525  1.00  0.00    -0.187 A  
HETATM   33  C   UNL     1      -7.118   8.338  70.783  1.00  0.00    -0.044 C  
HETATM   34  C   UNL     1      -9.325   8.927  71.823  1.00  0.00    -0.304 A  
HETATM   35  F   UNL     1      -6.515   8.234  69.570  1.00  0.00    -0.035 F  
HETATM   36  F   UNL     1      -6.253   9.009  71.591  1.00  0.00    -0.065 F  
HETATM   37  F   UNL     1      -7.187   7.066  71.270  1.00  0.00    -0.069 F  
HETATM   38  C   UNL     1     -10.677   9.207  71.667  1.00  0.00    -0.441 A  
HETATM   39  C   UNL     1     -11.212   9.471  70.396  1.00  0.00    -0.270 A  
BRANCH  39  40
HETATM   40  O   UNL     1     -12.568   9.606  70.218  1.00  0.00     0.052 OA 
HETATM   41  C   UNL     1     -13.402   9.512  71.370  1.00  0.00    -0.361 C  
ENDBRANCH  39  40
ENDBRANCH  23  30
ENDBRANCH  12  15
ENDBRANCH   7   9
ENDBRANCH   2   3
TORSDOF 6
ENDMDL
MODEL       25
REMARK 921   NORMALIZED FREE ENERGY PREDICTED BY IDOCK:   -6.26 KCAL/MOL
REMARK 922        TOTAL FREE ENERGY PREDICTED BY IDOCK:   -9.70 KCAL/MOL
REMARK 923 INTER-LIGAND FREE ENERGY PREDICTED BY IDOCK:   -7.92 KCAL/MOL
REMARK 924 INTRA-LIGAND FREE ENERGY PREDICTED BY IDOCK:   -1.77 KCAL/MOL
REMARK 927      BINDING AFFINITY PREDICTED BY RF-SCORE:    0.00 PKD
ROOT
HETATM    1  C   UNL     1      -8.439  17.146  66.296  1.00  0.00    -0.244 C  
HETATM    2  O   UNL     1      -9.767  17.297  65.804  1.00  0.00    -0.530 OA 
ENDROOT
BRANCH   2   3
HETATM    3  C   UNL     1     -10.412  16.161  65.386  1.00  0.00    -0.373 A  
HETATM    4  C   UNL     1     -11.534  16.123  64.566  1.00  0.00    -0.233 A  
HETATM    5  C   UNL     1     -12.100  14.892  64.245  1.00  0.00    -0.373 A  
HETATM    6  C   UNL     1     -11.542  13.701  64.735  1.00  0.00    -0.374 A  
HETATM    7  C   UNL     1     -10.397  13.691  65.545  1.00  0.00    -0.309 A  
HETATM    8  C   UNL     1      -9.861  14.956  65.857  1.00  0.00    -0.362 A  
BRANCH   7   9
HETATM    9  N   UNL     1      -9.833  12.518  66.005  1.00  0.00    -0.257 NA 
HETATM   10  C   UNL     1      -8.926  12.453  67.163  1.00  0.00    -0.195 C  
HETATM   11  C   UNL     1      -9.512  11.532  68.243  1.00  0.00    -0.189 C  
HETATM   12  N   UNL     1      -9.895  10.188  67.751  1.00  0.00    -0.159 NA 
HETATM   13  C   UNL     1     -10.571  10.173  66.418  1.00  0.00    -0.085 C  
HETATM   14  C   UNL     1     -10.036  11.200  65.384  1.00  0.00    -0.264 C  
BRANCH  12  15
HETATM   15  C   UNL     1      -9.881   9.025  68.528  1.00  0.00    -0.169 C  
HETATM   16  N   UNL     1     -10.408   9.132  69.727  1.00  0.00    -0.206 NA 
HETATM   17  C   UNL     1     -10.600   8.002  70.545  1.00  0.00    -0.220 A  
HETATM   18  C   UNL     1     -10.295   6.728  70.098  1.00  0.00    -0.228 A  
HETATM   19  C   UNL     1     -10.637   5.601  70.881  1.00  0.00    -0.328 A  
HETATM   20  C   UNL     1      -9.500   6.559  68.820  1.00  0.00    -0.128 C  
HETATM   21  F   UNL     1     -11.441   9.347  72.329  1.00  0.00    -0.387 F  
HETATM   22  C   UNL     1     -11.191   5.742  72.146  1.00  0.00    -0.327 A  
HETATM   23  N   UNL     1      -9.304   7.832  68.045  1.00  0.00    -0.141 NA 
HETATM   24  C   UNL     1     -11.163   8.133  71.829  1.00  0.00    -0.272 A  
HETATM   25  C   UNL     1     -11.436   7.017  72.632  1.00  0.00    -0.250 A  
BRANCH  20  26
HETATM   26  C   UNL     1      -8.174   5.844  69.192  1.00  0.00    -0.106 C  
HETATM   27  O   UNL     1      -8.940   3.707  68.312  1.00  0.00    -0.107 OA 
HETATM   28  C   UNL     1      -7.890   4.511  68.552  1.00  0.00    -0.079 C  
HETATM   29  O   UNL     1      -6.741   4.131  68.352  1.00  0.00    -0.045 OA 
ENDBRANCH  20  26
BRANCH  23  30
HETATM   30  C   UNL     1      -8.327   7.723  66.986  1.00  0.00    -0.117 A  
HETATM   31  C   UNL     1      -7.733   6.781  64.789  1.00  0.00    -0.111 A  
HETATM   32  C   UNL     1      -8.665   7.031  65.806  1.00  0.00    -0.116 A  
HETATM   33  C   UNL     1      -7.951   5.664  63.798  1.00  0.00    -0.120 C  
HETATM   34  C   UNL     1      -6.548   7.501  64.779  1.00  0.00    -0.040 A  
HETATM   35  F   UNL     1      -9.028   4.887  64.087  1.00  0.00    -0.146 F  
HETATM   36  F   UNL     1      -8.122   6.108  62.525  1.00  0.00    -0.083 F  
HETATM   37  F   UNL     1      -6.883   4.817  63.768  1.00  0.00    -0.039 F  
HETATM   38  C   UNL     1      -6.212   8.284  65.875  1.00  0.00    -0.048 A  
HETATM   39  C   UNL     1      -7.024   8.302  67.020  1.00  0.00    -0.071 A  
BRANCH  39  40
HETATM   40  O   UNL     1      -6.623   8.961  68.158  1.00  0.00    -0.059 OA 
HETATM   41  C   UNL     1      -5.652   8.325  68.986  1.00  0.00    -0.035 C  
ENDBRANCH  39  40
ENDBRANCH  23  30
ENDBRANCH  12  15
ENDBRANCH   7   9
ENDBRANCH   2   3
TORSDOF 6
ENDMDL
MODEL       26
REMARK 921   NORMALIZED FREE ENERGY PREDICTED BY IDOCK:   -6.20 KCAL/MOL
REMARK 922        TOTAL FREE ENERGY PREDICTED BY IDOCK:   -9.61 KCAL/MOL
REMARK 923 INTER-LIGAND FREE ENERGY PREDICTED BY IDOCK:   -8.92 KCAL/MOL
REMARK 924 INTRA-LIGAND FREE ENERGY PREDICTED BY IDOCK:   -0.69 KCAL/MOL
REMARK 927      BINDING AFFINITY PREDICTED BY RF-SCORE:    0.00 PKD
ROOT
HETATM    1  C   UNL     1      -9.436   3.824  67.418  1.00  0.00    -0.196 C  
HETATM    2  O   UNL     1      -9.492   3.832  68.841  1.00  0.00    -0.158 OA 
ENDROOT
BRANCH   2   3
HETATM    3  C   UNL     1      -9.971   4.968  69.442  1.00  0.00    -0.220 A  
HETATM    4  C   UNL     1     -10.717   5.010  70.614  1.00  0.00    -0.040 A  
HETATM    5  C   UNL     1     -11.161   6.239  71.094  1.00  0.00    -0.356 A  
HETATM    6  C   UNL     1     -10.852   7.425  70.410  1.00  0.00    -0.258 A  
HETATM    7  C   UNL     1     -10.081   7.432  69.238  1.00  0.00    -0.186 A  
HETATM    8  C   UNL     1      -9.661   6.169  68.778  1.00  0.00    -0.148 A  
BRANCH   7   9
HETATM    9  N   UNL     1      -9.756   8.602  68.581  1.00  0.00    -0.160 NA 
HETATM   10  C   UNL     1     -10.724   9.678  68.314  1.00  0.00    -0.217 C  
HETATM   11  C   UNL     1     -10.257  10.985  68.973  1.00  0.00    -0.200 C  
HETATM   12  N   UNL     1      -8.870  11.375  68.626  1.00  0.00    -0.154 NA 
HETATM   13  C   UNL     1      -7.887  10.250  68.595  1.00  0.00    -0.101 C  
HETATM   14  C   UNL     1      -8.424   8.905  68.036  1.00  0.00    -0.126 C  
BRANCH  12  15
HETATM   15  C   UNL     1      -8.408  12.694  68.570  1.00  0.00    -0.060 C  
HETATM   16  N   UNL     1      -7.503  13.022  69.464  1.00  0.00     0.449 NA 
HETATM   17  C   UNL     1      -6.842  14.264  69.416  1.00  0.00    -0.122 A  
HETATM   18  C   UNL     1      -7.078  15.167  68.394  1.00  0.00    -0.107 A  
HETATM   19  C   UNL     1      -6.294  16.339  68.287  1.00  0.00    -0.126 A  
HETATM   20  C   UNL     1      -8.249  14.942  67.459  1.00  0.00    -0.182 C  
HETATM   21  F   UNL     1      -5.635  13.782  71.419  1.00  0.00    -0.160 F  
HETATM   22  C   UNL     1      -5.345  16.662  69.248  1.00  0.00    -0.136 A  
HETATM   23  N   UNL     1      -8.919  13.607  67.624  1.00  0.00    -0.191 NA 
HETATM   24  C   UNL     1      -5.876  14.602  70.384  1.00  0.00    -0.156 A  
HETATM   25  C   UNL     1      -5.150  15.798  70.314  1.00  0.00    -0.135 A  
BRANCH  20  26
HETATM   26  C   UNL     1      -9.209  16.148  67.623  1.00  0.00    -0.205 C  
HETATM   27  O   UNL     1      -8.216  17.347  65.750  1.00  0.00    -0.540 OA 
HETATM   28  C   UNL     1      -9.324  17.118  66.476  1.00  0.00    -0.265 C  
HETATM   29  O   UNL     1     -10.356  17.748  66.275  1.00  0.00    -0.367 OA 
ENDBRANCH  20  26
BRANCH  23  30
HETATM   30  C   UNL     1     -10.186  13.504  66.935  1.00  0.00    -0.256 A  
HETATM   31  C   UNL     1     -11.418  12.734  64.947  1.00  0.00    -0.355 A  
HETATM   32  C   UNL     1     -10.257  12.777  65.732  1.00  0.00    -0.302 A  
HETATM   33  C   UNL     1     -11.349  12.383  63.481  1.00  0.00    -0.476 C  
HETATM   34  C   UNL     1     -12.619  13.134  65.512  1.00  0.00    -0.468 A  
HETATM   35  F   UNL     1     -10.079  12.262  63.013  1.00  0.00    -0.386 F  
HETATM   36  F   UNL     1     -11.987  11.220  63.181  1.00  0.00    -0.379 F  
HETATM   37  F   UNL     1     -11.933  13.348  62.716  1.00  0.00    -0.420 F  
HETATM   38  C   UNL     1     -12.618  13.766  66.749  1.00  0.00    -0.102 A  
HETATM   39  C   UNL     1     -11.412  14.064  67.402  1.00  0.00    -0.348 A  
BRANCH  39  40
HETATM   40  O   UNL     1     -11.400  14.814  68.553  1.00  0.00    -0.264 OA 
HETATM   41  C   UNL     1     -12.011  14.257  69.715  1.00  0.00    -0.339 C  
ENDBRANCH  39  40
ENDBRANCH  23  30
ENDBRANCH  12  15
ENDBRANCH   7   9
ENDBRANCH   2   3
TORSDOF 6
ENDMDL
MODEL       27
REMARK 921   NORMALIZED FREE ENERGY PREDICTED BY IDOCK:   -6.18 KCAL/MOL
REMARK 922        TOTAL FREE ENERGY PREDICTED BY IDOCK:   -9.59 KCAL/MOL
REMARK 923 INTER-LIGAND FREE ENERGY PREDICTED BY IDOCK:   -8.24 KCAL/MOL
REMARK 924 INTRA-LIGAND FREE ENERGY PREDICTED BY IDOCK:   -1.35 KCAL/MOL
REMARK 927      BINDING AFFINITY PREDICTED BY RF-SCORE:    0.00 PKD
ROOT
HETATM    1  C   UNL     1     -10.576  18.705  67.559  1.00  0.00    -0.423 C  
HETATM    2  O   UNL     1      -9.427  19.290  68.164  1.00  0.00    -0.315 OA 
ENDROOT
BRANCH   2   3
HETATM    3  C   UNL     1      -8.402  18.446  68.507  1.00  0.00    -0.323 A  
HETATM    4  C   UNL     1      -7.117  18.837  68.865  1.00  0.00    -0.333 A  
HETATM    5  C   UNL     1      -6.168  17.863  69.162  1.00  0.00    -0.231 A  
HETATM    6  C   UNL     1      -6.504  16.501  69.111  1.00  0.00    -0.193 A  
HETATM    7  C   UNL     1      -7.794  16.062  68.778  1.00  0.00    -0.190 A  
HETATM    8  C   UNL     1      -8.722  17.076  68.473  1.00  0.00    -0.253 A  
BRANCH   7   9
HETATM    9  N   UNL     1      -8.130  14.723  68.753  1.00  0.00    -0.152 NA 
HETATM   10  C   UNL     1      -9.445  14.225  68.320  1.00  0.00    -0.209 C  
HETATM   11  C   UNL     1      -9.283  13.275  67.124  1.00  0.00    -0.235 C  
HETATM   12  N   UNL     1      -8.312  12.179  67.348  1.00  0.00    -0.165 NA 
HETATM   13  C   UNL     1      -7.061  12.581  68.060  1.00  0.00    -0.103 C  
HETATM   14  C   UNL     1      -7.238  13.636  69.185  1.00  0.00     0.005 C  
BRANCH  12  15
HETATM   15  C   UNL     1      -8.387  10.917  66.750  1.00  0.00    -0.138 C  
HETATM   16  N   UNL     1      -8.051  10.865  65.480  1.00  0.00    -0.085 NA 
HETATM   17  C   UNL     1      -7.931   9.636  64.805  1.00  0.00    -0.129 A  
HETATM   18  C   UNL     1      -8.106   8.432  65.464  1.00  0.00    -0.129 A  
HETATM   19  C   UNL     1      -7.833   7.213  64.800  1.00  0.00    -0.126 A  
HETATM   20  C   UNL     1      -8.693   8.426  66.861  1.00  0.00    -0.130 C  
HETATM   21  F   UNL     1      -7.429  10.733  62.746  1.00  0.00    -0.139 F  
HETATM   22  C   UNL     1      -7.481   7.186  63.458  1.00  0.00    -0.100 A  
HETATM   23  N   UNL     1      -8.829   9.791  67.475  1.00  0.00    -0.125 NA 
HETATM   24  C   UNL     1      -7.573   9.596  63.444  1.00  0.00    -0.124 A  
HETATM   25  C   UNL     1      -7.371   8.384  62.769  1.00  0.00    -0.099 A  
BRANCH  20  26
HETATM   26  C   UNL     1     -10.024   7.633  66.799  1.00  0.00    -0.317 C  
HETATM   27  O   UNL     1      -9.042   5.670  67.854  1.00  0.00    -0.109 OA 
HETATM   28  C   UNL     1     -10.151   6.404  67.661  1.00  0.00    -0.151 C  
HETATM   29  O   UNL     1     -11.241   6.032  68.084  1.00  0.00    -0.263 OA 
ENDBRANCH  20  26
BRANCH  23  30
HETATM   30  C   UNL     1      -9.632   9.810  68.677  1.00  0.00    -0.151 A  
HETATM   31  C   UNL     1      -9.884   9.106  71.023  1.00  0.00    -0.366 A  
HETATM   32  C   UNL     1      -9.119   9.233  69.855  1.00  0.00    -0.203 A  
HETATM   33  C   UNL     1      -9.521   8.090  72.078  1.00  0.00    -0.197 C  
HETATM   34  C   UNL     1     -11.048   9.849  71.142  1.00  0.00    -0.359 A  
HETATM   35  F   UNL     1      -8.506   7.265  71.709  1.00  0.00    -0.110 F  
HETATM   36  F   UNL     1      -9.153   8.656  73.258  1.00  0.00    -0.281 F  
HETATM   37  F   UNL     1     -10.576   7.273  72.359  1.00  0.00    -0.220 F  
HETATM   38  C   UNL     1     -11.546  10.525  70.035  1.00  0.00    -0.392 A  
HETATM   39  C   UNL     1     -10.921  10.411  68.784  1.00  0.00    -0.245 A  
BRANCH  39  40
HETATM   40  O   UNL     1     -11.489  10.961  67.659  1.00  0.00    -0.468 OA 
HETATM   41  C   UNL     1     -12.146  12.219  67.795  1.00  0.00     0.037 C  
ENDBRANCH  39  40
ENDBRANCH  23  30
ENDBRANCH  12  15
ENDBRANCH   7   9
ENDBRANCH   2   3
TORSDOF 6
ENDMDL
MODEL       28
REMARK 921   NORMALIZED FREE ENERGY PREDICTED BY IDOCK:   -6.18 KCAL/MOL
REMARK 922        TOTAL FREE ENERGY PREDICTED BY IDOCK:   -9.58 KCAL/MOL
REMARK 923 INTER-LIGAND FREE ENERGY PREDICTED BY IDOCK:   -9.01 KCAL/MOL
REMARK 924 INTRA-LIGAND FREE ENERGY PREDICTED BY IDOCK:   -0.57 KCAL/MOL
REMARK 927      BINDING AFFINITY PREDICTED BY RF-SCORE:    0.00 PKD
ROOT
HETATM    1  C   UNL     1      -5.525   6.337  67.460  1.00  0.00    -0.005 C  
HETATM    2  O   UNL     1      -5.795   5.915  68.793  1.00  0.00    -0.014 OA 
ENDROOT
BRANCH   2   3
HETATM    3  C   UNL     1      -7.065   5.476  69.065  1.00  0.00    -0.068 A  
HETATM    4  C   UNL     1      -7.459   4.146  69.157  1.00  0.00    -0.054 A  
HETATM    5  C   UNL     1      -8.795   3.849  69.414  1.00  0.00    -0.148 A  
HETATM    6  C   UNL     1      -9.733   4.878  69.589  1.00  0.00    -0.266 A  
HETATM    7  C   UNL     1      -9.375   6.233  69.529  1.00  0.00    -0.142 A  
HETATM    8  C   UNL     1      -8.019   6.492  69.256  1.00  0.00    -0.111 A  
BRANCH   7   9
HETATM    9  N   UNL     1     -10.294   7.244  69.727  1.00  0.00    -0.214 NA 
HETATM   10  C   UNL     1     -10.549   7.863  71.039  1.00  0.00    -0.213 C  
HETATM   11  C   UNL     1     -10.261   9.371  70.977  1.00  0.00    -0.299 C  
HETATM   12  N   UNL     1     -10.959  10.075  69.875  1.00  0.00    -0.273 NA 
HETATM   13  C   UNL     1     -10.983   9.343  68.573  1.00  0.00    -0.030 C  
HETATM   14  C   UNL     1     -11.154   7.803  68.673  1.00  0.00     0.304 C  
BRANCH  12  15
HETATM   15  C   UNL     1     -11.358  11.415  69.918  1.00  0.00    -0.219 C  
HETATM   16  N   UNL     1     -12.299  11.705  70.788  1.00  0.00    -0.385 NA 
HETATM   17  C   UNL     1     -12.675  13.037  71.043  1.00  0.00    -0.262 A  
HETATM   18  C   UNL     1     -12.033  14.098  70.428  1.00  0.00    -0.400 A  
HETATM   19  C   UNL     1     -12.329  15.426  70.812  1.00  0.00    -0.447 A  
HETATM   20  C   UNL     1     -11.093  13.828  69.270  1.00  0.00    -0.208 C  
HETATM   21  F   UNL     1     -14.371  12.343  72.572  1.00  0.00    -0.252 F  
HETATM   22  C   UNL     1     -13.329  15.705  71.734  1.00  0.00    -0.541 A  
HETATM   23  N   UNL     1     -10.794  12.372  69.048  1.00  0.00    -0.190 NA 
HETATM   24  C   UNL     1     -13.687  13.332  71.976  1.00  0.00    -0.430 A  
HETATM   25  C   UNL     1     -14.028  14.651  72.303  1.00  0.00    -0.589 A  
BRANCH  20  26
HETATM   26  C   UNL     1     -11.678  14.543  68.024  1.00  0.00    -0.373 C  
HETATM   27  O   UNL     1     -10.177  16.446  68.263  1.00  0.00    -0.238 OA 
HETATM   28  C   UNL     1     -10.881  15.670  67.421  1.00  0.00    -0.315 C  
HETATM   29  O   UNL     1     -10.953  15.933  66.225  1.00  0.00    -0.244 OA 
ENDBRANCH  20  26
BRANCH  23  30
HETATM   30  C   UNL     1     -10.128  12.100  67.794  1.00  0.00    -0.199 A  
HETATM   31  C   UNL     1     -10.283  11.970  65.340  1.00  0.00    -0.295 A  
HETATM   32  C   UNL     1     -10.818  12.323  66.587  1.00  0.00    -0.296 A  
HETATM   33  C   UNL     1     -11.180  11.760  64.145  1.00  0.00    -0.364 C  
HETATM   34  C   UNL     1      -8.926  11.701  65.249  1.00  0.00     0.129 A  
HETATM   35  F   UNL     1     -12.504  11.812  64.446  1.00  0.00    -0.342 F  
HETATM   36  F   UNL     1     -10.969  12.668  63.155  1.00  0.00    -0.473 F  
HETATM   37  F   UNL     1     -10.978  10.532  63.587  1.00  0.00    -0.068 F  
HETATM   38  C   UNL     1      -8.173  11.573  66.410  1.00  0.00    -0.092 A  
HETATM   39  C   UNL     1      -8.782  11.645  67.672  1.00  0.00    -0.156 A  
BRANCH  39  40
HETATM   40  O   UNL     1      -8.068  11.377  68.815  1.00  0.00    -0.145 OA 
HETATM   41  C   UNL     1      -7.322  10.163  68.863  1.00  0.00    -0.083 C  
ENDBRANCH  39  40
ENDBRANCH  23  30
ENDBRANCH  12  15
ENDBRANCH   7   9
ENDBRANCH   2   3
TORSDOF 6
ENDMDL
MODEL       29
REMARK 921   NORMALIZED FREE ENERGY PREDICTED BY IDOCK:   -6.14 KCAL/MOL
REMARK 922        TOTAL FREE ENERGY PREDICTED BY IDOCK:   -9.53 KCAL/MOL
REMARK 923 INTER-LIGAND FREE ENERGY PREDICTED BY IDOCK:   -7.91 KCAL/MOL
REMARK 924 INTRA-LIGAND FREE ENERGY PREDICTED BY IDOCK:   -1.62 KCAL/MOL
REMARK 927      BINDING AFFINITY PREDICTED BY RF-SCORE:    0.00 PKD
ROOT
HETATM    1  C   UNL     1      -9.873  20.226  67.708  1.00  0.00    -0.393 C  
HETATM    2  O   UNL     1     -10.233  18.952  68.232  1.00  0.00    -0.369 OA 
ENDROOT
BRANCH   2   3
HETATM    3  C   UNL     1     -10.473  17.948  67.328  1.00  0.00    -0.366 A  
HETATM    4  C   UNL     1     -10.277  18.032  65.955  1.00  0.00    -0.304 A  
HETATM    5  C   UNL     1     -10.592  16.937  65.155  1.00  0.00    -0.087 A  
HETATM    6  C   UNL     1     -11.092  15.757  65.727  1.00  0.00    -0.124 A  
HETATM    7  C   UNL     1     -11.282  15.620  67.110  1.00  0.00    -0.152 A  
HETATM    8  C   UNL     1     -10.964  16.752  67.883  1.00  0.00    -0.260 A  
BRANCH   7   9
HETATM    9  N   UNL     1     -11.750  14.449  67.674  1.00  0.00    -0.375 NA 
HETATM   10  C   UNL     1     -12.139  13.269  66.885  1.00  0.00    -0.332 C  
HETATM   11  C   UNL     1     -11.287  12.057  67.291  1.00  0.00    -0.330 C  
HETATM   12  N   UNL     1     -11.277  11.784  68.747  1.00  0.00    -0.230 NA 
HETATM   13  C   UNL     1     -11.176  12.996  69.615  1.00  0.00    -0.010 C  
HETATM   14  C   UNL     1     -11.951  14.245  69.116  1.00  0.00    -0.335 C  
BRANCH  12  15
HETATM   15  C   UNL     1     -11.117  10.516  69.316  1.00  0.00    -0.246 C  
HETATM   16  N   UNL     1     -11.973  10.202  70.262  1.00  0.00    -0.255 NA 
HETATM   17  C   UNL     1     -12.022   8.903  70.802  1.00  0.00    -0.148 A  
HETATM   18  C   UNL     1     -11.211   7.891  70.320  1.00  0.00    -0.206 A  
HETATM   19  C   UNL     1     -11.385   6.563  70.776  1.00  0.00    -0.399 A  
HETATM   20  C   UNL     1     -10.069   8.234  69.384  1.00  0.00    -0.198 C  
HETATM   21  F   UNL     1     -13.725   9.532  72.352  1.00  0.00    -0.446 F  
HETATM   22  C   UNL     1     -12.295   6.259  71.779  1.00  0.00    -0.149 A  
HETATM   23  N   UNL     1     -10.076   9.658  68.905  1.00  0.00    -0.180 NA 
HETATM   24  C   UNL     1     -12.942   8.582  71.819  1.00  0.00    -0.352 A  
HETATM   25  C   UNL     1     -13.063   7.278  72.319  1.00  0.00     0.078 A  
BRANCH  20  26
HETATM   26  C   UNL     1      -8.753   7.819  70.090  1.00  0.00    -0.140 C  
HETATM   27  O   UNL     1      -8.551   5.778  68.776  1.00  0.00    -0.109 OA 
HETATM   28  C   UNL     1      -7.908   6.757  69.436  1.00  0.00    -0.113 C  
HETATM   29  O   UNL     1      -6.691   6.729  69.584  1.00  0.00    -0.047 OA 
ENDBRANCH  20  26
BRANCH  23  30
HETATM   30  C   UNL     1      -8.853  10.054  68.243  1.00  0.00    -0.116 A  
HETATM   31  C   UNL     1      -6.942  11.604  68.153  1.00  0.00    -0.071 A  
HETATM   32  C   UNL     1      -8.072  11.085  68.799  1.00  0.00    -0.145 A  
HETATM   33  C   UNL     1      -6.419  12.977  68.493  1.00  0.00    -0.084 C  
HETATM   34  C   UNL     1      -6.380  10.882  67.111  1.00  0.00    -0.074 A  
HETATM   35  F   UNL     1      -7.219  13.665  69.349  1.00  0.00    -0.089 F  
HETATM   36  F   UNL     1      -5.180  12.952  69.052  1.00  0.00    -0.067 F  
HETATM   37  F   UNL     1      -6.319  13.756  67.378  1.00  0.00    -0.174 F  
HETATM   38  C   UNL     1      -7.060   9.788  66.589  1.00  0.00    -0.086 A  
HETATM   39  C   UNL     1      -8.338   9.448  67.059  1.00  0.00    -0.127 A  
BRANCH  39  40
HETATM   40  O   UNL     1      -9.072   8.458  66.449  1.00  0.00    -0.163 OA 
HETATM   41  C   UNL     1      -8.360   7.399  65.815  1.00  0.00    -0.139 C  
ENDBRANCH  39  40
ENDBRANCH  23  30
ENDBRANCH  12  15
ENDBRANCH   7   9
ENDBRANCH   2   3
TORSDOF 6
ENDMDL
MODEL       30
REMARK 921   NORMALIZED FREE ENERGY PREDICTED BY IDOCK:   -6.13 KCAL/MOL
REMARK 922        TOTAL FREE ENERGY PREDICTED BY IDOCK:   -9.51 KCAL/MOL
REMARK 923 INTER-LIGAND FREE ENERGY PREDICTED BY IDOCK:   -8.80 KCAL/MOL
REMARK 924 INTRA-LIGAND FREE ENERGY PREDICTED BY IDOCK:   -0.71 KCAL/MOL
REMARK 927      BINDING AFFINITY PREDICTED BY RF-SCORE:    0.00 PKD
ROOT
HETATM    1  C   UNL     1     -10.044   7.873  69.036  1.00  0.00    -0.200 C  
HETATM    2  O   UNL     1      -9.633   8.104  70.379  1.00  0.00    -0.169 OA 
ENDROOT
BRANCH   2   3
HETATM    3  C   UNL     1      -8.341   8.521  70.576  1.00  0.00    -0.135 A  
HETATM    4  C   UNL     1      -7.381   7.851  71.324  1.00  0.00    -0.068 A  
HETATM    5  C   UNL     1      -6.113   8.410  71.458  1.00  0.00    -0.043 A  
HETATM    6  C   UNL     1      -5.802   9.631  70.840  1.00  0.00    -0.072 A  
HETATM    7  C   UNL     1      -6.733  10.329  70.056  1.00  0.00    -0.137 A  
HETATM    8  C   UNL     1      -8.007   9.737  69.953  1.00  0.00    -0.184 A  
BRANCH   7   9
HETATM    9  N   UNL     1      -6.418  11.516  69.426  1.00  0.00    -0.099 NA 
HETATM   10  C   UNL     1      -6.386  11.675  67.963  1.00  0.00    -0.047 C  
HETATM   11  C   UNL     1      -7.384  12.758  67.526  1.00  0.00    -0.153 C  
HETATM   12  N   UNL     1      -7.226  14.048  68.237  1.00  0.00    -0.101 NA 
HETATM   13  C   UNL     1      -6.960  13.933  69.703  1.00  0.00     0.075 C  
HETATM   14  C   UNL     1      -6.045  12.754  70.128  1.00  0.00    -0.090 C  
BRANCH  12  15
HETATM   15  C   UNL     1      -7.538  15.298  67.690  1.00  0.00    -0.172 C  
HETATM   16  N   UNL     1      -6.751  16.289  68.044  1.00  0.00    -0.126 NA 
HETATM   17  C   UNL     1      -6.858  17.558  67.444  1.00  0.00    -0.164 A  
HETATM   18  C   UNL     1      -7.757  17.797  66.419  1.00  0.00    -0.318 A  
HETATM   19  C   UNL     1      -7.740  19.035  65.735  1.00  0.00    -0.065 A  
HETATM   20  C   UNL     1      -8.825  16.768  66.111  1.00  0.00    -0.263 C  
HETATM   21  F   UNL     1      -5.148  18.448  68.851  1.00  0.00    -0.173 F  
HETATM   22  C   UNL     1      -6.899  20.067  66.130  1.00  0.00    -0.258 A  
HETATM   23  N   UNL     1      -8.651  15.466  66.841  1.00  0.00    -0.239 NA 
HETATM   24  C   UNL     1      -6.010  18.612  67.836  1.00  0.00    -0.190 A  
HETATM   25  C   UNL     1      -6.044  19.861  67.202  1.00  0.00    -0.198 A  
BRANCH  20  26
HETATM   26  C   UNL     1     -10.200  17.442  66.354  1.00  0.00    -0.339 C  
HETATM   27  O   UNL     1      -9.631  18.049  68.643  1.00  0.00    -0.316 OA 
HETATM   28  C   UNL     1     -10.332  18.362  67.540  1.00  0.00    -0.393 C  
HETATM   29  O   UNL     1     -11.124  19.298  67.535  1.00  0.00    -0.423 OA 
ENDBRANCH  20  26
BRANCH  23  30
HETATM   30  C   UNL     1      -9.803  14.596  66.760  1.00  0.00    -0.255 A  
HETATM   31  C   UNL     1     -11.122  13.006  65.420  1.00  0.00    -0.300 A  
HETATM   32  C   UNL     1      -9.973  13.782  65.624  1.00  0.00    -0.275 A  
HETATM   33  C   UNL     1     -11.508  12.543  64.036  1.00  0.00    -0.409 C  
HETATM   34  C   UNL     1     -11.965  12.769  66.494  1.00  0.00    -0.428 A  
HETATM   35  F   UNL     1     -10.726  13.063  63.054  1.00  0.00    -0.040 F  
HETATM   36  F   UNL     1     -11.463  11.192  63.896  1.00  0.00    -0.408 F  
HETATM   37  F   UNL     1     -12.782  12.918  63.729  1.00  0.00    -0.405 F  
HETATM   38  C   UNL     1     -11.780  13.470  67.679  1.00  0.00    -0.398 A  
HETATM   39  C   UNL     1     -10.793  14.464  67.778  1.00  0.00    -0.258 A  
BRANCH  39  40
HETATM   40  O   UNL     1     -10.701  15.256  68.897  1.00  0.00    -0.229 OA 
HETATM   41  C   UNL     1     -11.820  15.290  69.781  1.00  0.00    -0.332 C  
ENDBRANCH  39  40
ENDBRANCH  23  30
ENDBRANCH  12  15
ENDBRANCH   7   9
ENDBRANCH   2   3
TORSDOF 6
ENDMDL
MODEL       31
REMARK 921   NORMALIZED FREE ENERGY PREDICTED BY IDOCK:   -5.96 KCAL/MOL
REMARK 922        TOTAL FREE ENERGY PREDICTED BY IDOCK:   -9.29 KCAL/MOL
REMARK 923 INTER-LIGAND FREE ENERGY PREDICTED BY IDOCK:   -7.69 KCAL/MOL
REMARK 924 INTRA-LIGAND FREE ENERGY PREDICTED BY IDOCK:   -1.60 KCAL/MOL
REMARK 927      BINDING AFFINITY PREDICTED BY RF-SCORE:    0.00 PKD
ROOT
HETATM    1  C   UNL     1      -6.850   4.760  65.891  1.00  0.00    -0.061 C  
HETATM    2  O   UNL     1      -7.058   6.162  66.033  1.00  0.00    -0.064 OA 
ENDROOT
BRANCH   2   3
HETATM    3  C   UNL     1      -8.319   6.575  66.379  1.00  0.00    -0.120 A  
HETATM    4  C   UNL     1      -9.426   5.751  66.536  1.00  0.00    -0.168 A  
HETATM    5  C   UNL     1     -10.655   6.317  66.865  1.00  0.00    -0.374 A  
HETATM    6  C   UNL     1     -10.775   7.704  67.047  1.00  0.00    -0.340 A  
HETATM    7  C   UNL     1      -9.678   8.571  66.923  1.00  0.00    -0.221 A  
HETATM    8  C   UNL     1      -8.457   7.961  66.578  1.00  0.00    -0.134 A  
BRANCH   7   9
HETATM    9  N   UNL     1      -9.792   9.931  67.128  1.00  0.00    -0.178 NA 
HETATM   10  C   UNL     1     -10.935  10.730  66.654  1.00  0.00    -0.106 C  
HETATM   11  C   UNL     1     -11.634  11.409  67.840  1.00  0.00    -0.266 C  
HETATM   12  N   UNL     1     -10.724  12.189  68.713  1.00  0.00    -0.230 NA 
HETATM   13  C   UNL     1      -9.407  11.540  68.992  1.00  0.00     0.108 C  
HETATM   14  C   UNL     1      -8.782  10.756  67.807  1.00  0.00    -0.130 C  
BRANCH  12  15
HETATM   15  C   UNL     1     -11.103  13.318  69.446  1.00  0.00    -0.090 C  
HETATM   16  N   UNL     1     -11.961  13.108  70.418  1.00  0.00    -0.311 NA 
HETATM   17  C   UNL     1     -12.300  14.127  71.329  1.00  0.00    -0.369 A  
HETATM   18  C   UNL     1     -11.701  15.374  71.270  1.00  0.00    -0.433 A  
HETATM   19  C   UNL     1     -11.948  16.328  72.285  1.00  0.00    -0.605 A  
HETATM   20  C   UNL     1     -10.868  15.743  70.060  1.00  0.00    -0.342 C  
HETATM   21  F   UNL     1     -13.863  12.711  72.445  1.00  0.00    -0.587 F  
HETATM   22  C   UNL     1     -12.861  16.080  73.301  1.00  0.00    -0.649 A  
HETATM   23  N   UNL     1     -10.606  14.598  69.122  1.00  0.00    -0.243 NA 
HETATM   24  C   UNL     1     -13.223  13.888  72.364  1.00  0.00    -0.488 A  
HETATM   25  C   UNL     1     -13.519  14.860  73.329  1.00  0.00    -0.239 A  
BRANCH  20  26
HETATM   26  C   UNL     1     -11.552  16.961  69.384  1.00  0.00     0.699 C  
HETATM   27  O   UNL     1      -9.501  18.274  69.404  1.00  0.00     0.044 OA 
HETATM   28  C   UNL     1     -10.666  18.020  68.783  1.00  0.00     0.147 C  
HETATM   29  O   UNL     1     -11.036  18.694  67.828  1.00  0.00    -0.333 OA 
ENDBRANCH  20  26
BRANCH  23  30
HETATM   30  C   UNL     1     -10.055  15.005  67.849  1.00  0.00    -0.226 A  
HETATM   31  C   UNL     1      -8.165  15.991  66.618  1.00  0.00    -0.324 A  
HETATM   32  C   UNL     1      -8.727  15.468  67.791  1.00  0.00    -0.170 A  
HETATM   33  C   UNL     1      -6.964  16.903  66.676  1.00  0.00    -0.246 C  
HETATM   34  C   UNL     1      -8.801  15.753  65.410  1.00  0.00     1.103 A  
HETATM   35  F   UNL     1      -6.607  17.248  67.941  1.00  0.00    -0.142 F  
HETATM   36  F   UNL     1      -5.859  16.367  66.092  1.00  0.00     0.255 F  
HETATM   37  F   UNL     1      -7.206  18.079  66.029  1.00  0.00    -0.263 F  
HETATM   38  C   UNL     1     -10.075  15.199  65.403  1.00  0.00    -0.384 A  
HETATM   39  C   UNL     1     -10.752  14.941  66.606  1.00  0.00    -0.312 A  
BRANCH  39  40
HETATM   40  O   UNL     1     -12.063  14.529  66.602  1.00  0.00    -0.393 OA 
HETATM   41  C   UNL     1     -12.617  14.088  65.365  1.00  0.00    -0.505 C  
ENDBRANCH  39  40
ENDBRANCH  23  30
ENDBRANCH  12  15
ENDBRANCH   7   9
ENDBRANCH   2   3
TORSDOF 6
ENDMDL
MODEL       32
REMARK 921   NORMALIZED FREE ENERGY PREDICTED BY IDOCK:   -5.95 KCAL/MOL
REMARK 922        TOTAL FREE ENERGY PREDICTED BY IDOCK:   -9.28 KCAL/MOL
REMARK 923 INTER-LIGAND FREE ENERGY PREDICTED BY IDOCK:   -8.63 KCAL/MOL
REMARK 924 INTRA-LIGAND FREE ENERGY PREDICTED BY IDOCK:   -0.65 KCAL/MOL
REMARK 927      BINDING AFFINITY PREDICTED BY RF-SCORE:    0.00 PKD
ROOT
HETATM    1  C   UNL     1      -9.451   2.487  68.859  1.00  0.00    -0.094 C  
HETATM    2  O   UNL     1      -9.314   2.319  70.266  1.00  0.00    -0.115 OA 
ENDROOT
BRANCH   2   3
HETATM    3  C   UNL     1      -9.765   3.340  71.065  1.00  0.00    -0.129 A  
HETATM    4  C   UNL     1     -10.293   3.194  72.342  1.00  0.00    -0.146 A  
HETATM    5  C   UNL     1     -10.737   4.322  73.027  1.00  0.00    -0.272 A  
HETATM    6  C   UNL     1     -10.644   5.594  72.441  1.00  0.00    -0.270 A  
HETATM    7  C   UNL     1     -10.096   5.790  71.164  1.00  0.00    -0.203 A  
HETATM    8  C   UNL     1      -9.669   4.624  70.500  1.00  0.00    -0.284 A  
BRANCH   7   9
HETATM    9  N   UNL     1      -9.982   7.045  70.600  1.00  0.00    -0.187 NA 
HETATM   10  C   UNL     1     -10.716   7.460  69.393  1.00  0.00    -0.211 C  
HETATM   11  C   UNL     1     -11.602   8.676  69.706  1.00  0.00     0.371 C  
HETATM   12  N   UNL     1     -10.881   9.802  70.343  1.00  0.00    -0.287 NA 
HETATM   13  C   UNL     1      -9.892   9.406  71.391  1.00  0.00    -0.110 C  
HETATM   14  C   UNL     1      -9.096   8.105  71.104  1.00  0.00    -0.154 C  
BRANCH  12  15
HETATM   15  C   UNL     1     -11.231  11.149  70.202  1.00  0.00    -0.128 C  
HETATM   16  N   UNL     1     -12.211  11.569  70.970  1.00  0.00    -0.316 NA 
HETATM   17  C   UNL     1     -12.552  12.933  71.040  1.00  0.00    -0.287 A  
HETATM   18  C   UNL     1     -11.834  13.893  70.348  1.00  0.00    -0.335 A  
HETATM   19  C   UNL     1     -12.102  15.266  70.553  1.00  0.00    -0.395 A  
HETATM   20  C   UNL     1     -10.836  13.458  69.294  1.00  0.00    -0.040 C  
HETATM   21  F   UNL     1     -14.362  12.479  72.528  1.00  0.00    -0.328 F  
HETATM   22  C   UNL     1     -13.145  15.683  71.369  1.00  0.00    -0.559 A  
HETATM   23  N   UNL     1     -10.580  11.978  69.264  1.00  0.00    -0.032 NA 
HETATM   24  C   UNL     1     -13.607  13.369  71.866  1.00  0.00    -0.409 A  
HETATM   25  C   UNL     1     -13.916  14.727  72.013  1.00  0.00    -0.582 A  
BRANCH  20  26
HETATM   26  C   UNL     1     -11.317  14.036  67.937  1.00  0.00    -0.317 C  
HETATM   27  O   UNL     1      -9.430  15.568  67.784  1.00  0.00    -0.203 OA 
HETATM   28  C   UNL     1     -10.328  14.823  67.117  1.00  0.00    -0.255 C  
HETATM   29  O   UNL     1     -10.403  14.863  65.894  1.00  0.00    -0.281 OA 
ENDBRANCH  20  26
BRANCH  23  30
HETATM   30  C   UNL     1      -9.850  11.538  68.097  1.00  0.00    -0.194 A  
HETATM   31  C   UNL     1      -7.683  10.911  67.109  1.00  0.00    -0.123 A  
HETATM   32  C   UNL     1      -8.482  11.226  68.217  1.00  0.00    -0.152 A  
HETATM   33  C   UNL     1      -6.183  11.057  67.171  1.00  0.00    -0.075 C  
HETATM   34  C   UNL     1      -8.302  10.573  65.915  1.00  0.00    -0.161 A  
HETATM   35  F   UNL     1      -5.742  11.636  68.318  1.00  0.00    -0.046 F  
HETATM   36  F   UNL     1      -5.527   9.872  67.056  1.00  0.00    -0.043 F  
HETATM   37  F   UNL     1      -5.723  11.848  66.160  1.00  0.00    -0.047 F  
HETATM   38  C   UNL     1      -9.671  10.762  65.776  1.00  0.00    -0.278 A  
HETATM   39  C   UNL     1     -10.423  11.354  66.803  1.00  0.00    -0.244 A  
BRANCH  39  40
HETATM   40  O   UNL     1     -11.746  11.673  66.614  1.00  0.00    -0.523 OA 
HETATM   41  C   UNL     1     -12.144  12.113  65.318  1.00  0.00    -0.188 C  
ENDBRANCH  39  40
ENDBRANCH  23  30
ENDBRANCH  12  15
ENDBRANCH   7   9
ENDBRANCH   2   3
TORSDOF 6
ENDMDL
MODEL       33
REMARK 921   NORMALIZED FREE ENERGY PREDICTED BY IDOCK:   -5.83 KCAL/MOL
REMARK 922        TOTAL FREE ENERGY PREDICTED BY IDOCK:   -9.11 KCAL/MOL
REMARK 923 INTER-LIGAND FREE ENERGY PREDICTED BY IDOCK:   -7.14 KCAL/MOL
REMARK 924 INTRA-LIGAND FREE ENERGY PREDICTED BY IDOCK:   -1.97 KCAL/MOL
REMARK 927      BINDING AFFINITY PREDICTED BY RF-SCORE:    0.00 PKD
ROOT
HETATM    1  C   UNL     1      -6.499   4.399  73.320  1.00  0.00    -0.046 C  
HETATM    2  O   UNL     1      -7.449   3.572  73.985  1.00  0.00    -0.055 OA 
ENDROOT
BRANCH   2   3
HETATM    3  C   UNL     1      -8.774   3.880  73.816  1.00  0.00    -0.093 A  
HETATM    4  C   UNL     1      -9.844   3.054  74.137  1.00  0.00    -0.151 A  
HETATM    5  C   UNL     1     -11.141   3.492  73.883  1.00  0.00    -0.224 A  
HETATM    6  C   UNL     1     -11.369   4.757  73.318  1.00  0.00    -0.408 A  
HETATM    7  C   UNL     1     -10.321   5.633  73.001  1.00  0.00    -0.203 A  
HETATM    8  C   UNL     1      -9.024   5.149  73.262  1.00  0.00    -0.120 A  
BRANCH   7   9
HETATM    9  N   UNL     1     -10.547   6.887  72.470  1.00  0.00    -0.213 NA 
HETATM   10  C   UNL     1      -9.683   8.048  72.736  1.00  0.00    -0.280 C  
HETATM   11  C   UNL     1      -9.105   8.590  71.420  1.00  0.00    -0.206 C  
HETATM   12  N   UNL     1     -10.124   8.871  70.381  1.00  0.00    -0.187 NA 
HETATM   13  C   UNL     1     -11.208   7.848  70.267  1.00  0.00    -0.200 C  
HETATM   14  C   UNL     1     -11.689   7.229  71.607  1.00  0.00    -0.284 C  
BRANCH  12  15
HETATM   15  C   UNL     1     -10.001   9.855  69.394  1.00  0.00    -0.212 C  
HETATM   16  N   UNL     1     -10.816  10.879  69.503  1.00  0.00    -0.247 NA 
HETATM   17  C   UNL     1     -10.687  12.008  68.671  1.00  0.00    -0.236 A  
HETATM   18  C   UNL     1      -9.663  12.108  67.745  1.00  0.00    -0.197 A  
HETATM   19  C   UNL     1      -9.469  13.312  67.029  1.00  0.00    -0.243 A  
HETATM   20  C   UNL     1      -8.825  10.886  67.428  1.00  0.00    -0.133 C  
HETATM   21  F   UNL     1     -12.604  13.039  69.650  1.00  0.00    -0.191 F  
HETATM   22  C   UNL     1     -10.346  14.380  67.162  1.00  0.00    -0.262 A  
HETATM   23  N   UNL     1      -9.074   9.718  68.340  1.00  0.00    -0.123 NA 
HETATM   24  C   UNL     1     -11.570  13.098  68.797  1.00  0.00    -0.308 A  
HETATM   25  C   UNL     1     -11.417  14.264  68.035  1.00  0.00    -0.342 A  
BRANCH  20  26
HETATM   26  C   UNL     1      -9.031  10.562  65.926  1.00  0.00    -0.185 C  
HETATM   27  O   UNL     1      -6.674  10.889  65.409  1.00  0.00    -0.001 OA 
HETATM   28  C   UNL     1      -7.812  10.243  65.101  1.00  0.00    -0.138 C  
HETATM   29  O   UNL     1      -7.877   9.502  64.126  1.00  0.00    -0.114 OA 
ENDBRANCH  20  26
BRANCH  23  30
HETATM   30  C   UNL     1      -8.485   8.482  67.875  1.00  0.00    -0.130 A  
HETATM   31  C   UNL     1      -8.803   6.324  66.732  1.00  0.00    -0.126 A  
HETATM   32  C   UNL     1      -9.266   7.591  67.114  1.00  0.00    -0.161 A  
HETATM   33  C   UNL     1      -9.770   5.227  66.363  1.00  0.00    -0.169 C  
HETATM   34  C   UNL     1      -7.444   6.059  66.812  1.00  0.00    -0.087 A  
HETATM   35  F   UNL     1     -11.071   5.557  66.574  1.00  0.00    -0.312 F  
HETATM   36  F   UNL     1      -9.671   4.845  65.061  1.00  0.00    -0.159 F  
HETATM   37  F   UNL     1      -9.550   4.105  67.107  1.00  0.00    -0.167 F  
HETATM   38  C   UNL     1      -6.608   6.957  67.462  1.00  0.00    -0.058 A  
HETATM   39  C   UNL     1      -7.130   8.094  68.098  1.00  0.00    -0.082 A  
BRANCH  39  40
HETATM   40  O   UNL     1      -6.327   8.906  68.862  1.00  0.00    -0.044 OA 
HETATM   41  C   UNL     1      -5.284   9.620  68.202  1.00  0.00    -0.040 C  
ENDBRANCH  39  40
ENDBRANCH  23  30
ENDBRANCH  12  15
ENDBRANCH   7   9
ENDBRANCH   2   3
TORSDOF 6
ENDMDL
MODEL       34
REMARK 921   NORMALIZED FREE ENERGY PREDICTED BY IDOCK:   -5.82 KCAL/MOL
REMARK 922        TOTAL FREE ENERGY PREDICTED BY IDOCK:   -9.10 KCAL/MOL
REMARK 923 INTER-LIGAND FREE ENERGY PREDICTED BY IDOCK:   -8.30 KCAL/MOL
REMARK 924 INTRA-LIGAND FREE ENERGY PREDICTED BY IDOCK:   -0.79 KCAL/MOL
REMARK 927      BINDING AFFINITY PREDICTED BY RF-SCORE:    0.00 PKD
ROOT
HETATM    1  C   UNL     1     -11.560   2.009  73.926  1.00  0.00    -0.075 C  
HETATM    2  O   UNL     1     -11.219   3.271  74.492  1.00  0.00     0.259 OA 
ENDROOT
BRANCH   2   3
HETATM    3  C   UNL     1     -10.057   3.857  74.059  1.00  0.00    -0.145 A  
HETATM    4  C   UNL     1      -8.780   3.556  74.517  1.00  0.00    -0.090 A  
HETATM    5  C   UNL     1      -7.691   4.256  74.003  1.00  0.00    -0.084 A  
HETATM    6  C   UNL     1      -7.877   5.247  73.027  1.00  0.00    -0.098 A  
HETATM    7  C   UNL     1      -9.145   5.566  72.519  1.00  0.00    -0.136 A  
HETATM    8  C   UNL     1     -10.221   4.846  73.072  1.00  0.00    -0.216 A  
BRANCH   7   9
HETATM    9  N   UNL     1      -9.323   6.524  71.540  1.00  0.00    -0.148 NA 
HETATM   10  C   UNL     1     -10.457   6.521  70.601  1.00  0.00    -0.214 C  
HETATM   11  C   UNL     1     -11.265   7.820  70.744  1.00  0.00    -0.271 C  
HETATM   12  N   UNL     1     -10.451   9.054  70.642  1.00  0.00    -0.214 NA 
HETATM   13  C   UNL     1      -9.135   9.001  71.348  1.00  0.00    -0.201 C  
HETATM   14  C   UNL     1      -8.396   7.637  71.289  1.00  0.00    -0.107 C  
BRANCH  12  15
HETATM   15  C   UNL     1     -10.923  10.278  70.158  1.00  0.00    -0.314 C  
HETATM   16  N   UNL     1     -11.750  10.925  70.949  1.00  0.00    -0.261 NA 
HETATM   17  C   UNL     1     -12.171  12.235  70.653  1.00  0.00    -0.287 A  
HETATM   18  C   UNL     1     -11.688  12.915  69.548  1.00  0.00    -0.387 A  
HETATM   19  C   UNL     1     -12.011  14.279  69.357  1.00  0.00    -0.381 A  
HETATM   20  C   UNL     1     -10.903  12.161  68.495  1.00  0.00    -0.236 C  
HETATM   21  F   UNL     1     -13.590  12.291  72.571  1.00  0.00    -0.593 F  
HETATM   22  C   UNL     1     -12.888  14.938  70.207  1.00  0.00    -0.264 A  
HETATM   23  N   UNL     1     -10.547  10.754  68.885  1.00  0.00    -0.202 NA 
HETATM   24  C   UNL     1     -13.059  12.915  71.508  1.00  0.00    -0.298 A  
HETATM   25  C   UNL     1     -13.433  14.245  71.277  1.00  0.00    -0.378 A  
BRANCH  20  26
HETATM   26  C   UNL     1     -11.699  12.259  67.167  1.00  0.00    -0.396 C  
HETATM   27  O   UNL     1     -10.320  14.085  66.336  1.00  0.00    -0.278 OA 
HETATM   28  C   UNL     1     -11.073  13.016  66.026  1.00  0.00    -0.278 C  
HETATM   29  O   UNL     1     -11.323  12.732  64.859  1.00  0.00    -0.292 OA 
ENDBRANCH  20  26
BRANCH  23  30
HETATM   30  C   UNL     1     -10.047   9.956  67.788  1.00  0.00    -0.180 A  
HETATM   31  C   UNL     1     -10.106   7.814  66.574  1.00  0.00    -0.224 A  
HETATM   32  C   UNL     1     -10.617   8.693  67.539  1.00  0.00    -0.292 A  
HETATM   33  C   UNL     1     -10.392   6.335  66.646  1.00  0.00    -0.170 C  
HETATM   34  C   UNL     1      -9.235   8.310  65.616  1.00  0.00    -0.077 A  
HETATM   35  F   UNL     1     -11.048   5.964  67.777  1.00  0.00    -0.337 F  
HETATM   36  F   UNL     1     -11.135   5.885  65.599  1.00  0.00     0.282 F  
HETATM   37  F   UNL     1      -9.238   5.609  66.636  1.00  0.00    -0.123 F  
HETATM   38  C   UNL     1      -8.720   9.593  65.757  1.00  0.00    -0.168 A  
HETATM   39  C   UNL     1      -9.018  10.366  66.890  1.00  0.00    -0.139 A  
BRANCH  39  40
HETATM   40  O   UNL     1      -8.398  11.574  67.101  1.00  0.00    -0.146 OA 
HETATM   41  C   UNL     1      -6.974  11.609  67.045  1.00  0.00    -0.144 C  
ENDBRANCH  39  40
ENDBRANCH  23  30
ENDBRANCH  12  15
ENDBRANCH   7   9
ENDBRANCH   2   3
TORSDOF 6
ENDMDL
MODEL       35
REMARK 921   NORMALIZED FREE ENERGY PREDICTED BY IDOCK:   -5.82 KCAL/MOL
REMARK 922        TOTAL FREE ENERGY PREDICTED BY IDOCK:   -9.10 KCAL/MOL
REMARK 923 INTER-LIGAND FREE ENERGY PREDICTED BY IDOCK:   -7.23 KCAL/MOL
REMARK 924 INTRA-LIGAND FREE ENERGY PREDICTED BY IDOCK:   -1.86 KCAL/MOL
REMARK 927      BINDING AFFINITY PREDICTED BY RF-SCORE:    0.00 PKD
ROOT
HETATM    1  C   UNL     1      -6.543   8.765  63.046  1.00  0.00    -0.090 C  
HETATM    2  O   UNL     1      -7.926   8.803  63.385  1.00  0.00    -0.145 OA 
ENDROOT
BRANCH   2   3
HETATM    3  C   UNL     1      -8.323   8.076  64.479  1.00  0.00    -0.040 A  
HETATM    4  C   UNL     1      -8.188   6.702  64.628  1.00  0.00    -0.034 A  
HETATM    5  C   UNL     1      -8.664   6.094  65.787  1.00  0.00    -0.151 A  
HETATM    6  C   UNL     1      -9.265   6.860  66.798  1.00  0.00    -0.177 A  
HETATM    7  C   UNL     1      -9.400   8.252  66.700  1.00  0.00    -0.192 A  
HETATM    8  C   UNL     1      -8.917   8.828  65.509  1.00  0.00    -0.231 A  
BRANCH   7   9
HETATM    9  N   UNL     1      -9.968   9.008  67.706  1.00  0.00    -0.176 NA 
HETATM   10  C   UNL     1      -9.211   9.523  68.859  1.00  0.00    -0.145 C  
HETATM   11  C   UNL     1      -9.293  11.057  68.902  1.00  0.00    -0.145 C  
HETATM   12  N   UNL     1     -10.674  11.591  68.849  1.00  0.00    -0.205 NA 
HETATM   13  C   UNL     1     -11.583  10.898  67.887  1.00  0.00    -0.188 C  
HETATM   14  C   UNL     1     -11.394   9.361  67.775  1.00  0.00     0.572 C  
BRANCH  12  15
HETATM   15  C   UNL     1     -11.082  12.794  69.435  1.00  0.00    -0.065 C  
HETATM   16  N   UNL     1     -11.828  12.682  70.511  1.00  0.00    -0.180 NA 
HETATM   17  C   UNL     1     -12.171  13.807  71.284  1.00  0.00    -0.227 A  
HETATM   18  C   UNL     1     -11.690  15.068  70.975  1.00  0.00    -0.379 A  
HETATM   19  C   UNL     1     -11.927  16.153  71.851  1.00  0.00    -0.583 A  
HETATM   20  C   UNL     1     -11.004  15.296  69.643  1.00  0.00    -0.284 C  
HETATM   21  F   UNL     1     -13.500  12.481  72.758  1.00  0.00    -0.498 F  
HETATM   22  C   UNL     1     -12.721  16.007  72.981  1.00  0.00    -0.593 A  
HETATM   23  N   UNL     1     -10.729  14.037  68.870  1.00  0.00    -0.253 NA 
HETATM   24  C   UNL     1     -12.974  13.672  72.433  1.00  0.00    -0.316 A  
HETATM   25  C   UNL     1     -13.266  14.764  73.262  1.00  0.00    -0.456 A  
BRANCH  20  26
HETATM   26  C   UNL     1     -11.848  16.337  68.862  1.00  0.00    -0.060 C  
HETATM   27  O   UNL     1     -10.186  18.091  69.167  1.00  0.00    -0.349 OA 
HETATM   28  C   UNL     1     -11.157  17.588  68.385  1.00  0.00     0.108 C  
HETATM   29  O   UNL     1     -11.533  18.180  67.379  1.00  0.00     0.374 OA 
ENDBRANCH  20  26
BRANCH  23  30
HETATM   30  C   UNL     1     -10.331  14.271  67.501  1.00  0.00    -0.248 A  
HETATM   31  C   UNL     1     -10.859  14.026  65.108  1.00  0.00    -0.376 A  
HETATM   32  C   UNL     1     -11.220  13.940  66.460  1.00  0.00    -0.327 A  
HETATM   33  C   UNL     1     -11.602  13.237  64.058  1.00  0.00    -0.409 C  
HETATM   34  C   UNL     1      -9.732  14.756  64.764  1.00  0.00     0.557 A  
HETATM   35  F   UNL     1     -12.516  12.375  64.574  1.00  0.00    -0.478 F  
HETATM   36  F   UNL     1     -12.267  14.025  63.171  1.00  0.00    -0.376 F  
HETATM   37  F   UNL     1     -10.748  12.470  63.322  1.00  0.00    -0.445 F  
HETATM   38  C   UNL     1      -8.872  15.199  65.760  1.00  0.00     0.466 A  
HETATM   39  C   UNL     1      -9.093  14.858  67.104  1.00  0.00    -0.222 A  
BRANCH  39  40
HETATM   40  O   UNL     1      -8.170  15.172  68.072  1.00  0.00    -0.135 OA 
HETATM   41  C   UNL     1      -7.183  16.151  67.756  1.00  0.00    -0.138 C  
ENDBRANCH  39  40
ENDBRANCH  23  30
ENDBRANCH  12  15
ENDBRANCH   7   9
ENDBRANCH   2   3
TORSDOF 6
ENDMDL
MODEL       36
REMARK 921   NORMALIZED FREE ENERGY PREDICTED BY IDOCK:   -5.79 KCAL/MOL
REMARK 922        TOTAL FREE ENERGY PREDICTED BY IDOCK:   -9.06 KCAL/MOL
REMARK 923 INTER-LIGAND FREE ENERGY PREDICTED BY IDOCK:   -7.69 KCAL/MOL
REMARK 924 INTRA-LIGAND FREE ENERGY PREDICTED BY IDOCK:   -1.37 KCAL/MOL
REMARK 927      BINDING AFFINITY PREDICTED BY RF-SCORE:    0.00 PKD
ROOT
HETATM    1  C   UNL     1     -10.561  19.115  66.356  1.00  0.00    -0.435 C  
HETATM    2  O   UNL     1     -10.473  18.807  67.744  1.00  0.00    -0.398 OA 
ENDROOT
BRANCH   2   3
HETATM    3  C   UNL     1      -9.311  18.226  68.185  1.00  0.00    -0.296 A  
HETATM    4  C   UNL     1      -8.143  18.903  68.513  1.00  0.00    -0.383 A  
HETATM    5  C   UNL     1      -7.028  18.175  68.922  1.00  0.00    -0.274 A  
HETATM    6  C   UNL     1      -7.083  16.776  69.010  1.00  0.00    -0.221 A  
HETATM    7  C   UNL     1      -8.249  16.054  68.712  1.00  0.00    -0.211 A  
HETATM    8  C   UNL     1      -9.350  16.824  68.292  1.00  0.00    -0.230 A  
BRANCH   7   9
HETATM    9  N   UNL     1      -8.309  14.680  68.825  1.00  0.00    -0.164 NA 
HETATM   10  C   UNL     1      -9.465  13.880  68.386  1.00  0.00    -0.211 C  
HETATM   11  C   UNL     1      -9.032  12.866  67.317  1.00  0.00    -0.208 C  
HETATM   12  N   UNL     1      -7.881  12.022  67.715  1.00  0.00    -0.134 NA 
HETATM   13  C   UNL     1      -6.789  12.743  68.438  1.00  0.00    -0.091 C  
HETATM   14  C   UNL     1      -7.254  13.848  69.424  1.00  0.00     0.077 C  
BRANCH  12  15
HETATM   15  C   UNL     1      -7.660  10.717  67.263  1.00  0.00    -0.100 C  
HETATM   16  N   UNL     1      -7.236  10.604  66.024  1.00  0.00    -0.137 NA 
HETATM   17  C   UNL     1      -6.826   9.363  65.501  1.00  0.00    -0.078 A  
HETATM   18  C   UNL     1      -6.800   8.224  66.286  1.00  0.00    -0.065 A  
HETATM   19  C   UNL     1      -6.243   7.026  65.780  1.00  0.00    -0.037 A  
HETATM   20  C   UNL     1      -7.467   8.241  67.646  1.00  0.00    -0.094 C  
HETATM   21  F   UNL     1      -6.417  10.321  63.354  1.00  0.00    -0.127 F  
HETATM   22  C   UNL     1      -5.803   6.934  64.466  1.00  0.00    -0.036 A  
HETATM   23  N   UNL     1      -7.915   9.605  68.092  1.00  0.00    -0.100 NA 
HETATM   24  C   UNL     1      -6.376   9.258  64.171  1.00  0.00    -0.086 A  
HETATM   25  C   UNL     1      -5.890   8.051  63.650  1.00  0.00    -0.062 A  
BRANCH  20  26
HETATM   26  C   UNL     1      -8.604   7.188  67.616  1.00  0.00    -0.122 C  
HETATM   27  O   UNL     1      -9.961   8.521  66.095  1.00  0.00    -0.239 OA 
HETATM   28  C   UNL     1      -9.627   7.289  66.515  1.00  0.00    -0.149 C  
HETATM   29  O   UNL     1     -10.207   6.295  66.090  1.00  0.00     0.023 OA 
ENDBRANCH  20  26
BRANCH  23  30
HETATM   30  C   UNL     1      -8.784   9.581  69.247  1.00  0.00    -0.151 A  
HETATM   31  C   UNL     1     -10.990  10.112  70.205  1.00  0.00    -0.380 A  
HETATM   32  C   UNL     1     -10.124   9.993  69.109  1.00  0.00    -0.219 A  
HETATM   33  C   UNL     1     -12.217  10.986  70.130  1.00  0.00    -0.344 C  
HETATM   34  C   UNL     1     -10.638   9.505  71.401  1.00  0.00    -0.307 A  
HETATM   35  F   UNL     1     -12.295  11.712  68.984  1.00  0.00    -0.340 F  
HETATM   36  F   UNL     1     -13.378  10.284  70.225  1.00  0.00    -0.329 F  
HETATM   37  F   UNL     1     -12.237  11.896  71.145  1.00  0.00    -0.420 F  
HETATM   38  C   UNL     1      -9.359   8.987  71.557  1.00  0.00    -0.294 A  
HETATM   39  C   UNL     1      -8.398   9.131  70.544  1.00  0.00    -0.194 A  
BRANCH  39  40
HETATM   40  O   UNL     1      -7.094   8.748  70.751  1.00  0.00    -0.053 OA 
HETATM   41  C   UNL     1      -6.138   9.770  71.023  1.00  0.00    -0.069 C  
ENDBRANCH  39  40
ENDBRANCH  23  30
ENDBRANCH  12  15
ENDBRANCH   7   9
ENDBRANCH   2   3
TORSDOF 6
ENDMDL
MODEL       37
REMARK 921   NORMALIZED FREE ENERGY PREDICTED BY IDOCK:   -5.79 KCAL/MOL
REMARK 922        TOTAL FREE ENERGY PREDICTED BY IDOCK:   -9.05 KCAL/MOL
REMARK 923 INTER-LIGAND FREE ENERGY PREDICTED BY IDOCK:   -7.67 KCAL/MOL
REMARK 924 INTRA-LIGAND FREE ENERGY PREDICTED BY IDOCK:   -1.38 KCAL/MOL
REMARK 927      BINDING AFFINITY PREDICTED BY RF-SCORE:    0.00 PKD
ROOT
HETATM    1  C   UNL     1     -11.029  16.325  69.444  1.00  0.00    -0.337 C  
HETATM    2  O   UNL     1     -12.270  15.804  69.911  1.00  0.00    -0.352 OA 
ENDROOT
BRANCH   2   3
HETATM    3  C   UNL     1     -12.312  14.468  70.219  1.00  0.00    -0.349 A  
HETATM    4  C   UNL     1     -13.035  13.901  71.261  1.00  0.00    -0.414 A  
HETATM    5  C   UNL     1     -12.960  12.527  71.472  1.00  0.00    -0.379 A  
HETATM    6  C   UNL     1     -12.172  11.719  70.637  1.00  0.00    -0.443 A  
HETATM    7  C   UNL     1     -11.446  12.246  69.558  1.00  0.00    -0.249 A  
HETATM    8  C   UNL     1     -11.538  13.640  69.386  1.00  0.00    -0.368 A  
BRANCH   7   9
HETATM    9  N   UNL     1     -10.692  11.447  68.722  1.00  0.00    -0.195 NA 
HETATM   10  C   UNL     1      -9.224  11.355  68.795  1.00  0.00    -0.100 C  
HETATM   11  C   UNL     1      -8.798   9.906  69.072  1.00  0.00    -0.156 C  
HETATM   12  N   UNL     1      -9.379   8.915  68.136  1.00  0.00    -0.142 NA 
HETATM   13  C   UNL     1     -10.817   9.137  67.794  1.00  0.00    -0.092 C  
HETATM   14  C   UNL     1     -11.247  10.621  67.639  1.00  0.00    -0.290 C  
BRANCH  12  15
HETATM   15  C   UNL     1      -8.764   7.713  67.770  1.00  0.00    -0.127 C  
HETATM   16  N   UNL     1      -8.662   7.492  66.479  1.00  0.00    -0.133 NA 
HETATM   17  C   UNL     1      -7.925   6.402  65.978  1.00  0.00    -0.115 A  
HETATM   18  C   UNL     1      -7.233   5.552  66.823  1.00  0.00    -0.078 A  
HETATM   19  C   UNL     1      -6.382   4.557  66.287  1.00  0.00    -0.036 A  
HETATM   20  C   UNL     1      -7.477   5.626  68.317  1.00  0.00    -0.077 C  
HETATM   21  F   UNL     1      -8.510   6.945  63.729  1.00  0.00    -0.020 F  
HETATM   22  C   UNL     1      -6.294   4.344  64.918  1.00  0.00    -0.034 A  
HETATM   23  N   UNL     1      -8.318   6.796  68.744  1.00  0.00    -0.120 NA 
HETATM   24  C   UNL     1      -7.828   6.177  64.592  1.00  0.00    -0.113 A  
HETATM   25  C   UNL     1      -7.038   5.145  64.066  1.00  0.00    -0.049 A  
BRANCH  20  26
HETATM   26  C   UNL     1      -8.046   4.252  68.760  1.00  0.00    -0.073 C  
HETATM   27  O   UNL     1     -10.047   4.507  67.396  1.00  0.00    -0.151 OA 
HETATM   28  C   UNL     1      -9.162   3.657  67.942  1.00  0.00    -0.176 C  
HETATM   29  O   UNL     1      -9.315   2.442  67.862  1.00  0.00    -0.193 OA 
ENDBRANCH  20  26
BRANCH  23  30
HETATM   30  C   UNL     1      -8.774   6.714  70.113  1.00  0.00    -0.141 A  
HETATM   31  C   UNL     1     -10.673   6.511  71.667  1.00  0.00    -0.267 A  
HETATM   32  C   UNL     1     -10.138   6.483  70.372  1.00  0.00    -0.213 A  
HETATM   33  C   UNL     1     -12.146   6.747  71.891  1.00  0.00    -0.334 C  
HETATM   34  C   UNL     1      -9.807   6.436  72.747  1.00  0.00    -0.179 A  
HETATM   35  F   UNL     1     -12.824   7.053  70.754  1.00  0.00    -0.389 F  
HETATM   36  F   UNL     1     -12.779   5.678  72.445  1.00  0.00    -0.237 F  
HETATM   37  F   UNL     1     -12.355   7.795  72.737  1.00  0.00    -0.236 F  
HETATM   38  C   UNL     1      -8.439   6.554  72.539  1.00  0.00    -0.121 A  
HETATM   39  C   UNL     1      -7.928   6.815  71.258  1.00  0.00    -0.106 A  
BRANCH  39  40
HETATM   40  O   UNL     1      -6.591   7.075  71.072  1.00  0.00    -0.047 OA 
HETATM   41  C   UNL     1      -6.118   8.381  71.388  1.00  0.00    -0.041 C  
ENDBRANCH  39  40
ENDBRANCH  23  30
ENDBRANCH  12  15
ENDBRANCH   7   9
ENDBRANCH   2   3
TORSDOF 6
ENDMDL
MODEL       38
REMARK 921   NORMALIZED FREE ENERGY PREDICTED BY IDOCK:   -5.76 KCAL/MOL
REMARK 922        TOTAL FREE ENERGY PREDICTED BY IDOCK:   -9.01 KCAL/MOL
REMARK 923 INTER-LIGAND FREE ENERGY PREDICTED BY IDOCK:   -7.41 KCAL/MOL
REMARK 924 INTRA-LIGAND FREE ENERGY PREDICTED BY IDOCK:   -1.60 KCAL/MOL
REMARK 927      BINDING AFFINITY PREDICTED BY RF-SCORE:    0.00 PKD
ROOT
HETATM    1  C   UNL     1     -11.667  16.115  70.931  1.00  0.00    -0.334 C  
HETATM    2  O   UNL     1     -12.842  15.319  71.046  1.00  0.00    -0.372 OA 
ENDROOT
BRANCH   2   3
HETATM    3  C   UNL     1     -12.686  13.958  70.972  1.00  0.00    -0.357 A  
HETATM    4  C   UNL     1     -13.241  13.032  71.847  1.00  0.00    -0.527 A  
HETATM    5  C   UNL     1     -12.973  11.678  71.663  1.00  0.00    -0.483 A  
HETATM    6  C   UNL     1     -12.161  11.250  70.601  1.00  0.00    -0.480 A  
HETATM    7  C   UNL     1     -11.601  12.148  69.680  1.00  0.00    -0.291 A  
HETATM    8  C   UNL     1     -11.885  13.508  69.907  1.00  0.00    -0.386 A  
BRANCH   7   9
HETATM    9  N   UNL     1     -10.823  11.723  68.621  1.00  0.00    -0.210 NA 
HETATM   10  C   UNL     1      -9.364  11.906  68.563  1.00  0.00    -0.140 C  
HETATM   11  C   UNL     1      -8.664  10.544  68.444  1.00  0.00    -0.137 C  
HETATM   12  N   UNL     1      -9.171   9.697  67.339  1.00  0.00    -0.130 NA 
HETATM   13  C   UNL     1     -10.656   9.706  67.167  1.00  0.00    -0.228 C  
HETATM   14  C   UNL     1     -11.351  11.072  67.412  1.00  0.00    -0.230 C  
BRANCH  12  15
HETATM   15  C   UNL     1      -8.405   8.754  66.646  1.00  0.00    -0.108 C  
HETATM   16  N   UNL     1      -8.043   9.094  65.430  1.00  0.00    -0.119 NA 
HETATM   17  C   UNL     1      -7.140   8.307  64.688  1.00  0.00    -0.080 A  
HETATM   18  C   UNL     1      -6.556   7.176  65.231  1.00  0.00    -0.047 A  
HETATM   19  C   UNL     1      -5.543   6.490  64.521  1.00  0.00    -0.030 A  
HETATM   20  C   UNL     1      -7.084   6.620  66.537  1.00  0.00    -0.068 C  
HETATM   21  F   UNL     1      -7.328   9.747  62.794  1.00  0.00    -0.110 F  
HETATM   22  C   UNL     1      -5.180   6.870  63.236  1.00  0.00    -0.032 A  
HETATM   23  N   UNL     1      -8.081   7.510  67.225  1.00  0.00    -0.114 NA 
HETATM   24  C   UNL     1      -6.763   8.683  63.385  1.00  0.00    -0.089 A  
HETATM   25  C   UNL     1      -5.810   7.960  62.655  1.00  0.00    -0.068 A  
BRANCH  20  26
HETATM   26  C   UNL     1      -7.617   5.192  66.249  1.00  0.00    -0.088 C  
HETATM   27  O   UNL     1      -5.715   4.133  67.343  1.00  0.00    -0.020 OA 
HETATM   28  C   UNL     1      -7.019   4.048  67.026  1.00  0.00    -0.063 C  
HETATM   29  O   UNL     1      -7.667   3.036  67.271  1.00  0.00    -0.072 OA 
ENDBRANCH  20  26
BRANCH  23  30
HETATM   30  C   UNL     1      -8.780   6.866  68.314  1.00  0.00    -0.123 A  
HETATM   31  C   UNL     1      -8.694   5.978  70.609  1.00  0.00    -0.138 A  
HETATM   32  C   UNL     1      -8.126   6.698  69.550  1.00  0.00    -0.126 A  
HETATM   33  C   UNL     1      -7.831   5.401  71.704  1.00  0.00    -0.111 C  
HETATM   34  C   UNL     1     -10.052   5.702  70.575  1.00  0.00    -0.280 A  
HETATM   35  F   UNL     1      -6.499   5.537  71.471  1.00  0.00    -0.037 F  
HETATM   36  F   UNL     1      -8.072   5.958  72.921  1.00  0.00    -0.110 F  
HETATM   37  F   UNL     1      -8.045   4.062  71.847  1.00  0.00    -0.075 F  
HETATM   38  C   UNL     1     -10.772   5.945  69.412  1.00  0.00    -0.406 A  
HETATM   39  C   UNL     1     -10.128   6.403  68.252  1.00  0.00    -0.153 A  
BRANCH  39  40
HETATM   40  O   UNL     1     -10.809   6.507  67.062  1.00  0.00    -0.328 OA 
HETATM   41  C   UNL     1     -10.905   5.342  66.247  1.00  0.00    -0.112 C  
ENDBRANCH  39  40
ENDBRANCH  23  30
ENDBRANCH  12  15
ENDBRANCH   7   9
ENDBRANCH   2   3
TORSDOF 6
ENDMDL
MODEL       39
REMARK 921   NORMALIZED FREE ENERGY PREDICTED BY IDOCK:   -5.74 KCAL/MOL
REMARK 922        TOTAL FREE ENERGY PREDICTED BY IDOCK:   -8.99 KCAL/MOL
REMARK 923 INTER-LIGAND FREE ENERGY PREDICTED BY IDOCK:   -8.37 KCAL/MOL
REMARK 924 INTRA-LIGAND FREE ENERGY PREDICTED BY IDOCK:   -0.62 KCAL/MOL
REMARK 927      BINDING AFFINITY PREDICTED BY RF-SCORE:    0.00 PKD
ROOT
HETATM    1  C   UNL     1     -10.552  19.161  67.492  1.00  0.00    -0.471 C  
HETATM    2  O   UNL     1      -9.476  19.800  68.171  1.00  0.00    -0.344 OA 
ENDROOT
BRANCH   2   3
HETATM    3  C   UNL     1      -8.459  18.999  68.626  1.00  0.00    -0.359 A  
HETATM    4  C   UNL     1      -7.243  19.443  69.130  1.00  0.00    -0.377 A  
HETATM    5  C   UNL     1      -6.292  18.509  69.531  1.00  0.00    -0.257 A  
HETATM    6  C   UNL     1      -6.558  17.134  69.438  1.00  0.00    -0.220 A  
HETATM    7  C   UNL     1      -7.781  16.642  68.958  1.00  0.00    -0.221 A  
HETATM    8  C   UNL     1      -8.712  17.617  68.552  1.00  0.00    -0.285 A  
BRANCH   7   9
HETATM    9  N   UNL     1      -8.052  15.290  68.891  1.00  0.00    -0.165 NA 
HETATM   10  C   UNL     1      -9.259  14.735  68.257  1.00  0.00    -0.187 C  
HETATM   11  C   UNL     1      -8.869  13.792  67.110  1.00  0.00    -0.231 C  
HETATM   12  N   UNL     1      -7.900  12.739  67.495  1.00  0.00    -0.159 NA 
HETATM   13  C   UNL     1      -6.797  13.195  68.394  1.00  0.00    -0.098 C  
HETATM   14  C   UNL     1      -7.196  14.242  69.468  1.00  0.00    -0.003 C  
BRANCH  12  15
HETATM   15  C   UNL     1      -7.826  11.474  66.903  1.00  0.00    -0.163 C  
HETATM   16  N   UNL     1      -7.065  11.386  65.835  1.00  0.00     0.220 NA 
HETATM   17  C   UNL     1      -6.778  10.143  65.240  1.00  0.00    -0.122 A  
HETATM   18  C   UNL     1      -7.241   8.959  65.788  1.00  0.00    -0.085 A  
HETATM   19  C   UNL     1      -6.816   7.718  65.258  1.00  0.00    -0.051 A  
HETATM   20  C   UNL     1      -8.285   9.004  66.885  1.00  0.00    -0.116 C  
HETATM   21  F   UNL     1      -5.520  11.183  63.499  1.00  0.00    -0.125 F  
HETATM   22  C   UNL     1      -6.012   7.654  64.128  1.00  0.00    -0.048 A  
HETATM   23  N   UNL     1      -8.556  10.383  67.417  1.00  0.00    -0.125 NA 
HETATM   24  C   UNL     1      -5.963  10.065  64.095  1.00  0.00    -0.130 A  
HETATM   25  C   UNL     1      -5.601   8.835  63.529  1.00  0.00    -0.068 A  
BRANCH  20  26
HETATM   26  C   UNL     1      -9.548   8.281  66.350  1.00  0.00    -0.300 C  
HETATM   27  O   UNL     1      -9.101   6.277  67.660  1.00  0.00    -0.119 OA 
HETATM   28  C   UNL     1     -10.033   7.066  67.098  1.00  0.00    -0.189 C  
HETATM   29  O   UNL     1     -11.219   6.754  67.107  1.00  0.00    -0.379 OA 
ENDBRANCH  20  26
BRANCH  23  30
HETATM   30  C   UNL     1      -9.731  10.461  68.256  1.00  0.00    -0.151 A  
HETATM   31  C   UNL     1     -10.913   9.661  70.263  1.00  0.00    -0.337 A  
HETATM   32  C   UNL     1      -9.766   9.731  69.460  1.00  0.00    -0.228 A  
HETATM   33  C   UNL     1     -11.101   8.533  71.247  1.00  0.00    -0.262 C  
HETATM   34  C   UNL     1     -11.929  10.581  70.056  1.00  0.00    -0.367 A  
HETATM   35  F   UNL     1     -10.143   7.573  71.159  1.00  0.00    -0.187 F  
HETATM   36  F   UNL     1     -11.115   8.951  72.541  1.00  0.00    -0.392 F  
HETATM   37  F   UNL     1     -12.285   7.890  71.040  1.00  0.00    -0.309 F  
HETATM   38  C   UNL     1     -11.893  11.402  68.936  1.00  0.00    -0.413 A  
HETATM   39  C   UNL     1     -10.876  11.264  67.977  1.00  0.00    -0.218 A  
BRANCH  39  40
HETATM   40  O   UNL     1     -10.917  11.973  66.800  1.00  0.00    -0.256 OA 
HETATM   41  C   UNL     1     -11.105  11.242  65.591  1.00  0.00    -0.072 C  
ENDBRANCH  39  40
ENDBRANCH  23  30
ENDBRANCH  12  15
ENDBRANCH   7   9
ENDBRANCH   2   3
TORSDOF 6
ENDMDL
MODEL       40
REMARK 921   NORMALIZED FREE ENERGY PREDICTED BY IDOCK:   -5.72 KCAL/MOL
REMARK 922        TOTAL FREE ENERGY PREDICTED BY IDOCK:   -8.96 KCAL/MOL
REMARK 923 INTER-LIGAND FREE ENERGY PREDICTED BY IDOCK:   -8.32 KCAL/MOL
REMARK 924 INTRA-LIGAND FREE ENERGY PREDICTED BY IDOCK:   -0.64 KCAL/MOL
REMARK 927      BINDING AFFINITY PREDICTED BY RF-SCORE:    0.00 PKD
ROOT
HETATM    1  C   UNL     1      -6.531   5.871  67.497  1.00  0.00    -0.047 C  
HETATM    2  O   UNL     1      -7.333   4.702  67.635  1.00  0.00    -0.071 OA 
ENDROOT
BRANCH   2   3
HETATM    3  C   UNL     1      -8.083   4.589  68.779  1.00  0.00    -0.081 A  
HETATM    4  C   UNL     1      -8.142   3.469  69.599  1.00  0.00    -0.064 A  
HETATM    5  C   UNL     1      -8.972   3.489  70.717  1.00  0.00    -0.161 A  
HETATM    6  C   UNL     1      -9.733   4.629  71.020  1.00  0.00    -0.258 A  
HETATM    7  C   UNL     1      -9.684   5.790  70.234  1.00  0.00    -0.175 A  
HETATM    8  C   UNL     1      -8.843   5.726  69.107  1.00  0.00    -0.112 A  
BRANCH   7   9
HETATM    9  N   UNL     1     -10.413   6.919  70.548  1.00  0.00    -0.208 NA 
HETATM   10  C   UNL     1     -10.059   7.834  71.646  1.00  0.00    -0.185 C  
HETATM   11  C   UNL     1      -9.815   9.248  71.099  1.00  0.00    -0.272 C  
HETATM   12  N   UNL     1     -10.919   9.773  70.262  1.00  0.00    -0.275 NA 
HETATM   13  C   UNL     1     -11.521   8.783  69.318  1.00  0.00     0.549 C  
HETATM   14  C   UNL     1     -11.644   7.332  69.856  1.00  0.00     0.014 C  
BRANCH  12  15
HETATM   15  C   UNL     1     -11.247  11.127  70.139  1.00  0.00    -0.128 C  
HETATM   16  N   UNL     1     -12.195  11.561  70.938  1.00  0.00    -0.357 NA 
HETATM   17  C   UNL     1     -12.507  12.931  71.026  1.00  0.00    -0.283 A  
HETATM   18  C   UNL     1     -11.791  13.880  70.318  1.00  0.00    -0.360 A  
HETATM   19  C   UNL     1     -12.027  15.258  70.538  1.00  0.00    -0.384 A  
HETATM   20  C   UNL     1     -10.834  13.433  69.232  1.00  0.00    -0.040 C  
HETATM   21  F   UNL     1     -14.281  12.503  72.565  1.00  0.00    -0.414 F  
HETATM   22  C   UNL     1     -13.037  15.690  71.388  1.00  0.00    -0.559 A  
HETATM   23  N   UNL     1     -10.608  11.948  69.187  1.00  0.00    -0.110 NA 
HETATM   24  C   UNL     1     -13.528  13.382  71.885  1.00  0.00    -0.441 A  
HETATM   25  C   UNL     1     -13.807  14.745  72.048  1.00  0.00    -0.548 A  
BRANCH  20  26
HETATM   26  C   UNL     1     -11.344  14.028  67.893  1.00  0.00    -0.317 C  
HETATM   27  O   UNL     1      -9.765  15.880  67.977  1.00  0.00    -0.214 OA 
HETATM   28  C   UNL     1     -10.476  15.046  67.200  1.00  0.00    -0.277 C  
HETATM   29  O   UNL     1     -10.496  15.175  65.980  1.00  0.00    -0.290 OA 
ENDBRANCH  20  26
BRANCH  23  30
HETATM   30  C   UNL     1      -9.922  11.501  67.995  1.00  0.00    -0.189 A  
HETATM   31  C   UNL     1      -7.808  10.786  66.953  1.00  0.00    -0.130 A  
HETATM   32  C   UNL     1      -8.571  11.114  68.083  1.00  0.00    -0.140 A  
HETATM   33  C   UNL     1      -6.302  10.851  66.992  1.00  0.00    -0.080 C  
HETATM   34  C   UNL     1      -8.464  10.514  65.763  1.00  0.00    -0.177 A  
HETATM   35  F   UNL     1      -5.812  11.375  68.146  1.00  0.00    -0.046 F  
HETATM   36  F   UNL     1      -5.712   9.636  66.835  1.00  0.00    -0.047 F  
HETATM   37  F   UNL     1      -5.817  11.643  65.993  1.00  0.00    -0.105 F  
HETATM   38  C   UNL     1      -9.823  10.779  65.652  1.00  0.00    -0.299 A  
HETATM   39  C   UNL     1     -10.525  11.382  66.708  1.00  0.00    -0.244 A  
BRANCH  39  40
HETATM   40  O   UNL     1     -11.832  11.776  66.551  1.00  0.00    -0.550 OA 
HETATM   41  C   UNL     1     -12.225  12.279  65.276  1.00  0.00    -0.244 C  
ENDBRANCH  39  40
ENDBRANCH  23  30
ENDBRANCH  12  15
ENDBRANCH   7   9
ENDBRANCH   2   3
TORSDOF 6
ENDMDL
MODEL       41
REMARK 921   NORMALIZED FREE ENERGY PREDICTED BY IDOCK:   -5.70 KCAL/MOL
REMARK 922        TOTAL FREE ENERGY PREDICTED BY IDOCK:   -8.93 KCAL/MOL
REMARK 923 INTER-LIGAND FREE ENERGY PREDICTED BY IDOCK:   -8.03 KCAL/MOL
REMARK 924 INTRA-LIGAND FREE ENERGY PREDICTED BY IDOCK:   -0.91 KCAL/MOL
REMARK 927      BINDING AFFINITY PREDICTED BY RF-SCORE:    0.00 PKD
ROOT
HETATM    1  C   UNL     1      -9.213   4.036  67.244  1.00  0.00    -0.165 C  
HETATM    2  O   UNL     1     -10.347   4.740  67.740  1.00  0.00    -0.071 OA 
ENDROOT
BRANCH   2   3
HETATM    3  C   UNL     1     -10.257   5.260  69.006  1.00  0.00    -0.199 A  
HETATM    4  C   UNL     1     -10.167   4.520  70.179  1.00  0.00    -0.103 A  
HETATM    5  C   UNL     1     -10.109   5.186  71.400  1.00  0.00    -0.265 A  
HETATM    6  C   UNL     1     -10.133   6.589  71.449  1.00  0.00    -0.213 A  
HETATM    7  C   UNL     1     -10.199   7.375  70.289  1.00  0.00    -0.200 A  
HETATM    8  C   UNL     1     -10.267   6.665  69.076  1.00  0.00    -0.196 A  
BRANCH   7   9
HETATM    9  N   UNL     1     -10.195   8.755  70.337  1.00  0.00    -0.190 NA 
HETATM   10  C   UNL     1      -8.980   9.556  70.561  1.00  0.00    -0.211 C  
HETATM   11  C   UNL     1      -8.744  10.500  69.373  1.00  0.00    -0.078 C  
HETATM   12  N   UNL     1      -9.915  11.338  69.024  1.00  0.00    -0.156 NA 
HETATM   13  C   UNL     1     -11.231  10.633  69.067  1.00  0.00    -0.265 C  
HETATM   14  C   UNL     1     -11.397   9.593  70.208  1.00  0.00    -0.257 C  
BRANCH  12  15
HETATM   15  C   UNL     1      -9.836  12.612  68.451  1.00  0.00    -0.200 C  
HETATM   16  N   UNL     1     -10.343  13.593  69.164  1.00  0.00    -0.025 NA 
HETATM   17  C   UNL     1     -10.186  14.936  68.775  1.00  0.00    -0.243 A  
HETATM   18  C   UNL     1      -9.445  15.282  67.658  1.00  0.00    -0.205 A  
HETATM   19  C   UNL     1      -9.179  16.642  67.376  1.00  0.00    -0.216 A  
HETATM   20  C   UNL     1      -9.016  14.202  66.687  1.00  0.00    -0.169 C  
HETATM   21  F   UNL     1     -11.497  15.699  70.618  1.00  0.00    -0.264 F  
HETATM   22  C   UNL     1      -9.728  17.659  68.145  1.00  0.00    -0.310 A  
HETATM   23  N   UNL     1      -9.273  12.803  67.172  1.00  0.00    -0.212 NA 
HETATM   24  C   UNL     1     -10.737  15.977  69.548  1.00  0.00    -0.298 A  
HETATM   25  C   UNL     1     -10.530  17.325  69.226  1.00  0.00    -0.220 A  
BRANCH  20  26
HETATM   26  C   UNL     1      -9.676  14.521  65.320  1.00  0.00    -0.088 C  
HETATM   27  O   UNL     1     -11.894  14.725  66.305  1.00  0.00    -0.319 OA 
HETATM   28  C   UNL     1     -11.058  15.120  65.330  1.00  0.00    -0.383 C  
HETATM   29  O   UNL     1     -11.438  15.860  64.428  1.00  0.00    -0.428 OA 
ENDBRANCH  20  26
BRANCH  23  30
HETATM   30  C   UNL     1      -9.120  11.795  66.146  1.00  0.00    -0.185 A  
HETATM   31  C   UNL     1      -7.594  10.396  64.814  1.00  0.00    -0.058 A  
HETATM   32  C   UNL     1      -7.838  11.282  65.872  1.00  0.00     0.115 A  
HETATM   33  C   UNL     1      -6.208  10.241  64.237  1.00  0.00    -0.109 C  
HETATM   34  C   UNL     1      -8.669   9.748  64.225  1.00  0.00    -0.227 A  
HETATM   35  F   UNL     1      -5.309  11.123  64.747  1.00  0.00    -0.131 F  
HETATM   36  F   UNL     1      -5.687   9.000  64.428  1.00  0.00    -0.060 F  
HETATM   37  F   UNL     1      -6.208  10.453  62.890  1.00  0.00    -0.122 F  
HETATM   38  C   UNL     1      -9.964  10.144  64.539  1.00  0.00    -0.275 A  
HETATM   39  C   UNL     1     -10.193  11.236  65.391  1.00  0.00    -0.270 A  
BRANCH  39  40
HETATM   40  O   UNL     1     -11.464  11.720  65.589  1.00  0.00    -0.290 OA 
HETATM   41  C   UNL     1     -12.254  12.002  64.437  1.00  0.00    -0.266 C  
ENDBRANCH  39  40
ENDBRANCH  23  30
ENDBRANCH  12  15
ENDBRANCH   7   9
ENDBRANCH   2   3
TORSDOF 6
ENDMDL
MODEL       42
REMARK 921   NORMALIZED FREE ENERGY PREDICTED BY IDOCK:   -5.68 KCAL/MOL
REMARK 922        TOTAL FREE ENERGY PREDICTED BY IDOCK:   -8.91 KCAL/MOL
REMARK 923 INTER-LIGAND FREE ENERGY PREDICTED BY IDOCK:   -8.69 KCAL/MOL
REMARK 924 INTRA-LIGAND FREE ENERGY PREDICTED BY IDOCK:   -0.22 KCAL/MOL
REMARK 927      BINDING AFFINITY PREDICTED BY RF-SCORE:    0.00 PKD
ROOT
HETATM    1  C   UNL     1     -10.326   2.555  73.986  1.00  0.00    -0.137 C  
HETATM    2  O   UNL     1     -10.460   3.827  73.360  1.00  0.00    -0.149 OA 
ENDROOT
BRANCH   2   3
HETATM    3  C   UNL     1     -10.023   3.937  72.064  1.00  0.00    -0.170 A  
HETATM    4  C   UNL     1      -9.813   2.879  71.189  1.00  0.00    -0.098 A  
HETATM    5  C   UNL     1      -9.339   3.141  69.907  1.00  0.00    -0.228 A  
HETATM    6  C   UNL     1      -9.084   4.459  69.496  1.00  0.00    -0.175 A  
HETATM    7  C   UNL     1      -9.305   5.559  70.338  1.00  0.00    -0.159 A  
HETATM    8  C   UNL     1      -9.773   5.252  71.630  1.00  0.00    -0.211 A  
BRANCH   7   9
HETATM    9  N   UNL     1      -9.079   6.856  69.924  1.00  0.00    -0.145 NA 
HETATM   10  C   UNL     1      -9.370   7.336  68.563  1.00  0.00    -0.141 C  
HETATM   11  C   UNL     1     -10.383   8.490  68.614  1.00  0.00    -0.198 C  
HETATM   12  N   UNL     1     -10.000   9.590  69.529  1.00  0.00    -0.182 NA 
HETATM   13  C   UNL     1      -9.416   9.152  70.833  1.00  0.00    -0.276 C  
HETATM   14  C   UNL     1      -8.492   7.907  70.769  1.00  0.00    -0.124 C  
BRANCH  12  15
HETATM   15  C   UNL     1     -10.361  10.930  69.353  1.00  0.00    -0.145 C  
HETATM   16  N   UNL     1     -11.352  11.359  70.102  1.00  0.00    -0.199 NA 
HETATM   17  C   UNL     1     -11.706  12.721  70.138  1.00  0.00    -0.162 A  
HETATM   18  C   UNL     1     -10.990  13.670  69.429  1.00  0.00    -0.117 A  
HETATM   19  C   UNL     1     -11.273  15.046  69.600  1.00  0.00    -0.296 A  
HETATM   20  C   UNL     1      -9.979  13.221  68.394  1.00  0.00    -0.226 C  
HETATM   21  F   UNL     1     -13.525  12.285  71.620  1.00  0.00    -0.450 F  
HETATM   22  C   UNL     1     -12.328  15.472  70.397  1.00  0.00    -0.451 A  
HETATM   23  N   UNL     1      -9.709  11.742  68.402  1.00  0.00    -0.198 NA 
HETATM   24  C   UNL     1     -12.772  13.165  70.943  1.00  0.00    -0.233 A  
HETATM   25  C   UNL     1     -13.096  14.524  71.055  1.00  0.00    -0.429 A  
BRANCH  20  26
HETATM   26  C   UNL     1     -10.453  13.762  67.021  1.00  0.00    -0.274 C  
HETATM   27  O   UNL     1     -12.532  12.496  67.105  1.00  0.00    -0.217 OA 
HETATM   28  C   UNL     1     -11.909  13.603  66.666  1.00  0.00    -0.409 C  
HETATM   29  O   UNL     1     -12.475  14.398  65.923  1.00  0.00    -0.388 OA 
ENDBRANCH  20  26
BRANCH  23  30
HETATM   30  C   UNL     1      -8.965  11.282  67.252  1.00  0.00    -0.149 A  
HETATM   31  C   UNL     1      -8.912  10.910  64.818  1.00  0.00    -0.155 A  
HETATM   32  C   UNL     1      -9.518  11.438  65.966  1.00  0.00    -0.245 A  
HETATM   33  C   UNL     1      -9.716  10.657  63.566  1.00  0.00    -0.339 C  
HETATM   34  C   UNL     1      -7.586  10.511  64.888  1.00  0.00    -0.006 A  
HETATM   35  F   UNL     1     -11.049  10.860  63.729  1.00  0.00    -0.389 F  
HETATM   36  F   UNL     1      -9.328  11.434  62.520  1.00  0.00    -0.356 F  
HETATM   37  F   UNL     1      -9.588   9.365  63.151  1.00  0.00    -0.108 F  
HETATM   38  C   UNL     1      -6.956  10.438  66.124  1.00  0.00    -0.126 A  
HETATM   39  C   UNL     1      -7.665  10.697  67.307  1.00  0.00    -0.108 A  
BRANCH  39  40
HETATM   40  O   UNL     1      -7.086  10.487  68.536  1.00  0.00    -0.071 OA 
HETATM   41  C   UNL     1      -6.021  11.350  68.924  1.00  0.00    -0.048 C  
ENDBRANCH  39  40
ENDBRANCH  23  30
ENDBRANCH  12  15
ENDBRANCH   7   9
ENDBRANCH   2   3
TORSDOF 6
ENDMDL
MODEL       43
REMARK 921   NORMALIZED FREE ENERGY PREDICTED BY IDOCK:   -5.64 KCAL/MOL
REMARK 922        TOTAL FREE ENERGY PREDICTED BY IDOCK:   -8.86 KCAL/MOL
REMARK 923 INTER-LIGAND FREE ENERGY PREDICTED BY IDOCK:   -7.32 KCAL/MOL
REMARK 924 INTRA-LIGAND FREE ENERGY PREDICTED BY IDOCK:   -1.54 KCAL/MOL
REMARK 927      BINDING AFFINITY PREDICTED BY RF-SCORE:    0.00 PKD
ROOT
HETATM    1  C   UNL     1      -8.851  15.919  66.346  1.00  0.00    -0.333 C  
HETATM    2  O   UNL     1      -7.598  16.572  66.521  1.00  0.00    -0.258 OA 
ENDROOT
BRANCH   2   3
HETATM    3  C   UNL     1      -6.771  16.086  67.503  1.00  0.00    -0.175 A  
HETATM    4  C   UNL     1      -6.035  16.857  68.394  1.00  0.00    -0.134 A  
HETATM    5  C   UNL     1      -5.214  16.223  69.323  1.00  0.00    -0.112 A  
HETATM    6  C   UNL     1      -5.136  14.823  69.367  1.00  0.00    -0.087 A  
HETATM    7  C   UNL     1      -5.880  14.006  68.503  1.00  0.00    -0.093 A  
HETATM    8  C   UNL     1      -6.689  14.684  67.571  1.00  0.00    -0.148 A  
BRANCH   7   9
HETATM    9  N   UNL     1      -5.821  12.628  68.565  1.00  0.00    -0.058 NA 
HETATM   10  C   UNL     1      -5.801  11.873  69.829  1.00  0.00    -0.120 C  
HETATM   11  C   UNL     1      -7.004  10.920  69.895  1.00  0.00    -0.090 C  
HETATM   12  N   UNL     1      -7.142  10.037  68.713  1.00  0.00    -0.069 NA 
HETATM   13  C   UNL     1      -6.881  10.697  67.398  1.00  0.00    -0.077 C  
HETATM   14  C   UNL     1      -5.737  11.747  67.390  1.00  0.00    -0.102 C  
BRANCH  12  15
HETATM   15  C   UNL     1      -7.710   8.759  68.739  1.00  0.00    -0.097 C  
HETATM   16  N   UNL     1      -6.951   7.786  68.287  1.00  0.00    -0.077 NA 
HETATM   17  C   UNL     1      -7.340   6.439  68.406  1.00  0.00    -0.087 A  
HETATM   18  C   UNL     1      -8.510   6.081  69.053  1.00  0.00    -0.117 A  
HETATM   19  C   UNL     1      -8.802   4.717  69.289  1.00  0.00    -0.123 A  
HETATM   20  C   UNL     1      -9.521   7.152  69.408  1.00  0.00    -0.153 C  
HETATM   21  F   UNL     1      -5.392   5.697  67.243  1.00  0.00    -0.004 F  
HETATM   22  C   UNL     1      -7.983   3.709  68.799  1.00  0.00    -0.062 A  
HETATM   23  N   UNL     1      -9.028   8.556  69.197  1.00  0.00    -0.145 NA 
HETATM   24  C   UNL     1      -6.518   5.407  67.914  1.00  0.00    -0.048 A  
HETATM   25  C   UNL     1      -6.845   4.056  68.088  1.00  0.00    -0.047 A  
BRANCH  20  26
HETATM   26  C   UNL     1     -10.828   6.826  68.639  1.00  0.00    -0.277 C  
HETATM   27  O   UNL     1      -9.825   7.335  66.480  1.00  0.00    -0.193 OA 
HETATM   28  C   UNL     1     -10.733   6.607  67.152  1.00  0.00    -0.370 C  
HETATM   29  O   UNL     1     -11.519   5.872  66.564  1.00  0.00     0.148 OA 
ENDBRANCH  20  26
BRANCH  23  30
HETATM   30  C   UNL     1     -10.071   9.555  69.272  1.00  0.00    -0.198 A  
HETATM   31  C   UNL     1     -11.339  11.331  68.132  1.00  0.00    -0.372 A  
HETATM   32  C   UNL     1     -10.426  10.267  68.111  1.00  0.00    -0.224 A  
HETATM   33  C   UNL     1     -11.345  12.366  67.035  1.00  0.00    -0.327 C  
HETATM   34  C   UNL     1     -12.160  11.483  69.239  1.00  0.00    -0.344 A  
HETATM   35  F   UNL     1     -10.321  12.227  66.153  1.00  0.00    -0.241 F  
HETATM   36  F   UNL     1     -12.492  12.361  66.304  1.00  0.00    -0.346 F  
HETATM   37  F   UNL     1     -11.223  13.625  67.545  1.00  0.00    -0.273 F  
HETATM   38  C   UNL     1     -11.919  10.728  70.380  1.00  0.00    -0.448 A  
HETATM   39  C   UNL     1     -10.814   9.864  70.449  1.00  0.00    -0.319 A  
BRANCH  39  40
HETATM   40  O   UNL     1     -10.491   9.227  71.623  1.00  0.00    -0.344 OA 
HETATM   41  C   UNL     1     -11.537   8.560  72.326  1.00  0.00    -0.374 C  
ENDBRANCH  39  40
ENDBRANCH  23  30
ENDBRANCH  12  15
ENDBRANCH   7   9
ENDBRANCH   2   3
TORSDOF 6
ENDMDL
MODEL       44
REMARK 921   NORMALIZED FREE ENERGY PREDICTED BY IDOCK:   -5.63 KCAL/MOL
REMARK 922        TOTAL FREE ENERGY PREDICTED BY IDOCK:   -8.84 KCAL/MOL
REMARK 923 INTER-LIGAND FREE ENERGY PREDICTED BY IDOCK:   -7.21 KCAL/MOL
REMARK 924 INTRA-LIGAND FREE ENERGY PREDICTED BY IDOCK:   -1.63 KCAL/MOL
REMARK 927      BINDING AFFINITY PREDICTED BY RF-SCORE:    0.00 PKD
ROOT
HETATM    1  C   UNL     1      -5.599  10.796  62.674  1.00  0.00    -0.152 C  
HETATM    2  O   UNL     1      -7.004  10.580  62.748  1.00  0.00    -0.133 OA 
ENDROOT
BRANCH   2   3
HETATM    3  C   UNL     1      -7.446   9.637  63.642  1.00  0.00    -0.121 A  
HETATM    4  C   UNL     1      -7.328   8.261  63.491  1.00  0.00    -0.108 A  
HETATM    5  C   UNL     1      -7.849   7.423  64.473  1.00  0.00    -0.129 A  
HETATM    6  C   UNL     1      -8.480   7.958  65.607  1.00  0.00    -0.160 A  
HETATM    7  C   UNL     1      -8.600   9.340  65.812  1.00  0.00    -0.152 A  
HETATM    8  C   UNL     1      -8.070  10.154  64.792  1.00  0.00    -0.153 A  
BRANCH   7   9
HETATM    9  N   UNL     1      -9.197   9.866  66.940  1.00  0.00    -0.145 NA 
HETATM   10  C   UNL     1      -8.440  10.382  68.092  1.00  0.00    -0.121 C  
HETATM   11  C   UNL     1      -8.780  11.861  68.329  1.00  0.00    -0.170 C  
HETATM   12  N   UNL     1     -10.232  12.138  68.438  1.00  0.00    -0.208 NA 
HETATM   13  C   UNL     1     -11.090  11.401  67.462  1.00  0.00    -0.281 C  
HETATM   14  C   UNL     1     -10.651   9.945  67.149  1.00  0.00    -0.228 C  
BRANCH  12  15
HETATM   15  C   UNL     1     -10.786  13.176  69.194  1.00  0.00    -0.094 C  
HETATM   16  N   UNL     1     -11.683  12.818  70.085  1.00  0.00    -0.227 NA 
HETATM   17  C   UNL     1     -12.198  13.741  71.016  1.00  0.00    -0.319 A  
HETATM   18  C   UNL     1     -11.741  15.046  71.065  1.00  0.00    -0.379 A  
HETATM   19  C   UNL     1     -12.166  15.908  72.103  1.00  0.00    -0.578 A  
HETATM   20  C   UNL     1     -10.870  15.573  69.943  1.00  0.00    -0.302 C  
HETATM   21  F   UNL     1     -13.669  12.102  71.936  1.00  0.00    -0.416 F  
HETATM   22  C   UNL     1     -13.116  15.505  73.032  1.00  0.00    -0.632 A  
HETATM   23  N   UNL     1     -10.415  14.519  68.974  1.00  0.00    -0.243 NA 
HETATM   24  C   UNL     1     -13.161  13.344  71.963  1.00  0.00    -0.438 A  
HETATM   25  C   UNL     1     -13.633  14.222  72.948  1.00  0.00    -0.400 A  
BRANCH  20  26
HETATM   26  C   UNL     1     -11.636  16.746  69.277  1.00  0.00     0.413 C  
HETATM   27  O   UNL     1      -9.727  18.248  69.454  1.00  0.00    -0.052 OA 
HETATM   28  C   UNL     1     -10.829  17.910  68.763  1.00  0.00     0.268 C  
HETATM   29  O   UNL     1     -11.216  18.584  67.815  1.00  0.00    -0.095 OA 
ENDBRANCH  20  26
BRANCH  23  30
HETATM   30  C   UNL     1      -9.823  15.055  67.769  1.00  0.00    -0.220 A  
HETATM   31  C   UNL     1      -7.930  16.235  66.725  1.00  0.00    -0.306 A  
HETATM   32  C   UNL     1      -8.521  15.590  67.820  1.00  0.00    -0.159 A  
HETATM   33  C   UNL     1      -6.787  17.200  66.921  1.00  0.00    -0.207 C  
HETATM   34  C   UNL     1      -8.489  16.062  65.468  1.00  0.00     1.317 A  
HETATM   35  F   UNL     1      -6.515  17.460  68.227  1.00  0.00    -0.157 F  
HETATM   36  F   UNL     1      -5.626  16.771  66.359  1.00  0.00    -0.175 F  
HETATM   37  F   UNL     1      -7.062  18.410  66.355  1.00  0.00    -0.211 F  
HETATM   38  C   UNL     1      -9.728  15.445  65.348  1.00  0.00    -0.250 A  
HETATM   39  C   UNL     1     -10.450  15.056  66.487  1.00  0.00    -0.285 A  
BRANCH  39  40
HETATM   40  O   UNL     1     -11.734  14.578  66.379  1.00  0.00    -0.372 OA 
HETATM   41  C   UNL     1     -12.184  14.172  65.089  1.00  0.00    -0.433 C  
ENDBRANCH  39  40
ENDBRANCH  23  30
ENDBRANCH  12  15
ENDBRANCH   7   9
ENDBRANCH   2   3
TORSDOF 6
ENDMDL
MODEL       45
REMARK 921   NORMALIZED FREE ENERGY PREDICTED BY IDOCK:   -5.63 KCAL/MOL
REMARK 922        TOTAL FREE ENERGY PREDICTED BY IDOCK:   -8.84 KCAL/MOL
REMARK 923 INTER-LIGAND FREE ENERGY PREDICTED BY IDOCK:   -7.02 KCAL/MOL
REMARK 924 INTRA-LIGAND FREE ENERGY PREDICTED BY IDOCK:   -1.81 KCAL/MOL
REMARK 927      BINDING AFFINITY PREDICTED BY RF-SCORE:    0.00 PKD
ROOT
HETATM    1  C   UNL     1      -9.811  18.184  67.302  1.00  0.00    -0.314 C  
HETATM    2  O   UNL     1     -10.216  17.995  68.654  1.00  0.00    -0.376 OA 
ENDROOT
BRANCH   2   3
HETATM    3  C   UNL     1     -10.645  16.741  69.010  1.00  0.00    -0.343 A  
HETATM    4  C   UNL     1     -11.489  16.447  70.074  1.00  0.00    -0.097 A  
HETATM    5  C   UNL     1     -11.820  15.120  70.333  1.00  0.00    -0.349 A  
HETATM    6  C   UNL     1     -11.316  14.089  69.524  1.00  0.00    -0.298 A  
HETATM    7  C   UNL     1     -10.481  14.342  68.425  1.00  0.00    -0.249 A  
HETATM    8  C   UNL     1     -10.161  15.695  68.204  1.00  0.00    -0.222 A  
BRANCH   7   9
HETATM    9  N   UNL     1     -10.007  13.329  67.616  1.00  0.00    -0.225 NA 
HETATM   10  C   UNL     1      -8.576  13.105  67.352  1.00  0.00    -0.204 C  
HETATM   11  C   UNL     1      -8.169  11.697  67.811  1.00  0.00    -0.141 C  
HETATM   12  N   UNL     1      -9.019  10.613  67.266  1.00  0.00    -0.136 NA 
HETATM   13  C   UNL     1     -10.483  10.912  67.240  1.00  0.00    -0.232 C  
HETATM   14  C   UNL     1     -10.862  12.376  66.891  1.00  0.00    -0.251 C  
BRANCH  12  15
HETATM   15  C   UNL     1      -8.580   9.308  67.018  1.00  0.00    -0.124 C  
HETATM   16  N   UNL     1      -8.518   8.955  65.754  1.00  0.00    -0.136 NA 
HETATM   17  C   UNL     1      -7.944   7.731  65.363  1.00  0.00    -0.125 A  
HETATM   18  C   UNL     1      -7.372   6.875  66.289  1.00  0.00    -0.076 A  
HETATM   19  C   UNL     1      -6.671   5.726  65.855  1.00  0.00    -0.056 A  
HETATM   20  C   UNL     1      -7.594   7.122  67.767  1.00  0.00    -0.111 C  
HETATM   21  F   UNL     1      -8.460   8.137  63.069  1.00  0.00    -0.160 F  
HETATM   22  C   UNL     1      -6.622   5.375  64.512  1.00  0.00    -0.042 A  
HETATM   23  N   UNL     1      -8.260   8.433  68.077  1.00  0.00    -0.126 NA 
HETATM   24  C   UNL     1      -7.887   7.365  64.005  1.00  0.00    -0.120 A  
HETATM   25  C   UNL     1      -7.252   6.189  63.583  1.00  0.00    -0.061 A  
BRANCH  20  26
HETATM   26  C   UNL     1      -8.346   5.889  68.333  1.00  0.00    -0.112 C  
HETATM   27  O   UNL     1      -6.371   5.070  69.499  1.00  0.00    -0.031 OA 
HETATM   28  C   UNL     1      -7.713   5.144  69.479  1.00  0.00    -0.068 C  
HETATM   29  O   UNL     1      -8.395   4.543  70.303  1.00  0.00    -0.072 OA 
ENDBRANCH  20  26
BRANCH  23  30
HETATM   30  C   UNL     1      -8.715   8.544  69.445  1.00  0.00    -0.136 A  
HETATM   31  C   UNL     1     -10.617   8.705  71.001  1.00  0.00    -0.278 A  
HETATM   32  C   UNL     1     -10.095   8.485  69.719  1.00  0.00    -0.197 A  
HETATM   33  C   UNL     1     -12.056   9.115  71.190  1.00  0.00    -0.299 C  
HETATM   34  C   UNL     1      -9.757   8.655  72.088  1.00  0.00    -0.383 A  
HETATM   35  F   UNL     1     -12.705   9.368  70.023  1.00  0.00     0.230 F  
HETATM   36  F   UNL     1     -12.793   8.182  71.850  1.00  0.00    -0.302 F  
HETATM   37  F   UNL     1     -12.150  10.263  71.920  1.00  0.00    -0.426 F  
HETATM   38  C   UNL     1      -8.385   8.607  71.875  1.00  0.00    -0.189 A  
HETATM   39  C   UNL     1      -7.857   8.677  70.577  1.00  0.00    -0.096 A  
BRANCH  39  40
HETATM   40  O   UNL     1      -6.501   8.775  70.372  1.00  0.00    -0.037 OA 
HETATM   41  C   UNL     1      -5.970  10.057  70.045  1.00  0.00    -0.053 C  
ENDBRANCH  39  40
ENDBRANCH  23  30
ENDBRANCH  12  15
ENDBRANCH   7   9
ENDBRANCH   2   3
TORSDOF 6
ENDMDL
MODEL       46
REMARK 921   NORMALIZED FREE ENERGY PREDICTED BY IDOCK:   -5.62 KCAL/MOL
REMARK 922        TOTAL FREE ENERGY PREDICTED BY IDOCK:   -8.83 KCAL/MOL
REMARK 923 INTER-LIGAND FREE ENERGY PREDICTED BY IDOCK:   -7.18 KCAL/MOL
REMARK 924 INTRA-LIGAND FREE ENERGY PREDICTED BY IDOCK:   -1.65 KCAL/MOL
REMARK 927      BINDING AFFINITY PREDICTED BY RF-SCORE:    0.00 PKD
ROOT
HETATM    1  C   UNL     1      -7.017   2.685  64.810  1.00  0.00    -0.049 C  
HETATM    2  O   UNL     1      -7.619   3.514  63.820  1.00  0.00    -0.065 OA 
ENDROOT
BRANCH   2   3
HETATM    3  C   UNL     1      -7.055   4.747  63.609  1.00  0.00    -0.049 A  
HETATM    4  C   UNL     1      -6.113   5.049  62.633  1.00  0.00    -0.017 A  
HETATM    5  C   UNL     1      -5.607   6.344  62.554  1.00  0.00    -0.023 A  
HETATM    6  C   UNL     1      -6.049   7.337  63.442  1.00  0.00    -0.048 A  
HETATM    7  C   UNL     1      -7.016   7.083  64.426  1.00  0.00    -0.055 A  
HETATM    8  C   UNL     1      -7.494   5.760  64.481  1.00  0.00    -0.074 A  
BRANCH   7   9
HETATM    9  N   UNL     1      -7.468   8.067  65.282  1.00  0.00    -0.076 NA 
HETATM   10  C   UNL     1      -8.488   9.061  64.908  1.00  0.00    -0.178 C  
HETATM   11  C   UNL     1      -9.698   8.955  65.847  1.00  0.00    -0.189 C  
HETATM   12  N   UNL     1      -9.354   9.015  67.287  1.00  0.00    -0.137 NA 
HETATM   13  C   UNL     1      -8.134   8.245  67.677  1.00  0.00    -0.126 C  
HETATM   14  C   UNL     1      -6.969   8.270  66.651  1.00  0.00    -0.069 C  
BRANCH  12  15
HETATM   15  C   UNL     1     -10.197   9.519  68.284  1.00  0.00    -0.193 C  
HETATM   16  N   UNL     1     -10.837   8.622  68.999  1.00  0.00    -0.093 NA 
HETATM   17  C   UNL     1     -11.588   8.989  70.131  1.00  0.00     0.011 A  
HETATM   18  C   UNL     1     -11.638  10.301  70.569  1.00  0.00    -0.424 A  
HETATM   19  C   UNL     1     -12.275  10.619  71.791  1.00  0.00    -0.089 A  
HETATM   20  C   UNL     1     -11.099  11.403  69.679  1.00  0.00    -0.174 C  
HETATM   21  F   UNL     1     -12.291   6.736  70.487  1.00  0.00    -0.434 F  
HETATM   22  C   UNL     1     -12.946   9.651  72.527  1.00  0.00    -0.232 A  
HETATM   23  N   UNL     1     -10.358  10.908  68.469  1.00  0.00    -0.178 NA 
HETATM   24  C   UNL     1     -12.272   8.017  70.887  1.00  0.00    -0.109 A  
HETATM   25  C   UNL     1     -12.963   8.346  72.061  1.00  0.00    -0.388 A  
BRANCH  20  26
HETATM   26  C   UNL     1     -12.284  12.346  69.343  1.00  0.00    -0.121 C  
HETATM   27  O   UNL     1     -11.608  13.986  71.011  1.00  0.00    -0.130 OA 
HETATM   28  C   UNL     1     -12.210  13.769  69.829  1.00  0.00    -0.310 C  
HETATM   29  O   UNL     1     -12.765  14.680  69.223  1.00  0.00     0.013 OA 
ENDBRANCH  20  26
BRANCH  23  30
HETATM   30  C   UNL     1     -10.087  11.938  67.492  1.00  0.00    -0.193 A  
HETATM   31  C   UNL     1     -10.639  12.933  65.308  1.00  0.00    -0.316 A  
HETATM   32  C   UNL     1     -10.911  12.041  66.355  1.00  0.00    -0.337 A  
HETATM   33  C   UNL     1     -11.211  12.706  63.930  1.00  0.00    -0.442 C  
HETATM   34  C   UNL     1      -9.740  13.965  65.528  1.00  0.00    -0.119 A  
HETATM   35  F   UNL     1     -11.865  11.522  63.804  1.00  0.00    -0.479 F  
HETATM   36  F   UNL     1     -12.085  13.676  63.550  1.00  0.00    -0.503 F  
HETATM   37  F   UNL     1     -10.228  12.686  62.986  1.00  0.00    -0.223 F  
HETATM   38  C   UNL     1      -8.972  13.969  66.686  1.00  0.00    -0.177 A  
HETATM   39  C   UNL     1      -9.047  12.908  67.602  1.00  0.00    -0.194 A  
BRANCH  39  40
HETATM   40  O   UNL     1      -8.188  12.838  68.672  1.00  0.00    -0.102 OA 
HETATM   41  C   UNL     1      -6.959  12.139  68.493  1.00  0.00    -0.091 C  
ENDBRANCH  39  40
ENDBRANCH  23  30
ENDBRANCH  12  15
ENDBRANCH   7   9
ENDBRANCH   2   3
TORSDOF 6
ENDMDL
MODEL       47
REMARK 921   NORMALIZED FREE ENERGY PREDICTED BY IDOCK:   -5.60 KCAL/MOL
REMARK 922        TOTAL FREE ENERGY PREDICTED BY IDOCK:   -8.81 KCAL/MOL
REMARK 923 INTER-LIGAND FREE ENERGY PREDICTED BY IDOCK:   -7.43 KCAL/MOL
REMARK 924 INTRA-LIGAND FREE ENERGY PREDICTED BY IDOCK:   -1.37 KCAL/MOL
REMARK 927      BINDING AFFINITY PREDICTED BY RF-SCORE:    0.00 PKD
ROOT
HETATM    1  C   UNL     1      -9.544  15.922  66.284  1.00  0.00    -0.316 C  
HETATM    2  O   UNL     1     -10.837  15.731  65.719  1.00  0.00    -0.322 OA 
ENDROOT
BRANCH   2   3
HETATM    3  C   UNL     1     -11.114  14.495  65.191  1.00  0.00    -0.370 A  
HETATM    4  C   UNL     1     -11.968  14.244  64.124  1.00  0.00    -0.401 A  
HETATM    5  C   UNL     1     -12.173  12.930  63.712  1.00  0.00    -0.555 A  
HETATM    6  C   UNL     1     -11.520  11.870  64.359  1.00  0.00    -0.393 A  
HETATM    7  C   UNL     1     -10.631  12.079  65.424  1.00  0.00    -0.278 A  
HETATM    8  C   UNL     1     -10.459  13.420  65.818  1.00  0.00    -0.291 A  
BRANCH   7   9
HETATM    9  N   UNL     1      -9.969  11.037  66.043  1.00  0.00    -0.228 NA 
HETATM   10  C   UNL     1     -10.380  10.471  67.338  1.00  0.00    -0.224 C  
HETATM   11  C   UNL     1     -10.702   8.977  67.184  1.00  0.00    -0.136 C  
HETATM   12  N   UNL     1      -9.625   8.189  66.540  1.00  0.00    -0.224 NA 
HETATM   13  C   UNL     1      -8.964   8.856  65.378  1.00  0.00    -0.182 C  
HETATM   14  C   UNL     1      -8.760  10.389  65.511  1.00  0.00    -0.177 C  
BRANCH  12  15
HETATM   15  C   UNL     1      -9.375   6.836  66.789  1.00  0.00    -0.160 C  
HETATM   16  N   UNL     1      -9.721   6.004  65.832  1.00  0.00     0.054 NA 
HETATM   17  C   UNL     1      -9.379   4.639  65.890  1.00  0.00    -0.155 A  
HETATM   18  C   UNL     1      -8.618   4.130  66.928  1.00  0.00    -0.108 A  
HETATM   19  C   UNL     1      -8.165   2.791  66.885  1.00  0.00    -0.086 A  
HETATM   20  C   UNL     1      -8.368   4.983  68.155  1.00  0.00    -0.096 C  
HETATM   21  F   UNL     1     -10.531   4.190  63.848  1.00  0.00    -0.197 F  
HETATM   22  C   UNL     1      -8.546   1.933  65.862  1.00  0.00    -0.112 A  
HETATM   23  N   UNL     1      -8.815   6.411  68.012  1.00  0.00    -0.115 NA 
HETATM   24  C   UNL     1      -9.759   3.760  64.859  1.00  0.00    -0.183 A  
HETATM   25  C   UNL     1      -9.366   2.414  64.854  1.00  0.00    -0.104 A  
BRANCH  20  26
HETATM   26  C   UNL     1      -9.002   4.248  69.365  1.00  0.00    -0.155 C  
HETATM   27  O   UNL     1      -6.869   4.070  70.527  1.00  0.00    -0.032 OA 
HETATM   28  C   UNL     1      -8.204   4.175  70.641  1.00  0.00    -0.066 C  
HETATM   29  O   UNL     1      -8.755   4.112  71.735  1.00  0.00    -0.108 OA 
ENDBRANCH  20  26
BRANCH  23  30
HETATM   30  C   UNL     1      -8.829   7.143  69.259  1.00  0.00    -0.136 A  
HETATM   31  C   UNL     1      -7.572   8.473  70.906  1.00  0.00    -0.080 A  
HETATM   32  C   UNL     1      -7.675   7.843  69.659  1.00  0.00    -0.103 A  
HETATM   33  C   UNL     1      -6.224   8.783  71.508  1.00  0.00    -0.062 C  
HETATM   34  C   UNL     1      -8.730   8.701  71.634  1.00  0.00    -0.270 A  
HETATM   35  F   UNL     1      -5.184   8.275  70.797  1.00  0.00    -0.025 F  
HETATM   36  F   UNL     1      -5.993  10.116  71.638  1.00  0.00    -0.022 F  
HETATM   37  F   UNL     1      -6.109   8.251  72.759  1.00  0.00    -0.052 F  
HETATM   38  C   UNL     1      -9.923   8.118  71.226  1.00  0.00    -0.225 A  
HETATM   39  C   UNL     1      -9.957   7.247  70.126  1.00  0.00    -0.184 A  
BRANCH  39  40
HETATM   40  O   UNL     1     -11.103   6.558  69.808  1.00  0.00    -0.301 OA 
HETATM   41  C   UNL     1     -12.268   6.812  70.588  1.00  0.00    -0.254 C  
ENDBRANCH  39  40
ENDBRANCH  23  30
ENDBRANCH  12  15
ENDBRANCH   7   9
ENDBRANCH   2   3
TORSDOF 6
ENDMDL
MODEL       48
REMARK 921   NORMALIZED FREE ENERGY PREDICTED BY IDOCK:   -5.59 KCAL/MOL
REMARK 922        TOTAL FREE ENERGY PREDICTED BY IDOCK:   -8.78 KCAL/MOL
REMARK 923 INTER-LIGAND FREE ENERGY PREDICTED BY IDOCK:   -7.76 KCAL/MOL
REMARK 924 INTRA-LIGAND FREE ENERGY PREDICTED BY IDOCK:   -1.02 KCAL/MOL
REMARK 927      BINDING AFFINITY PREDICTED BY RF-SCORE:    0.00 PKD
ROOT
HETATM    1  C   UNL     1     -10.028  15.801  66.037  1.00  0.00    -0.332 C  
HETATM    2  O   UNL     1     -10.904  16.434  66.964  1.00  0.00    -0.267 OA 
ENDROOT
BRANCH   2   3
HETATM    3  C   UNL     1     -11.181  15.758  68.126  1.00  0.00    -0.344 A  
HETATM    4  C   UNL     1     -11.435  16.342  69.360  1.00  0.00    -0.238 A  
HETATM    5  C   UNL     1     -11.674  15.525  70.462  1.00  0.00    -0.377 A  
HETATM    6  C   UNL     1     -11.669  14.128  70.329  1.00  0.00    -0.328 A  
HETATM    7  C   UNL     1     -11.442  13.496  69.097  1.00  0.00    -0.295 A  
HETATM    8  C   UNL     1     -11.192  14.356  68.010  1.00  0.00    -0.298 A  
BRANCH   7   9
HETATM    9  N   UNL     1     -11.463  12.123  68.962  1.00  0.00    -0.274 NA 
HETATM   10  C   UNL     1     -10.453  11.367  68.202  1.00  0.00    -0.187 C  
HETATM   11  C   UNL     1      -9.746  10.358  69.120  1.00  0.00    -0.220 C  
HETATM   12  N   UNL     1     -10.668   9.472  69.868  1.00  0.00    -0.228 NA 
HETATM   13  C   UNL     1     -11.881  10.147  70.422  1.00  0.00    -0.288 C  
HETATM   14  C   UNL     1     -12.504  11.249  69.524  1.00  0.00    -0.061 C  
BRANCH  12  15
HETATM   15  C   UNL     1     -10.361   8.169  70.273  1.00  0.00    -0.209 C  
HETATM   16  N   UNL     1     -10.522   7.914  71.552  1.00  0.00    -0.207 NA 
HETATM   17  C   UNL     1     -10.402   6.605  72.058  1.00  0.00    -0.197 A  
HETATM   18  C   UNL     1     -10.166   5.528  71.221  1.00  0.00    -0.283 A  
HETATM   19  C   UNL     1     -10.199   4.210  71.734  1.00  0.00    -0.155 A  
HETATM   20  C   UNL     1      -9.768   5.777  69.781  1.00  0.00    -0.162 C  
HETATM   21  F   UNL     1     -10.765   7.358  74.293  1.00  0.00    -0.211 F  
HETATM   22  C   UNL     1     -10.369   3.969  73.091  1.00  0.00    -0.238 A  
HETATM   23  N   UNL     1      -9.881   7.214  69.353  1.00  0.00    -0.160 NA 
HETATM   24  C   UNL     1     -10.574   6.348  73.431  1.00  0.00    -0.276 A  
HETATM   25  C   UNL     1     -10.536   5.046  73.948  1.00  0.00    -0.340 A  
BRANCH  20  26
HETATM   26  C   UNL     1      -8.352   5.176  69.583  1.00  0.00    -0.093 C  
HETATM   27  O   UNL     1      -9.213   3.240  68.381  1.00  0.00    -0.146 OA 
HETATM   28  C   UNL     1      -8.187   4.092  68.550  1.00  0.00    -0.083 C  
HETATM   29  O   UNL     1      -7.124   3.930  67.960  1.00  0.00    -0.054 OA 
ENDBRANCH  20  26
BRANCH  23  30
HETATM   30  C   UNL     1      -9.249   7.492  68.083  1.00  0.00    -0.137 A  
HETATM   31  C   UNL     1      -7.412   8.595  66.869  1.00  0.00    -0.083 A  
HETATM   32  C   UNL     1      -8.022   8.184  68.062  1.00  0.00    -0.127 A  
HETATM   33  C   UNL     1      -6.401   9.715  66.863  1.00  0.00    -0.066 C  
HETATM   34  C   UNL     1      -7.838   8.035  65.674  1.00  0.00    -0.104 A  
HETATM   35  F   UNL     1      -6.272  10.334  68.066  1.00  0.00    -0.054 F  
HETATM   36  F   UNL     1      -5.156   9.306  66.500  1.00  0.00    -0.036 F  
HETATM   37  F   UNL     1      -6.755  10.693  65.982  1.00  0.00    -0.105 F  
HETATM   38  C   UNL     1      -8.988   7.256  65.655  1.00  0.00     0.009 A  
HETATM   39  C   UNL     1      -9.759   7.085  66.815  1.00  0.00    -0.184 A  
BRANCH  39  40
HETATM   40  O   UNL     1     -10.970   6.436  66.767  1.00  0.00    -0.353 OA 
HETATM   41  C   UNL     1     -10.998   5.121  66.218  1.00  0.00     0.032 C  
ENDBRANCH  39  40
ENDBRANCH  23  30
ENDBRANCH  12  15
ENDBRANCH   7   9
ENDBRANCH   2   3
TORSDOF 6
ENDMDL
MODEL       49
REMARK 921   NORMALIZED FREE ENERGY PREDICTED BY IDOCK:   -5.58 KCAL/MOL
REMARK 922        TOTAL FREE ENERGY PREDICTED BY IDOCK:   -8.77 KCAL/MOL
REMARK 923 INTER-LIGAND FREE ENERGY PREDICTED BY IDOCK:   -7.05 KCAL/MOL
REMARK 924 INTRA-LIGAND FREE ENERGY PREDICTED BY IDOCK:   -1.72 KCAL/MOL
REMARK 927      BINDING AFFINITY PREDICTED BY RF-SCORE:    0.00 PKD
ROOT
HETATM    1  C   UNL     1     -10.196  17.319  65.749  1.00  0.00    -0.198 C  
HETATM    2  O   UNL     1      -9.701  16.093  65.220  1.00  0.00    -0.419 OA 
ENDROOT
BRANCH   2   3
HETATM    3  C   UNL     1     -10.514  14.993  65.323  1.00  0.00    -0.403 A  
HETATM    4  C   UNL     1     -11.556  14.674  64.461  1.00  0.00    -0.377 A  
HETATM    5  C   UNL     1     -12.317  13.534  64.708  1.00  0.00    -0.435 A  
HETATM    6  C   UNL     1     -12.032  12.711  65.808  1.00  0.00    -0.503 A  
HETATM    7  C   UNL     1     -10.975  12.982  66.690  1.00  0.00    -0.279 A  
HETATM    8  C   UNL     1     -10.237  14.149  66.414  1.00  0.00    -0.292 A  
BRANCH   7   9
HETATM    9  N   UNL     1     -10.680  12.157  67.757  1.00  0.00    -0.204 NA 
HETATM   10  C   UNL     1     -11.587  11.105  68.243  1.00  0.00    -0.289 C  
HETATM   11  C   UNL     1     -10.899   9.734  68.162  1.00  0.00    -0.214 C  
HETATM   12  N   UNL     1      -9.572   9.683  68.820  1.00  0.00    -0.149 NA 
HETATM   13  C   UNL     1      -8.709  10.882  68.593  1.00  0.00    -0.154 C  
HETATM   14  C   UNL     1      -9.450  12.245  68.559  1.00  0.00    -0.112 C  
BRANCH  12  15
HETATM   15  C   UNL     1      -9.019   8.539  69.404  1.00  0.00    -0.149 C  
HETATM   16  N   UNL     1      -8.857   8.582  70.707  1.00  0.00    -0.148 NA 
HETATM   17  C   UNL     1      -8.461   7.443  71.433  1.00  0.00    -0.113 A  
HETATM   18  C   UNL     1      -8.281   6.219  70.812  1.00  0.00    -0.125 A  
HETATM   19  C   UNL     1      -8.030   5.061  71.585  1.00  0.00    -0.113 A  
HETATM   20  C   UNL     1      -8.248   6.150  69.299  1.00  0.00    -0.116 C  
HETATM   21  F   UNL     1      -8.412   8.673  73.478  1.00  0.00    -0.268 F  
HETATM   22  C   UNL     1      -7.862   5.135  72.962  1.00  0.00    -0.098 A  
HETATM   23  N   UNL     1      -8.636   7.432  68.618  1.00  0.00    -0.129 NA 
HETATM   24  C   UNL     1      -8.289   7.505  72.829  1.00  0.00    -0.118 A  
HETATM   25  C   UNL     1      -7.971   6.368  73.585  1.00  0.00    -0.098 A  
BRANCH  20  26
HETATM   26  C   UNL     1      -6.846   5.625  68.892  1.00  0.00    -0.058 C  
HETATM   27  O   UNL     1      -7.664   3.357  68.549  1.00  0.00    -0.056 OA 
HETATM   28  C   UNL     1      -6.771   4.294  68.190  1.00  0.00    -0.047 C  
HETATM   29  O   UNL     1      -5.869   4.042  67.398  1.00  0.00    -0.022 OA 
ENDBRANCH  20  26
BRANCH  23  30
HETATM   30  C   UNL     1      -8.343   7.449  67.202  1.00  0.00    -0.118 A  
HETATM   31  C   UNL     1      -7.145   8.520  65.336  1.00  0.00    -0.082 A  
HETATM   32  C   UNL     1      -7.393   8.362  66.707  1.00  0.00    -0.083 A  
HETATM   33  C   UNL     1      -6.519   9.786  64.804  1.00  0.00    -0.108 C  
HETATM   34  C   UNL     1      -7.592   7.542  64.462  1.00  0.00    -0.110 A  
HETATM   35  F   UNL     1      -6.368  10.753  65.747  1.00  0.00    -0.114 F  
HETATM   36  F   UNL     1      -5.293   9.582  64.254  1.00  0.00    -0.055 F  
HETATM   37  F   UNL     1      -7.289  10.342  63.826  1.00  0.00    -0.143 F  
HETATM   38  C   UNL     1      -8.452   6.552  64.921  1.00  0.00     0.017 A  
HETATM   39  C   UNL     1      -8.926   6.570  66.242  1.00  0.00    -0.156 A  
BRANCH  39  40
HETATM   40  O   UNL     1      -9.886   5.678  66.658  1.00  0.00    -0.147 OA 
HETATM   41  C   UNL     1     -10.192   4.583  65.798  1.00  0.00    -0.265 C  
ENDBRANCH  39  40
ENDBRANCH  23  30
ENDBRANCH  12  15
ENDBRANCH   7   9
ENDBRANCH   2   3
TORSDOF 6
ENDMDL
MODEL       50
REMARK 921   NORMALIZED FREE ENERGY PREDICTED BY IDOCK:   -5.57 KCAL/MOL
REMARK 922        TOTAL FREE ENERGY PREDICTED BY IDOCK:   -8.76 KCAL/MOL
REMARK 923 INTER-LIGAND FREE ENERGY PREDICTED BY IDOCK:   -7.79 KCAL/MOL
REMARK 924 INTRA-LIGAND FREE ENERGY PREDICTED BY IDOCK:   -0.97 KCAL/MOL
REMARK 927      BINDING AFFINITY PREDICTED BY RF-SCORE:    0.00 PKD
ROOT
HETATM    1  C   UNL     1      -9.558  19.092  68.654  1.00  0.00    -0.403 C  
HETATM    2  O   UNL     1      -8.188  19.415  68.868  1.00  0.00    -0.363 OA 
ENDROOT
BRANCH   2   3
HETATM    3  C   UNL     1      -7.301  18.371  68.933  1.00  0.00    -0.250 A  
HETATM    4  C   UNL     1      -5.998  18.444  69.409  1.00  0.00    -0.252 A  
HETATM    5  C   UNL     1      -5.201  17.303  69.388  1.00  0.00    -0.162 A  
HETATM    6  C   UNL     1      -5.707  16.088  68.901  1.00  0.00    -0.112 A  
HETATM    7  C   UNL     1      -7.024  15.963  68.433  1.00  0.00    -0.116 A  
HETATM    8  C   UNL     1      -7.794  17.141  68.459  1.00  0.00    -0.257 A  
BRANCH   7   9
HETATM    9  N   UNL     1      -7.529  14.761  67.977  1.00  0.00    -0.116 NA 
HETATM   10  C   UNL     1      -6.697  13.569  67.744  1.00  0.00    -0.168 C  
HETATM   11  C   UNL     1      -7.185  12.404  68.618  1.00  0.00    -0.104 C  
HETATM   12  N   UNL     1      -8.633  12.116  68.490  1.00  0.00    -0.124 NA 
HETATM   13  C   UNL     1      -9.513  13.322  68.427  1.00  0.00    -0.172 C  
HETATM   14  C   UNL     1      -8.941  14.530  67.637  1.00  0.00    -0.193 C  
BRANCH  12  15
HETATM   15  C   UNL     1      -9.209  10.853  68.663  1.00  0.00    -0.187 C  
HETATM   16  N   UNL     1      -8.924  10.244  69.791  1.00  0.00    -0.125 NA 
HETATM   17  C   UNL     1      -9.564   9.044  70.157  1.00  0.00    -0.193 A  
HETATM   18  C   UNL     1     -10.557   8.488  69.370  1.00  0.00    -0.203 A  
HETATM   19  C   UNL     1     -11.285   7.367  69.832  1.00  0.00    -0.155 A  
HETATM   20  C   UNL     1     -10.784   9.022  67.970  1.00  0.00    -0.125 C  
HETATM   21  F   UNL     1      -8.263   8.873  72.150  1.00  0.00    -0.183 F  
HETATM   22  C   UNL     1     -10.962   6.741  71.028  1.00  0.00    -0.297 A  
HETATM   23  N   UNL     1     -10.016  10.276  67.660  1.00  0.00    -0.173 NA 
HETATM   24  C   UNL     1      -9.246   8.400  71.368  1.00  0.00    -0.186 A  
HETATM   25  C   UNL     1      -9.921   7.248  71.791  1.00  0.00    -0.186 A  
BRANCH  20  26
HETATM   26  C   UNL     1     -10.506   7.859  66.982  1.00  0.00    -0.419 C  
HETATM   27  O   UNL     1      -8.315   7.407  67.945  1.00  0.00    -0.118 OA 
HETATM   28  C   UNL     1      -9.392   6.903  67.317  1.00  0.00    -0.135 C  
HETATM   29  O   UNL     1      -9.420   5.735  66.943  1.00  0.00    -0.125 OA 
ENDBRANCH  20  26
BRANCH  23  30
HETATM   30  C   UNL     1     -10.018  10.626  66.257  1.00  0.00    -0.222 A  
HETATM   31  C   UNL     1      -8.852  10.545  64.090  1.00  0.00    -0.205 A  
HETATM   32  C   UNL     1      -8.984  10.150  65.428  1.00  0.00    -0.208 A  
HETATM   33  C   UNL     1      -7.527  10.432  63.377  1.00  0.00    -0.050 C  
HETATM   34  C   UNL     1      -9.931  11.152  63.464  1.00  0.00    -0.425 A  
HETATM   35  F   UNL     1      -6.505  10.058  64.190  1.00  0.00    -0.107 F  
HETATM   36  F   UNL     1      -7.551   9.545  62.346  1.00  0.00    -0.107 F  
HETATM   37  F   UNL     1      -7.152  11.629  62.842  1.00  0.00     0.612 F  
HETATM   38  C   UNL     1     -11.026  11.550  64.220  1.00  0.00    -0.406 A  
HETATM   39  C   UNL     1     -11.025  11.407  65.617  1.00  0.00    -0.190 A  
BRANCH  39  40
HETATM   40  O   UNL     1     -12.042  11.929  66.379  1.00  0.00    -0.552 OA 
HETATM   41  C   UNL     1     -12.495  13.245  66.070  1.00  0.00    -0.321 C  
ENDBRANCH  39  40
ENDBRANCH  23  30
ENDBRANCH  12  15
ENDBRANCH   7   9
ENDBRANCH   2   3
TORSDOF 6
ENDMDL
MODEL       51
REMARK 921   NORMALIZED FREE ENERGY PREDICTED BY IDOCK:   -5.54 KCAL/MOL
REMARK 922        TOTAL FREE ENERGY PREDICTED BY IDOCK:   -8.72 KCAL/MOL
REMARK 923 INTER-LIGAND FREE ENERGY PREDICTED BY IDOCK:   -7.00 KCAL/MOL
REMARK 924 INTRA-LIGAND FREE ENERGY PREDICTED BY IDOCK:   -1.72 KCAL/MOL
REMARK 927      BINDING AFFINITY PREDICTED BY RF-SCORE:    0.00 PKD
ROOT
HETATM    1  C   UNL     1      -7.120   4.532  65.957  1.00  0.00    -0.071 C  
HETATM    2  O   UNL     1      -7.079   4.735  64.548  1.00  0.00    -0.052 OA 
ENDROOT
BRANCH   2   3
HETATM    3  C   UNL     1      -6.770   5.996  64.106  1.00  0.00    -0.038 A  
HETATM    4  C   UNL     1      -5.852   6.301  63.109  1.00  0.00    -0.026 A  
HETATM    5  C   UNL     1      -5.621   7.635  62.782  1.00  0.00    -0.051 A  
HETATM    6  C   UNL     1      -6.312   8.661  63.444  1.00  0.00    -0.085 A  
HETATM    7  C   UNL     1      -7.265   8.398  64.440  1.00  0.00    -0.087 A  
HETATM    8  C   UNL     1      -7.462   7.039  64.749  1.00  0.00    -0.096 A  
BRANCH   7   9
HETATM    9  N   UNL     1      -7.963   9.407  65.072  1.00  0.00    -0.113 NA 
HETATM   10  C   UNL     1      -9.356   9.757  64.747  1.00  0.00    -0.265 C  
HETATM   11  C   UNL     1     -10.245   9.599  65.989  1.00  0.00    -0.185 C  
HETATM   12  N   UNL     1      -9.748  10.319  67.185  1.00  0.00    -0.168 NA 
HETATM   13  C   UNL     1      -8.272  10.238  67.402  1.00  0.00    -0.114 C  
HETATM   14  C   UNL     1      -7.402  10.277  66.117  1.00  0.00    -0.122 C  
BRANCH  12  15
HETATM   15  C   UNL     1     -10.564  10.834  68.198  1.00  0.00    -0.203 C  
HETATM   16  N   UNL     1     -11.241   9.948  68.892  1.00  0.00    -0.136 NA 
HETATM   17  C   UNL     1     -11.972  10.319  70.037  1.00  0.00    -0.197 A  
HETATM   18  C   UNL     1     -11.962  11.620  70.508  1.00  0.00    -0.413 A  
HETATM   19  C   UNL     1     -12.582  11.934  71.740  1.00  0.00    -0.158 A  
HETATM   20  C   UNL     1     -11.378  12.720  69.645  1.00  0.00    -0.099 C  
HETATM   21  F   UNL     1     -12.773   8.091  70.337  1.00  0.00     0.157 F  
HETATM   22  C   UNL     1     -13.292  10.979  72.454  1.00  0.00     0.165 A  
HETATM   23  N   UNL     1     -10.663  12.223  68.419  1.00  0.00    -0.226 NA 
HETATM   24  C   UNL     1     -12.696   9.359  70.770  1.00  0.00    -0.010 A  
HETATM   25  C   UNL     1     -13.368   9.688  71.954  1.00  0.00    -0.526 A  
BRANCH  20  26
HETATM   26  C   UNL     1     -12.521  13.722  69.337  1.00  0.00    -0.062 C  
HETATM   27  O   UNL     1     -12.082  15.023  71.349  1.00  0.00    -0.296 OA 
HETATM   28  C   UNL     1     -12.526  15.033  70.080  1.00  0.00    -0.311 C  
HETATM   29  O   UNL     1     -13.009  16.045  69.584  1.00  0.00     0.167 OA 
ENDBRANCH  20  26
BRANCH  23  30
HETATM   30  C   UNL     1     -10.350  13.265  67.468  1.00  0.00    -0.229 A  
HETATM   31  C   UNL     1      -9.003  15.255  66.925  1.00  0.00    -0.274 A  
HETATM   32  C   UNL     1      -9.288  14.149  67.739  1.00  0.00    -0.200 A  
HETATM   33  C   UNL     1      -8.220  16.428  67.460  1.00  0.00    -0.150 C  
HETATM   34  C   UNL     1      -9.554  15.306  65.654  1.00  0.00    -0.313 A  
HETATM   35  F   UNL     1      -7.965  16.346  68.792  1.00  0.00    -0.182 F  
HETATM   36  F   UNL     1      -7.019  16.592  66.843  1.00  0.00    -0.180 F  
HETATM   37  F   UNL     1      -8.902  17.596  67.287  1.00  0.00    -0.225 F  
HETATM   38  C   UNL     1     -10.535  14.390  65.295  1.00  0.00    -0.410 A  
HETATM   39  C   UNL     1     -11.022  13.458  66.225  1.00  0.00    -0.288 A  
BRANCH  39  40
HETATM   40  O   UNL     1     -12.090  12.648  65.917  1.00  0.00    -0.482 OA 
HETATM   41  C   UNL     1     -12.513  12.596  64.557  1.00  0.00    -0.448 C  
ENDBRANCH  39  40
ENDBRANCH  23  30
ENDBRANCH  12  15
ENDBRANCH   7   9
ENDBRANCH   2   3
TORSDOF 6
ENDMDL
MODEL       52
REMARK 921   NORMALIZED FREE ENERGY PREDICTED BY IDOCK:   -5.39 KCAL/MOL
REMARK 922        TOTAL FREE ENERGY PREDICTED BY IDOCK:   -8.51 KCAL/MOL
REMARK 923 INTER-LIGAND FREE ENERGY PREDICTED BY IDOCK:   -7.45 KCAL/MOL
REMARK 924 INTRA-LIGAND FREE ENERGY PREDICTED BY IDOCK:   -1.06 KCAL/MOL
REMARK 927      BINDING AFFINITY PREDICTED BY RF-SCORE:    0.00 PKD
ROOT
HETATM    1  C   UNL     1      -8.333   4.212  70.575  1.00  0.00    -0.066 C  
HETATM    2  O   UNL     1      -9.080   4.304  71.784  1.00  0.00    -0.116 OA 
ENDROOT
BRANCH   2   3
HETATM    3  C   UNL     1      -9.070   5.511  72.436  1.00  0.00    -0.141 A  
HETATM    4  C   UNL     1      -8.963   5.687  73.810  1.00  0.00    -0.123 A  
HETATM    5  C   UNL     1      -8.995   6.976  74.335  1.00  0.00    -0.242 A  
HETATM    6  C   UNL     1      -9.125   8.088  73.488  1.00  0.00    -0.327 A  
HETATM    7  C   UNL     1      -9.212   7.958  72.094  1.00  0.00    -0.158 A  
HETATM    8  C   UNL     1      -9.188   6.638  71.603  1.00  0.00    -0.145 A  
BRANCH   7   9
HETATM    9  N   UNL     1      -9.314   9.053  71.260  1.00  0.00    -0.257 NA 
HETATM   10  C   UNL     1      -8.151   9.724  70.657  1.00  0.00     0.118 C  
HETATM   11  C   UNL     1      -8.254   9.687  69.125  1.00  0.00    -0.120 C  
HETATM   12  N   UNL     1      -9.539  10.199  68.592  1.00  0.00    -0.157 NA 
HETATM   13  C   UNL     1     -10.752   9.777  69.357  1.00  0.00    -0.228 C  
HETATM   14  C   UNL     1     -10.581   9.706  70.898  1.00  0.00    -0.316 C  
BRANCH  12  15
HETATM   15  C   UNL     1      -9.692  10.814  67.346  1.00  0.00    -0.171 C  
HETATM   16  N   UNL     1      -9.305  10.108  66.307  1.00  0.00    -0.166 NA 
HETATM   17  C   UNL     1      -9.552  10.545  64.992  1.00  0.00    -0.276 A  
HETATM   18  C   UNL     1     -10.259  11.708  64.740  1.00  0.00    -0.321 A  
HETATM   19  C   UNL     1     -10.621  12.045  63.415  1.00  0.00    -0.478 A  
HETATM   20  C   UNL     1     -10.548  12.666  65.878  1.00  0.00    -0.273 C  
HETATM   21  F   UNL     1      -8.405   8.664  64.074  1.00  0.00    -0.157 F  
HETATM   22  C   UNL     1     -10.198  11.282  62.335  1.00  0.00     0.591 A  
HETATM   23  N   UNL     1     -10.201  12.125  67.237  1.00  0.00    -0.201 NA 
HETATM   24  C   UNL     1      -9.129   9.779  63.889  1.00  0.00    -0.233 A  
HETATM   25  C   UNL     1      -9.429  10.153  62.572  1.00  0.00    -0.269 A  
BRANCH  20  26
HETATM   26  C   UNL     1      -9.846  14.007  65.542  1.00  0.00    -0.229 C  
HETATM   27  O   UNL     1     -11.861  14.951  64.553  1.00  0.00    -0.426 OA 
HETATM   28  C   UNL     1     -10.715  15.192  65.212  1.00  0.00    -0.404 C  
HETATM   29  O   UNL     1     -10.345  16.338  65.444  1.00  0.00    -0.499 OA 
ENDBRANCH  20  26
BRANCH  23  30
HETATM   30  C   UNL     1     -10.218  13.125  68.281  1.00  0.00    -0.250 A  
HETATM   31  C   UNL     1     -11.480  14.238  70.079  1.00  0.00    -0.280 A  
HETATM   32  C   UNL     1     -11.340  13.220  69.126  1.00  0.00    -0.336 A  
HETATM   33  C   UNL     1     -12.839  14.615  70.614  1.00  0.00    -0.342 C  
HETATM   34  C   UNL     1     -10.361  14.976  70.435  1.00  0.00     0.063 A  
HETATM   35  F   UNL     1     -13.863  13.979  69.988  1.00  0.00     0.581 F  
HETATM   36  F   UNL     1     -12.977  14.361  71.943  1.00  0.00    -0.358 F  
HETATM   37  F   UNL     1     -13.080  15.948  70.454  1.00  0.00    -0.418 F  
HETATM   38  C   UNL     1      -9.191  14.845  69.698  1.00  0.00     0.090 A  
HETATM   39  C   UNL     1      -9.148  14.027  68.558  1.00  0.00    -0.163 A  
BRANCH  39  40
HETATM   40  O   UNL     1      -8.038  14.006  67.747  1.00  0.00    -0.139 OA 
HETATM   41  C   UNL     1      -6.987  13.103  68.082  1.00  0.00    -0.108 C  
ENDBRANCH  39  40
ENDBRANCH  23  30
ENDBRANCH  12  15
ENDBRANCH   7   9
ENDBRANCH   2   3
TORSDOF 6
ENDMDL
MODEL       53
REMARK 921   NORMALIZED FREE ENERGY PREDICTED BY IDOCK:   -5.37 KCAL/MOL
REMARK 922        TOTAL FREE ENERGY PREDICTED BY IDOCK:   -8.49 KCAL/MOL
REMARK 923 INTER-LIGAND FREE ENERGY PREDICTED BY IDOCK:   -7.34 KCAL/MOL
REMARK 924 INTRA-LIGAND FREE ENERGY PREDICTED BY IDOCK:   -1.15 KCAL/MOL
REMARK 927      BINDING AFFINITY PREDICTED BY RF-SCORE:    0.00 PKD
ROOT
HETATM    1  C   UNL     1     -10.071  15.394  69.507  1.00  0.00    -0.276 C  
HETATM    2  O   UNL     1      -9.102  16.419  69.315  1.00  0.00    -0.235 OA 
ENDROOT
BRANCH   2   3
HETATM    3  C   UNL     1      -7.804  16.024  69.115  1.00  0.00    -0.233 A  
HETATM    4  C   UNL     1      -6.703  16.870  69.042  1.00  0.00    -0.215 A  
HETATM    5  C   UNL     1      -5.443  16.326  68.807  1.00  0.00    -0.109 A  
HETATM    6  C   UNL     1      -5.281  14.940  68.654  1.00  0.00    -0.095 A  
HETATM    7  C   UNL     1      -6.360  14.048  68.744  1.00  0.00    -0.090 A  
HETATM    8  C   UNL     1      -7.619  14.637  68.971  1.00  0.00    -0.136 A  
BRANCH   7   9
HETATM    9  N   UNL     1      -6.196  12.683  68.620  1.00  0.00    -0.066 NA 
HETATM   10  C   UNL     1      -5.922  11.792  69.760  1.00  0.00    -0.126 C  
HETATM   11  C   UNL     1      -7.029  10.734  69.881  1.00  0.00    -0.123 C  
HETATM   12  N   UNL     1      -7.290   9.985  68.630  1.00  0.00    -0.079 NA 
HETATM   13  C   UNL     1      -7.288  10.814  67.386  1.00  0.00    -0.094 C  
HETATM   14  C   UNL     1      -6.237  11.955  67.343  1.00  0.00    -0.125 C  
BRANCH  12  15
HETATM   15  C   UNL     1      -7.755   8.667  68.577  1.00  0.00    -0.100 C  
HETATM   16  N   UNL     1      -6.906   7.779  68.110  1.00  0.00    -0.066 NA 
HETATM   17  C   UNL     1      -7.190   6.401  68.152  1.00  0.00    -0.085 A  
HETATM   18  C   UNL     1      -8.350   5.922  68.738  1.00  0.00    -0.105 A  
HETATM   19  C   UNL     1      -8.540   4.530  68.901  1.00  0.00    -0.101 A  
HETATM   20  C   UNL     1      -9.455   6.893  69.103  1.00  0.00    -0.142 C  
HETATM   21  F   UNL     1      -5.151   5.871  67.032  1.00  0.00    -0.004 F  
HETATM   22  C   UNL     1      -7.627   3.614  68.397  1.00  0.00    -0.057 A  
HETATM   23  N   UNL     1      -9.068   8.339  68.974  1.00  0.00    -0.147 NA 
HETATM   24  C   UNL     1      -6.272   5.462  67.646  1.00  0.00    -0.034 A  
HETATM   25  C   UNL     1      -6.497   4.082  67.745  1.00  0.00    -0.038 A  
BRANCH  20  26
HETATM   26  C   UNL     1     -10.704   6.504  68.271  1.00  0.00    -0.341 C  
HETATM   27  O   UNL     1      -9.528   6.778  66.156  1.00  0.00    -0.121 OA 
HETATM   28  C   UNL     1     -10.499   6.133  66.825  1.00  0.00    -0.252 C  
HETATM   29  O   UNL     1     -11.251   5.350  66.255  1.00  0.00    -0.043 OA 
ENDBRANCH  20  26
BRANCH  23  30
HETATM   30  C   UNL     1     -10.188   9.249  69.055  1.00  0.00    -0.206 A  
HETATM   31  C   UNL     1     -11.968  10.244  70.437  1.00  0.00    -0.391 A  
HETATM   32  C   UNL     1     -10.806   9.472  70.301  1.00  0.00    -0.319 A  
HETATM   33  C   UNL     1     -12.868  10.081  71.636  1.00  0.00    -0.440 C  
HETATM   34  C   UNL     1     -12.341  11.076  69.393  1.00  0.00    -0.222 A  
HETATM   35  F   UNL     1     -12.508   9.053  72.448  1.00  0.00    -0.417 F  
HETATM   36  F   UNL     1     -12.921  11.194  72.417  1.00  0.00    -0.481 F  
HETATM   37  F   UNL     1     -14.152   9.819  71.257  1.00  0.00    -0.267 F  
HETATM   38  C   UNL     1     -11.694  10.972  68.168  1.00  0.00    -0.277 A  
HETATM   39  C   UNL     1     -10.715   9.988  67.955  1.00  0.00    -0.272 A  
BRANCH  39  40
HETATM   40  O   UNL     1     -10.177   9.788  66.706  1.00  0.00    -0.221 OA 
HETATM   41  C   UNL     1     -10.446  10.765  65.703  1.00  0.00    -0.186 C  
ENDBRANCH  39  40
ENDBRANCH  23  30
ENDBRANCH  12  15
ENDBRANCH   7   9
ENDBRANCH   2   3
TORSDOF 6
ENDMDL
MODEL       54
REMARK 921   NORMALIZED FREE ENERGY PREDICTED BY IDOCK:   -5.37 KCAL/MOL
REMARK 922        TOTAL FREE ENERGY PREDICTED BY IDOCK:   -8.49 KCAL/MOL
REMARK 923 INTER-LIGAND FREE ENERGY PREDICTED BY IDOCK:   -6.61 KCAL/MOL
REMARK 924 INTRA-LIGAND FREE ENERGY PREDICTED BY IDOCK:   -1.88 KCAL/MOL
REMARK 927      BINDING AFFINITY PREDICTED BY RF-SCORE:    0.00 PKD
ROOT
HETATM    1  C   UNL     1      -7.556   2.583  66.873  1.00  0.00    -0.070 C  
HETATM    2  O   UNL     1      -7.311   1.665  67.934  1.00  0.00    -0.046 OA 
ENDROOT
BRANCH   2   3
HETATM    3  C   UNL     1      -6.990   2.194  69.158  1.00  0.00    -0.036 A  
HETATM    4  C   UNL     1      -6.027   1.695  70.027  1.00  0.00    -0.022 A  
HETATM    5  C   UNL     1      -5.827   2.323  71.253  1.00  0.00    -0.013 A  
HETATM    6  C   UNL     1      -6.581   3.453  71.607  1.00  0.00    -0.022 A  
HETATM    7  C   UNL     1      -7.546   4.005  70.751  1.00  0.00    -0.047 A  
HETATM    8  C   UNL     1      -7.726   3.335  69.526  1.00  0.00    -0.050 A  
BRANCH   7   9
HETATM    9  N   UNL     1      -8.268   5.131  71.089  1.00  0.00    -0.114 NA 
HETATM   10  C   UNL     1      -7.645   6.404  71.488  1.00  0.00    -0.098 C  
HETATM   11  C   UNL     1      -8.072   7.526  70.529  1.00  0.00    -0.106 C  
HETATM   12  N   UNL     1      -9.538   7.646  70.353  1.00  0.00    -0.168 NA 
HETATM   13  C   UNL     1     -10.268   6.348  70.233  1.00  0.00    -0.195 C  
HETATM   14  C   UNL     1      -9.737   5.195  71.127  1.00  0.00    -0.174 C  
BRANCH  12  15
HETATM   15  C   UNL     1     -10.207   8.840  70.062  1.00  0.00    -0.198 C  
HETATM   16  N   UNL     1     -11.135   9.199  70.920  1.00  0.00    -0.267 NA 
HETATM   17  C   UNL     1     -11.768  10.454  70.830  1.00  0.00    -0.368 A  
HETATM   18  C   UNL     1     -11.400  11.380  69.869  1.00  0.00    -0.300 A  
HETATM   19  C   UNL     1     -11.946  12.684  69.895  1.00  0.00    -0.365 A  
HETATM   20  C   UNL     1     -10.494  10.953  68.733  1.00  0.00    -0.200 C  
HETATM   21  F   UNL     1     -13.187   9.952  72.682  1.00  0.00    -0.419 F  
HETATM   22  C   UNL     1     -12.927  13.038  70.812  1.00  0.00    -0.041 A  
HETATM   23  N   UNL     1      -9.909   9.578  68.898  1.00  0.00    -0.169 NA 
HETATM   24  C   UNL     1     -12.763  10.824  71.755  1.00  0.00    -0.359 A  
HETATM   25  C   UNL     1     -13.354  12.095  71.734  1.00  0.00    -0.342 A  
BRANCH  20  26
HETATM   26  C   UNL     1     -11.288  11.140  67.414  1.00  0.00    -0.329 C  
HETATM   27  O   UNL     1     -10.074  13.169  66.831  1.00  0.00    -0.238 OA 
HETATM   28  C   UNL     1     -10.726  12.083  66.382  1.00  0.00    -0.259 C  
HETATM   29  O   UNL     1     -10.942  11.921  65.186  1.00  0.00    -0.299 OA 
ENDBRANCH  20  26
BRANCH  23  30
HETATM   30  C   UNL     1      -9.275   9.069  67.702  1.00  0.00    -0.136 A  
HETATM   31  C   UNL     1      -7.425   9.251  66.087  1.00  0.00    -0.096 A  
HETATM   32  C   UNL     1      -8.039   9.607  67.296  1.00  0.00    -0.110 A  
HETATM   33  C   UNL     1      -6.398  10.151  65.447  1.00  0.00    -0.116 C  
HETATM   34  C   UNL     1      -7.862   8.113  65.428  1.00  0.00    -0.115 A  
HETATM   35  F   UNL     1      -6.257  11.346  66.078  1.00  0.00    -0.119 F  
HETATM   36  F   UNL     1      -5.159   9.591  65.392  1.00  0.00    -0.036 F  
HETATM   37  F   UNL     1      -6.739  10.452  64.162  1.00  0.00    -0.134 F  
HETATM   38  C   UNL     1      -9.024   7.479  65.851  1.00  0.00    -0.128 A  
HETATM   39  C   UNL     1      -9.795   8.015  66.894  1.00  0.00    -0.248 A  
BRANCH  39  40
HETATM   40  O   UNL     1     -11.015   7.472  67.219  1.00  0.00    -0.264 OA 
HETATM   41  C   UNL     1     -11.318   6.172  66.719  1.00  0.00     0.208 C  
ENDBRANCH  39  40
ENDBRANCH  23  30
ENDBRANCH  12  15
ENDBRANCH   7   9
ENDBRANCH   2   3
TORSDOF 6
ENDMDL
MODEL       55
REMARK 921   NORMALIZED FREE ENERGY PREDICTED BY IDOCK:   -5.36 KCAL/MOL
REMARK 922        TOTAL FREE ENERGY PREDICTED BY IDOCK:   -8.48 KCAL/MOL
REMARK 923 INTER-LIGAND FREE ENERGY PREDICTED BY IDOCK:   -7.02 KCAL/MOL
REMARK 924 INTRA-LIGAND FREE ENERGY PREDICTED BY IDOCK:   -1.46 KCAL/MOL
REMARK 927      BINDING AFFINITY PREDICTED BY RF-SCORE:    0.00 PKD
ROOT
HETATM    1  C   UNL     1      -9.428  15.798  65.854  1.00  0.00    -0.342 C  
HETATM    2  O   UNL     1     -10.424  16.369  66.696  1.00  0.00    -0.295 OA 
ENDROOT
BRANCH   2   3
HETATM    3  C   UNL     1     -10.897  15.591  67.722  1.00  0.00    -0.309 A  
HETATM    4  C   UNL     1     -11.603  16.052  68.827  1.00  0.00    -0.352 A  
HETATM    5  C   UNL     1     -11.998  15.145  69.807  1.00  0.00    -0.367 A  
HETATM    6  C   UNL     1     -11.697  13.780  69.679  1.00  0.00    -0.379 A  
HETATM    7  C   UNL     1     -11.009  13.268  68.569  1.00  0.00    -0.266 A  
HETATM    8  C   UNL     1     -10.616  14.218  67.606  1.00  0.00    -0.253 A  
BRANCH   7   9
HETATM    9  N   UNL     1     -10.736  11.922  68.432  1.00  0.00    -0.211 NA 
HETATM   10  C   UNL     1      -9.382  11.387  68.211  1.00  0.00    -0.187 C  
HETATM   11  C   UNL     1      -9.003  10.422  69.344  1.00  0.00    -0.151 C  
HETATM   12  N   UNL     1     -10.000   9.352  69.586  1.00  0.00    -0.185 NA 
HETATM   13  C   UNL     1     -11.426   9.794  69.530  1.00  0.00    -0.009 C  
HETATM   14  C   UNL     1     -11.756  10.862  68.453  1.00  0.00    -0.218 C  
BRANCH  12  15
HETATM   15  C   UNL     1      -9.693   8.079  70.078  1.00  0.00    -0.173 C  
HETATM   16  N   UNL     1     -10.095   7.828  71.304  1.00  0.00    -0.179 NA 
HETATM   17  C   UNL     1      -9.991   6.537  71.858  1.00  0.00    -0.177 A  
HETATM   18  C   UNL     1      -9.514   5.471  71.116  1.00  0.00    -0.197 A  
HETATM   19  C   UNL     1      -9.560   4.160  71.646  1.00  0.00    -0.232 A  
HETATM   20  C   UNL     1      -8.847   5.732  69.781  1.00  0.00    -0.126 C  
HETATM   21  F   UNL     1     -10.857   7.287  73.952  1.00  0.00    -0.407 F  
HETATM   22  C   UNL     1      -9.989   3.922  72.945  1.00  0.00    -0.203 A  
HETATM   23  N   UNL     1      -8.969   7.152  69.301  1.00  0.00    -0.139 NA 
HETATM   24  C   UNL     1     -10.423   6.283  73.173  1.00  0.00    -0.239 A  
HETATM   25  C   UNL     1     -10.402   4.994  73.721  1.00  0.00    -0.274 A  
BRANCH  20  26
HETATM   26  C   UNL     1      -7.382   5.234  69.892  1.00  0.00    -0.064 C  
HETATM   27  O   UNL     1      -7.858   3.191  68.654  1.00  0.00    -0.057 OA 
HETATM   28  C   UNL     1      -6.945   4.126  68.970  1.00  0.00    -0.047 C  
HETATM   29  O   UNL     1      -5.778   4.022  68.606  1.00  0.00    -0.020 OA 
ENDBRANCH  20  26
BRANCH  23  30
HETATM   30  C   UNL     1      -8.110   7.462  68.180  1.00  0.00    -0.124 A  
HETATM   31  C   UNL     1      -7.702   7.286  65.758  1.00  0.00    -0.099 A  
HETATM   32  C   UNL     1      -8.530   7.127  66.879  1.00  0.00    -0.123 A  
HETATM   33  C   UNL     1      -7.954   6.502  64.494  1.00  0.00    -0.110 C  
HETATM   34  C   UNL     1      -6.577   8.087  65.869  1.00  0.00    -0.046 A  
HETATM   35  F   UNL     1      -8.938   5.573  64.619  1.00  0.00    -0.128 F  
HETATM   36  F   UNL     1      -8.295   7.290  63.439  1.00  0.00    -0.092 F  
HETATM   37  F   UNL     1      -6.842   5.811  64.112  1.00  0.00    -0.044 F  
HETATM   38  C   UNL     1      -6.174   8.534  67.121  1.00  0.00    -0.056 A  
HETATM   39  C   UNL     1      -6.853   8.128  68.281  1.00  0.00    -0.069 A  
BRANCH  39  40
HETATM   40  O   UNL     1      -6.373   8.451  69.528  1.00  0.00    -0.036 OA 
HETATM   41  C   UNL     1      -5.395   9.484  69.616  1.00  0.00    -0.034 C  
ENDBRANCH  39  40
ENDBRANCH  23  30
ENDBRANCH  12  15
ENDBRANCH   7   9
ENDBRANCH   2   3
TORSDOF 6
ENDMDL
MODEL       56
REMARK 921   NORMALIZED FREE ENERGY PREDICTED BY IDOCK:   -5.14 KCAL/MOL
REMARK 922        TOTAL FREE ENERGY PREDICTED BY IDOCK:   -8.18 KCAL/MOL
REMARK 923 INTER-LIGAND FREE ENERGY PREDICTED BY IDOCK:   -8.86 KCAL/MOL
REMARK 924 INTRA-LIGAND FREE ENERGY PREDICTED BY IDOCK:    0.68 KCAL/MOL
REMARK 927      BINDING AFFINITY PREDICTED BY RF-SCORE:    0.00 PKD
ROOT
HETATM    1  C   UNL     1     -11.204   4.502  73.568  1.00  0.00    -0.303 C  
HETATM    2  O   UNL     1     -11.135   5.583  72.642  1.00  0.00    -0.251 OA 
ENDROOT
BRANCH   2   3
HETATM    3  C   UNL     1     -10.539   5.334  71.432  1.00  0.00    -0.177 A  
HETATM    4  C   UNL     1     -10.099   4.093  70.988  1.00  0.00    -0.130 A  
HETATM    5  C   UNL     1      -9.484   3.996  69.742  1.00  0.00    -0.265 A  
HETATM    6  C   UNL     1      -9.319   5.135  68.938  1.00  0.00    -0.168 A  
HETATM    7  C   UNL     1      -9.769   6.402  69.336  1.00  0.00    -0.145 A  
HETATM    8  C   UNL     1     -10.374   6.461  70.607  1.00  0.00    -0.243 A  
BRANCH   7   9
HETATM    9  N   UNL     1      -9.629   7.516  68.534  1.00  0.00    -0.149 NA 
HETATM   10  C   UNL     1     -10.651   7.955  67.570  1.00  0.00    -0.242 C  
HETATM   11  C   UNL     1     -11.122   9.377  67.908  1.00  0.00     0.077 C  
HETATM   12  N   UNL     1     -10.022  10.361  68.051  1.00  0.00    -0.153 NA 
HETATM   13  C   UNL     1      -8.819   9.860  68.782  1.00  0.00    -0.136 C  
HETATM   14  C   UNL     1      -8.438   8.380  68.513  1.00  0.00    -0.132 C  
BRANCH  12  15
HETATM   15  C   UNL     1     -10.138  11.726  67.772  1.00  0.00    -0.188 C  
HETATM   16  N   UNL     1     -10.781  12.441  68.668  1.00  0.00    -0.232 NA 
HETATM   17  C   UNL     1     -10.829  13.846  68.586  1.00  0.00    -0.262 A  
HETATM   18  C   UNL     1     -10.155  14.533  67.592  1.00  0.00    -0.228 A  
HETATM   19  C   UNL     1     -10.096  15.946  67.620  1.00  0.00    -0.242 A  
HETATM   20  C   UNL     1      -9.575  13.768  66.420  1.00  0.00    -0.272 C  
HETATM   21  F   UNL     1     -12.227  13.983  70.515  1.00  0.00    -0.342 F  
HETATM   22  C   UNL     1     -10.786  16.677  68.578  1.00  0.00    -0.356 A  
HETATM   23  N   UNL     1      -9.618  12.274  66.581  1.00  0.00    -0.218 NA 
HETATM   24  C   UNL     1     -11.524  14.598  69.552  1.00  0.00    -0.297 A  
HETATM   25  C   UNL     1     -11.522  15.999  69.537  1.00  0.00    -0.326 A  
BRANCH  20  26
HETATM   26  C   UNL     1     -10.284  14.279  65.139  1.00  0.00    -0.414 C  
HETATM   27  O   UNL     1     -12.500  13.998  66.109  1.00  0.00    -0.467 OA 
HETATM   28  C   UNL     1     -11.729  14.688  65.250  1.00  0.00    -0.346 C  
HETATM   29  O   UNL     1     -12.208  15.545  64.515  1.00  0.00    -0.239 OA 
ENDBRANCH  20  26
BRANCH  23  30
HETATM   30  C   UNL     1      -9.323  11.550  65.365  1.00  0.00    -0.159 A  
HETATM   31  C   UNL     1      -7.656  10.342  64.013  1.00  0.00    -0.083 A  
HETATM   32  C   UNL     1      -8.057  10.954  65.209  1.00  0.00     0.060 A  
HETATM   33  C   UNL     1      -6.194  10.151  63.693  1.00  0.00    -0.138 C  
HETATM   34  C   UNL     1      -8.623  10.019  63.073  1.00  0.00    -0.195 A  
HETATM   35  F   UNL     1      -5.362  10.743  64.590  1.00  0.00    -0.129 F  
HETATM   36  F   UNL     1      -5.829   8.843  63.627  1.00  0.00    -0.072 F  
HETATM   37  F   UNL     1      -5.879  10.697  62.484  1.00  0.00    -0.118 F  
HETATM   38  C   UNL     1      -9.919  10.496  63.231  1.00  0.00    -0.231 A  
HETATM   39  C   UNL     1     -10.243  11.355  64.293  1.00  0.00    -0.315 A  
BRANCH  39  40
HETATM   40  O   UNL     1     -11.484  11.941  64.370  1.00  0.00    -0.340 OA 
HETATM   41  C   UNL     1     -12.361  11.789  63.257  1.00  0.00    -0.294 C  
ENDBRANCH  39  40
ENDBRANCH  23  30
ENDBRANCH  12  15
ENDBRANCH   7   9
ENDBRANCH   2   3
TORSDOF 6
ENDMDL
MODEL       57
REMARK 921   NORMALIZED FREE ENERGY PREDICTED BY IDOCK:   -5.10 KCAL/MOL
REMARK 922        TOTAL FREE ENERGY PREDICTED BY IDOCK:   -8.13 KCAL/MOL
REMARK 923 INTER-LIGAND FREE ENERGY PREDICTED BY IDOCK:   -6.62 KCAL/MOL
REMARK 924 INTRA-LIGAND FREE ENERGY PREDICTED BY IDOCK:   -1.51 KCAL/MOL
REMARK 927      BINDING AFFINITY PREDICTED BY RF-SCORE:    0.00 PKD
ROOT
HETATM    1  C   UNL     1      -8.039   2.807  70.223  1.00  0.00    -0.041 C  
HETATM    2  O   UNL     1      -7.925   1.841  69.182  1.00  0.00    -0.045 OA 
ENDROOT
BRANCH   2   3
HETATM    3  C   UNL     1      -7.331   2.247  68.014  1.00  0.00    -0.048 A  
HETATM    4  C   UNL     1      -6.269   1.610  67.383  1.00  0.00    -0.024 A  
HETATM    5  C   UNL     1      -5.750   2.155  66.211  1.00  0.00    -0.021 A  
HETATM    6  C   UNL     1      -6.295   3.328  65.667  1.00  0.00    -0.032 A  
HETATM    7  C   UNL     1      -7.382   3.990  66.257  1.00  0.00    -0.079 A  
HETATM    8  C   UNL     1      -7.872   3.415  67.446  1.00  0.00    -0.078 A  
BRANCH   7   9
HETATM    9  N   UNL     1      -7.934   5.129  65.707  1.00  0.00    -0.106 NA 
HETATM   10  C   UNL     1      -9.376   5.292  65.456  1.00  0.00    -0.079 C  
HETATM   11  C   UNL     1      -9.914   6.502  66.234  1.00  0.00     0.070 C  
HETATM   12  N   UNL     1      -9.157   7.754  66.005  1.00  0.00    -0.156 NA 
HETATM   13  C   UNL     1      -7.672   7.595  65.957  1.00  0.00    -0.090 C  
HETATM   14  C   UNL     1      -7.159   6.300  65.271  1.00  0.00    -0.064 C  
BRANCH  12  15
HETATM   15  C   UNL     1      -9.708   9.038  66.072  1.00  0.00    -0.269 C  
HETATM   16  N   UNL     1      -9.749   9.704  64.940  1.00  0.00    -0.204 NA 
HETATM   17  C   UNL     1     -10.420  10.937  64.840  1.00  0.00    -0.282 A  
HETATM   18  C   UNL     1     -11.112  11.470  65.913  1.00  0.00    -0.274 A  
HETATM   19  C   UNL     1     -11.900  12.633  65.743  1.00  0.00    -0.497 A  
HETATM   20  C   UNL     1     -10.932  10.864  67.290  1.00  0.00    -0.294 C  
HETATM   21  F   UNL     1      -9.767  11.190  62.558  1.00  0.00    -0.282 F  
HETATM   22  C   UNL     1     -11.924  13.318  64.536  1.00  0.00    -0.449 A  
HETATM   23  N   UNL     1     -10.157   9.576  67.297  1.00  0.00    -0.200 NA 
HETATM   24  C   UNL     1     -10.453  11.640  63.620  1.00  0.00    -0.429 A  
HETATM   25  C   UNL     1     -11.178  12.830  63.474  1.00  0.00    -0.429 A  
BRANCH  20  26
HETATM   26  C   UNL     1     -10.327  11.962  68.203  1.00  0.00    -0.210 C  
HETATM   27  O   UNL     1     -12.504  12.962  68.644  1.00  0.00     0.103 OA 
HETATM   28  C   UNL     1     -11.265  12.721  69.105  1.00  0.00    -0.237 C  
HETATM   29  O   UNL     1     -10.882  13.189  70.173  1.00  0.00     0.554 OA 
ENDBRANCH  20  26
BRANCH  23  30
HETATM   30  C   UNL     1      -9.754   9.148  68.617  1.00  0.00    -0.155 A  
HETATM   31  C   UNL     1     -10.392   8.094  70.750  1.00  0.00    -0.217 A  
HETATM   32  C   UNL     1     -10.667   8.436  69.418  1.00  0.00    -0.162 A  
HETATM   33  C   UNL     1     -11.509   7.785  71.716  1.00  0.00    -0.266 C  
HETATM   34  C   UNL     1      -9.081   8.159  71.197  1.00  0.00    -0.183 A  
HETATM   35  F   UNL     1     -12.747   8.007  71.201  1.00  0.00    -0.309 F  
HETATM   36  F   UNL     1     -11.494   6.497  72.153  1.00  0.00    -0.272 F  
HETATM   37  F   UNL     1     -11.428   8.568  72.829  1.00  0.00    -0.426 F  
HETATM   38  C   UNL     1      -8.114   8.760  70.401  1.00  0.00    -0.118 A  
HETATM   39  C   UNL     1      -8.461   9.361  69.180  1.00  0.00    -0.134 A  
BRANCH  39  40
HETATM   40  O   UNL     1      -7.536  10.079  68.461  1.00  0.00    -0.084 OA 
HETATM   41  C   UNL     1      -6.857  11.141  69.126  1.00  0.00    -0.102 C  
ENDBRANCH  39  40
ENDBRANCH  23  30
ENDBRANCH  12  15
ENDBRANCH   7   9
ENDBRANCH   2   3
TORSDOF 6
ENDMDL
MODEL       58
REMARK 921   NORMALIZED FREE ENERGY PREDICTED BY IDOCK:   -5.10 KCAL/MOL
REMARK 922        TOTAL FREE ENERGY PREDICTED BY IDOCK:   -8.13 KCAL/MOL
REMARK 923 INTER-LIGAND FREE ENERGY PREDICTED BY IDOCK:   -6.60 KCAL/MOL
REMARK 924 INTRA-LIGAND FREE ENERGY PREDICTED BY IDOCK:   -1.52 KCAL/MOL
REMARK 927      BINDING AFFINITY PREDICTED BY RF-SCORE:    0.00 PKD
ROOT
HETATM    1  C   UNL     1      -9.210   3.520  65.364  1.00  0.00    -0.154 C  
HETATM    2  O   UNL     1      -8.509   4.726  65.651  1.00  0.00    -0.116 OA 
ENDROOT
BRANCH   2   3
HETATM    3  C   UNL     1      -9.214   5.729  66.267  1.00  0.00    -0.158 A  
HETATM    4  C   UNL     1     -10.543   5.655  66.666  1.00  0.00    -0.361 A  
HETATM    5  C   UNL     1     -11.138   6.767  67.258  1.00  0.00    -0.394 A  
HETATM    6  C   UNL     1     -10.404   7.946  67.458  1.00  0.00    -0.329 A  
HETATM    7  C   UNL     1      -9.054   8.056  67.093  1.00  0.00    -0.137 A  
HETATM    8  C   UNL     1      -8.492   6.915  66.488  1.00  0.00    -0.125 A  
BRANCH   7   9
HETATM    9  N   UNL     1      -8.326   9.208  67.315  1.00  0.00    -0.120 NA 
HETATM   10  C   UNL     1      -8.002  10.178  66.256  1.00  0.00    -0.118 C  
HETATM   11  C   UNL     1      -8.578  11.558  66.608  1.00  0.00    -0.176 C  
HETATM   12  N   UNL     1      -8.200  12.046  67.955  1.00  0.00    -0.147 NA 
HETATM   13  C   UNL     1      -8.231  11.011  69.033  1.00  0.00    -0.098 C  
HETATM   14  C   UNL     1      -7.756   9.593  68.615  1.00  0.00    -0.080 C  
BRANCH  12  15
HETATM   15  C   UNL     1      -8.062  13.394  68.301  1.00  0.00    -0.152 C  
HETATM   16  N   UNL     1      -7.106  13.670  69.159  1.00  0.00    -0.078 NA 
HETATM   17  C   UNL     1      -6.760  15.000  69.466  1.00  0.00    -0.167 A  
HETATM   18  C   UNL     1      -7.374  16.068  68.836  1.00  0.00    -0.176 A  
HETATM   19  C   UNL     1      -6.906  17.385  69.053  1.00  0.00    -0.244 A  
HETATM   20  C   UNL     1      -8.615  15.827  68.001  1.00  0.00    -0.163 C  
HETATM   21  F   UNL     1      -5.133  14.285  71.059  1.00  0.00    -0.100 F  
HETATM   22  C   UNL     1      -5.894  17.649  69.966  1.00  0.00    -0.229 A  
HETATM   23  N   UNL     1      -8.928  14.374  67.774  1.00  0.00    -0.185 NA 
HETATM   24  C   UNL     1      -5.735  15.280  70.389  1.00  0.00    -0.132 A  
HETATM   25  C   UNL     1      -5.320  16.592  70.655  1.00  0.00    -0.173 A  
BRANCH  20  26
HETATM   26  C   UNL     1      -9.775  16.621  68.657  1.00  0.00    -0.248 C  
HETATM   27  O   UNL     1      -9.527  18.488  67.114  1.00  0.00    -0.280 OA 
HETATM   28  C   UNL     1     -10.363  17.772  67.884  1.00  0.00    -0.386 C  
HETATM   29  O   UNL     1     -11.534  18.106  68.031  1.00  0.00     0.408 OA 
ENDBRANCH  20  26
BRANCH  23  30
HETATM   30  C   UNL     1     -10.243  14.144  67.219  1.00  0.00    -0.256 A  
HETATM   31  C   UNL     1     -11.751  14.343  65.282  1.00  0.00    -0.364 A  
HETATM   32  C   UNL     1     -10.477  14.426  65.860  1.00  0.00    -0.317 A  
HETATM   33  C   UNL     1     -12.075  15.087  64.011  1.00  0.00    -0.094 C  
HETATM   34  C   UNL     1     -12.747  13.658  65.962  1.00  0.00    -0.366 A  
HETATM   35  F   UNL     1     -11.078  15.914  63.599  1.00  0.00     0.206 F  
HETATM   36  F   UNL     1     -12.353  14.262  62.967  1.00  0.00    -0.115 F  
HETATM   37  F   UNL     1     -13.170  15.884  64.172  1.00  0.00     0.287 F  
HETATM   38  C   UNL     1     -12.533  13.263  67.277  1.00  0.00     0.102 A  
HETATM   39  C   UNL     1     -11.348  13.607  67.946  1.00  0.00    -0.295 A  
BRANCH  39  40
HETATM   40  O   UNL     1     -11.193  13.344  69.286  1.00  0.00    -0.258 OA 
HETATM   41  C   UNL     1     -11.894  12.228  69.828  1.00  0.00    -0.318 C  
ENDBRANCH  39  40
ENDBRANCH  23  30
ENDBRANCH  12  15
ENDBRANCH   7   9
ENDBRANCH   2   3
TORSDOF 6
ENDMDL
MODEL       59
REMARK 921   NORMALIZED FREE ENERGY PREDICTED BY IDOCK:   -4.95 KCAL/MOL
REMARK 922        TOTAL FREE ENERGY PREDICTED BY IDOCK:   -7.92 KCAL/MOL
REMARK 923 INTER-LIGAND FREE ENERGY PREDICTED BY IDOCK:   -6.08 KCAL/MOL
REMARK 924 INTRA-LIGAND FREE ENERGY PREDICTED BY IDOCK:   -1.84 KCAL/MOL
REMARK 927      BINDING AFFINITY PREDICTED BY RF-SCORE:    0.00 PKD
ROOT
HETATM    1  C   UNL     1      -7.668   2.455  66.902  1.00  0.00    -0.070 C  
HETATM    2  O   UNL     1      -8.301   2.568  68.173  1.00  0.00    -0.067 OA 
ENDROOT
BRANCH   2   3
HETATM    3  C   UNL     1      -7.698   3.376  69.103  1.00  0.00    -0.051 A  
HETATM    4  C   UNL     1      -6.451   3.157  69.677  1.00  0.00    -0.033 A  
HETATM    5  C   UNL     1      -5.977   4.052  70.632  1.00  0.00    -0.017 A  
HETATM    6  C   UNL     1      -6.741   5.168  71.006  1.00  0.00    -0.040 A  
HETATM    7  C   UNL     1      -7.993   5.441  70.435  1.00  0.00    -0.100 A  
HETATM    8  C   UNL     1      -8.443   4.507  69.482  1.00  0.00    -0.093 A  
BRANCH   7   9
HETATM    9  N   UNL     1      -8.733   6.553  70.784  1.00  0.00    -0.142 NA 
HETATM   10  C   UNL     1      -8.164   7.717  71.483  1.00  0.00    -0.105 C  
HETATM   11  C   UNL     1      -8.347   8.984  70.635  1.00  0.00    -0.186 C  
HETATM   12  N   UNL     1      -9.741   9.219  70.189  1.00  0.00    -0.202 NA 
HETATM   13  C   UNL     1     -10.472   7.997  69.736  1.00  0.00    -0.227 C  
HETATM   14  C   UNL     1     -10.175   6.702  70.538  1.00  0.00    -0.189 C  
BRANCH  12  15
HETATM   15  C   UNL     1     -10.295  10.480  69.950  1.00  0.00    -0.114 C  
HETATM   16  N   UNL     1     -11.382  10.766  70.631  1.00  0.00    -0.230 NA 
HETATM   17  C   UNL     1     -11.946  12.055  70.603  1.00  0.00    -0.160 A  
HETATM   18  C   UNL     1     -11.348  13.088  69.902  1.00  0.00    -0.037 A  
HETATM   19  C   UNL     1     -11.852  14.405  70.012  1.00  0.00    -0.377 A  
HETATM   20  C   UNL     1     -10.222  12.779  68.938  1.00  0.00     0.017 C  
HETATM   21  F   UNL     1     -13.757  11.374  72.000  1.00  0.00    -0.383 F  
HETATM   22  C   UNL     1     -13.003  14.679  70.738  1.00  0.00    -0.405 A  
HETATM   23  N   UNL     1      -9.725  11.362  69.009  1.00  0.00    -0.084 NA 
HETATM   24  C   UNL     1     -13.113  12.345  71.336  1.00  0.00    -0.204 A  
HETATM   25  C   UNL     1     -13.651  13.639  71.386  1.00  0.00    -0.211 A  
BRANCH  20  26
HETATM   26  C   UNL     1     -10.695  13.205  67.523  1.00  0.00    -0.248 C  
HETATM   27  O   UNL     1      -9.420  15.278  67.591  1.00  0.00    -0.203 OA 
HETATM   28  C   UNL     1      -9.929  14.299  66.826  1.00  0.00    -0.265 C  
HETATM   29  O   UNL     1      -9.861  14.348  65.602  1.00  0.00    -0.324 OA 
ENDBRANCH  20  26
BRANCH  23  30
HETATM   30  C   UNL     1      -8.853  10.997  67.915  1.00  0.00    -0.134 A  
HETATM   31  C   UNL     1      -8.431   9.516  65.993  1.00  0.00    -0.132 A  
HETATM   32  C   UNL     1      -9.269  10.007  67.004  1.00  0.00    -0.167 A  
HETATM   33  C   UNL     1      -8.687   8.170  65.362  1.00  0.00    -0.094 C  
HETATM   34  C   UNL     1      -7.293  10.235  65.663  1.00  0.00    -0.149 A  
HETATM   35  F   UNL     1      -9.688   7.472  65.961  1.00  0.00    -0.182 F  
HETATM   36  F   UNL     1      -9.007   8.252  64.043  1.00  0.00     0.067 F  
HETATM   37  F   UNL     1      -7.585   7.371  65.439  1.00  0.00    -0.077 F  
HETATM   38  C   UNL     1      -6.891  11.292  66.471  1.00  0.00    -0.101 A  
HETATM   39  C   UNL     1      -7.586  11.596  67.652  1.00  0.00    -0.128 A  
BRANCH  39  40
HETATM   40  O   UNL     1      -7.109  12.545  68.525  1.00  0.00    -0.094 OA 
HETATM   41  C   UNL     1      -6.354  13.625  67.983  1.00  0.00    -0.139 C  
ENDBRANCH  39  40
ENDBRANCH  23  30
ENDBRANCH  12  15
ENDBRANCH   7   9
ENDBRANCH   2   3
TORSDOF 6
ENDMDL
MODEL       60
REMARK 921   NORMALIZED FREE ENERGY PREDICTED BY IDOCK:   -4.94 KCAL/MOL
REMARK 922        TOTAL FREE ENERGY PREDICTED BY IDOCK:   -7.91 KCAL/MOL
REMARK 923 INTER-LIGAND FREE ENERGY PREDICTED BY IDOCK:   -6.48 KCAL/MOL
REMARK 924 INTRA-LIGAND FREE ENERGY PREDICTED BY IDOCK:   -1.43 KCAL/MOL
REMARK 927      BINDING AFFINITY PREDICTED BY RF-SCORE:    0.00 PKD
ROOT
HETATM    1  C   UNL     1      -7.950   3.104  66.825  1.00  0.00    -0.080 C  
HETATM    2  O   UNL     1      -9.051   3.445  67.661  1.00  0.00    -0.136 OA 
ENDROOT
BRANCH   2   3
HETATM    3  C   UNL     1      -8.763   4.026  68.870  1.00  0.00    -0.093 A  
HETATM    4  C   UNL     1      -8.073   3.422  69.913  1.00  0.00    -0.060 A  
HETATM    5  C   UNL     1      -7.878   4.128  71.097  1.00  0.00    -0.071 A  
HETATM    6  C   UNL     1      -8.362   5.438  71.235  1.00  0.00    -0.125 A  
HETATM    7  C   UNL     1      -9.043   6.095  70.199  1.00  0.00    -0.152 A  
HETATM    8  C   UNL     1      -9.230   5.344  69.023  1.00  0.00    -0.149 A  
BRANCH   7   9
HETATM    9  N   UNL     1      -9.496   7.392  70.327  1.00  0.00    -0.165 NA 
HETATM   10  C   UNL     1      -8.729   8.458  70.993  1.00  0.00    -0.156 C  
HETATM   11  C   UNL     1      -8.461   9.609  70.012  1.00  0.00    -0.204 C  
HETATM   12  N   UNL     1      -9.676  10.126  69.339  1.00  0.00    -0.219 NA 
HETATM   13  C   UNL     1     -10.646   9.078  68.896  1.00  0.00    -0.180 C  
HETATM   14  C   UNL     1     -10.805   7.865  69.851  1.00  0.00    -0.221 C  
BRANCH  12  15
HETATM   15  C   UNL     1      -9.841  11.444  68.902  1.00  0.00    -0.112 C  
HETATM   16  N   UNL     1     -10.896  12.074  69.367  1.00  0.00    -0.079 NA 
HETATM   17  C   UNL     1     -11.091  13.448  69.133  1.00  0.00    -0.213 A  
HETATM   18  C   UNL     1     -10.152  14.203  68.451  1.00  0.00    -0.238 A  
HETATM   19  C   UNL     1     -10.300  15.607  68.360  1.00  0.00    -0.231 A  
HETATM   20  C   UNL     1      -9.027  13.504  67.716  1.00  0.00    -0.201 C  
HETATM   21  F   UNL     1     -13.189  13.420  70.270  1.00  0.00    -0.016 F  
HETATM   22  C   UNL     1     -11.427  16.247  68.860  1.00  0.00    -0.282 A  
HETATM   23  N   UNL     1      -8.936  12.029  67.992  1.00  0.00    -0.181 NA 
HETATM   24  C   UNL     1     -12.228  14.109  69.636  1.00  0.00    -0.326 A  
HETATM   25  C   UNL     1     -12.407  15.490  69.483  1.00  0.00    -0.184 A  
BRANCH  20  26
HETATM   26  C   UNL     1      -9.175  13.850  66.211  1.00  0.00    -0.114 C  
HETATM   27  O   UNL     1     -11.223  12.549  65.992  1.00  0.00    -0.288 OA 
HETATM   28  C   UNL     1     -10.513  13.607  65.562  1.00  0.00    -0.306 C  
HETATM   29  O   UNL     1     -10.893  14.283  64.612  1.00  0.00    -0.401 OA 
ENDBRANCH  20  26
BRANCH  23  30
HETATM   30  C   UNL     1      -8.052  11.324  67.092  1.00  0.00    -0.150 A  
HETATM   31  C   UNL     1      -7.777   9.545  65.412  1.00  0.00    -0.109 A  
HETATM   32  C   UNL     1      -8.585  10.352  66.224  1.00  0.00    -0.147 A  
HETATM   33  C   UNL     1      -8.287   8.229  64.878  1.00  0.00    -0.135 C  
HETATM   34  C   UNL     1      -6.458   9.918  65.204  1.00  0.00    -0.103 A  
HETATM   35  F   UNL     1      -9.503   7.879  65.371  1.00  0.00     0.001 F  
HETATM   36  F   UNL     1      -8.396   8.212  63.522  1.00  0.00    -0.158 F  
HETATM   37  F   UNL     1      -7.448   7.205  65.207  1.00  0.00    -0.075 F  
HETATM   38  C   UNL     1      -5.907  10.943  65.963  1.00  0.00    -0.143 A  
HETATM   39  C   UNL     1      -6.649  11.559  66.983  1.00  0.00    -0.138 A  
BRANCH  39  40
HETATM   40  O   UNL     1      -6.063  12.471  67.828  1.00  0.00    -0.088 OA 
HETATM   41  C   UNL     1      -5.501  11.984  69.044  1.00  0.00    -0.051 C  
ENDBRANCH  39  40
ENDBRANCH  23  30
ENDBRANCH  12  15
ENDBRANCH   7   9
ENDBRANCH   2   3
TORSDOF 6
ENDMDL
MODEL       61
REMARK 921   NORMALIZED FREE ENERGY PREDICTED BY IDOCK:   -4.90 KCAL/MOL
REMARK 922        TOTAL FREE ENERGY PREDICTED BY IDOCK:   -7.86 KCAL/MOL
REMARK 923 INTER-LIGAND FREE ENERGY PREDICTED BY IDOCK:   -5.94 KCAL/MOL
REMARK 924 INTRA-LIGAND FREE ENERGY PREDICTED BY IDOCK:   -1.92 KCAL/MOL
REMARK 927      BINDING AFFINITY PREDICTED BY RF-SCORE:    0.00 PKD
ROOT
HETATM    1  C   UNL     1     -10.399  18.403  67.769  1.00  0.00    -0.405 C  
HETATM    2  O   UNL     1     -10.405  17.104  68.354  1.00  0.00    -0.318 OA 
ENDROOT
BRANCH   2   3
HETATM    3  C   UNL     1      -9.207  16.439  68.413  1.00  0.00    -0.217 A  
HETATM    4  C   UNL     1      -7.951  17.034  68.436  1.00  0.00    -0.239 A  
HETATM    5  C   UNL     1      -6.817  16.227  68.470  1.00  0.00    -0.137 A  
HETATM    6  C   UNL     1      -6.937  14.829  68.491  1.00  0.00    -0.108 A  
HETATM    7  C   UNL     1      -8.184  14.186  68.493  1.00  0.00    -0.146 A  
HETATM    8  C   UNL     1      -9.306  15.036  68.447  1.00  0.00    -0.193 A  
BRANCH   7   9
HETATM    9  N   UNL     1      -8.301  12.812  68.540  1.00  0.00    -0.104 NA 
HETATM   10  C   UNL     1      -9.565  12.097  68.295  1.00  0.00    -0.210 C  
HETATM   11  C   UNL     1      -9.407  11.136  67.107  1.00  0.00    -0.165 C  
HETATM   12  N   UNL     1      -8.252  10.216  67.222  1.00  0.00    -0.117 NA 
HETATM   13  C   UNL     1      -7.001  10.837  67.752  1.00  0.00    -0.077 C  
HETATM   14  C   UNL     1      -7.199  11.895  68.870  1.00  0.00    -0.098 C  
BRANCH  12  15
HETATM   15  C   UNL     1      -8.200   8.934  66.663  1.00  0.00    -0.111 C  
HETATM   16  N   UNL     1      -8.271   8.878  65.352  1.00  0.00    -0.122 NA 
HETATM   17  C   UNL     1      -8.071   7.669  64.660  1.00  0.00    -0.112 A  
HETATM   18  C   UNL     1      -7.736   6.503  65.327  1.00  0.00    -0.102 A  
HETATM   19  C   UNL     1      -7.394   5.341  64.597  1.00  0.00    -0.067 A  
HETATM   20  C   UNL     1      -7.842   6.453  66.838  1.00  0.00    -0.104 C  
HETATM   21  F   UNL     1      -8.514   8.713  62.560  1.00  0.00    -0.178 F  
HETATM   22  C   UNL     1      -7.480   5.308  63.211  1.00  0.00    -0.053 A  
HETATM   23  N   UNL     1      -8.109   7.786  67.478  1.00  0.00    -0.122 NA 
HETATM   24  C   UNL     1      -8.154   7.623  63.255  1.00  0.00    -0.051 A  
HETATM   25  C   UNL     1      -7.883   6.450  62.538  1.00  0.00    -0.102 A  
BRANCH  20  26
HETATM   26  C   UNL     1      -8.892   5.369  67.191  1.00  0.00    -0.109 C  
HETATM   27  O   UNL     1      -7.185   3.756  67.836  1.00  0.00    -0.057 OA 
HETATM   28  C   UNL     1      -8.441   4.197  68.023  1.00  0.00    -0.094 C  
HETATM   29  O   UNL     1      -9.217   3.606  68.767  1.00  0.00    -0.134 OA 
ENDBRANCH  20  26
BRANCH  23  30
HETATM   30  C   UNL     1      -8.478   7.697  68.873  1.00  0.00    -0.129 A  
HETATM   31  C   UNL     1     -10.234   7.942  70.582  1.00  0.00    -0.199 A  
HETATM   32  C   UNL     1      -9.823   7.894  69.243  1.00  0.00    -0.177 A  
HETATM   33  C   UNL     1     -11.527   8.616  70.969  1.00  0.00    -0.278 C  
HETATM   34  C   UNL     1      -9.377   7.463  71.560  1.00  0.00    -0.154 A  
HETATM   35  F   UNL     1     -12.134   9.258  69.937  1.00  0.00     0.028 F  
HETATM   36  F   UNL     1     -12.444   7.754  71.485  1.00  0.00    -0.296 F  
HETATM   37  F   UNL     1     -11.320   9.568  71.923  1.00  0.00    -0.428 F  
HETATM   38  C   UNL     1      -8.064   7.153  71.229  1.00  0.00    -0.107 A  
HETATM   39  C   UNL     1      -7.577   7.383  69.933  1.00  0.00    -0.090 A  
BRANCH  39  40
HETATM   40  O   UNL     1      -6.245   7.213  69.640  1.00  0.00    -0.033 OA 
HETATM   41  C   UNL     1      -5.359   8.292  69.928  1.00  0.00    -0.023 C  
ENDBRANCH  39  40
ENDBRANCH  23  30
ENDBRANCH  12  15
ENDBRANCH   7   9
ENDBRANCH   2   3
TORSDOF 6
ENDMDL
MODEL       62
REMARK 921   NORMALIZED FREE ENERGY PREDICTED BY IDOCK:   -4.88 KCAL/MOL
REMARK 922        TOTAL FREE ENERGY PREDICTED BY IDOCK:   -7.82 KCAL/MOL
REMARK 923 INTER-LIGAND FREE ENERGY PREDICTED BY IDOCK:   -8.65 KCAL/MOL
REMARK 924 INTRA-LIGAND FREE ENERGY PREDICTED BY IDOCK:    0.83 KCAL/MOL
REMARK 927      BINDING AFFINITY PREDICTED BY RF-SCORE:    0.00 PKD
ROOT
HETATM    1  C   UNL     1      -5.302  19.247  70.822  1.00  0.00    -0.229 C  
HETATM    2  O   UNL     1      -5.417  18.254  69.808  1.00  0.00    -0.200 OA 
ENDROOT
BRANCH   2   3
HETATM    3  C   UNL     1      -6.640  18.117  69.201  1.00  0.00    -0.255 A  
HETATM    4  C   UNL     1      -7.555  19.140  68.987  1.00  0.00    -0.337 A  
HETATM    5  C   UNL     1      -8.773  18.847  68.380  1.00  0.00    -0.380 A  
HETATM    6  C   UNL     1      -9.073  17.535  67.980  1.00  0.00    -0.269 A  
HETATM    7  C   UNL     1      -8.169  16.477  68.154  1.00  0.00    -0.181 A  
HETATM    8  C   UNL     1      -6.953  16.811  68.781  1.00  0.00    -0.197 A  
BRANCH   7   9
HETATM    9  N   UNL     1      -8.454  15.192  67.737  1.00  0.00    -0.145 NA 
HETATM   10  C   UNL     1      -7.419  14.203  67.391  1.00  0.00    -0.134 C  
HETATM   11  C   UNL     1      -7.546  12.967  68.293  1.00  0.00    -0.135 C  
HETATM   12  N   UNL     1      -8.905  12.375  68.322  1.00  0.00    -0.188 NA 
HETATM   13  C   UNL     1     -10.023  13.365  68.378  1.00  0.00    -0.231 C  
HETATM   14  C   UNL     1      -9.813  14.662  67.551  1.00  0.00    -0.218 C  
BRANCH  12  15
HETATM   15  C   UNL     1      -9.175  11.020  68.535  1.00  0.00    -0.177 C  
HETATM   16  N   UNL     1      -8.810  10.540  69.702  1.00  0.00    -0.032 NA 
HETATM   17  C   UNL     1      -9.166   9.238  70.102  1.00  0.00    -0.225 A  
HETATM   18  C   UNL     1      -9.961   8.432  69.307  1.00  0.00    -0.195 A  
HETATM   19  C   UNL     1     -10.427   7.189  69.796  1.00  0.00    -0.238 A  
HETATM   20  C   UNL     1     -10.239   8.842  67.875  1.00  0.00    -0.219 C  
HETATM   21  F   UNL     1      -7.960   9.458  72.150  1.00  0.00     0.211 F  
HETATM   22  C   UNL     1     -10.024   6.705  71.034  1.00  0.00    -0.200 A  
HETATM   23  N   UNL     1      -9.774  10.229  67.532  1.00  0.00    -0.166 NA 
HETATM   24  C   UNL     1      -8.765   8.736  71.355  1.00  0.00    -0.214 A  
HETATM   25  C   UNL     1      -9.170   7.474  71.809  1.00  0.00    -0.162 A  
BRANCH  20  26
HETATM   26  C   UNL     1      -9.648   7.740  66.957  1.00  0.00    -0.238 C  
HETATM   27  O   UNL     1     -11.337   6.115  67.619  1.00  0.00    -0.197 OA 
HETATM   28  C   UNL     1     -10.510   6.543  66.650  1.00  0.00    -0.159 C  
HETATM   29  O   UNL     1     -10.389   5.924  65.598  1.00  0.00     0.376 OA 
ENDBRANCH  20  26
BRANCH  23  30
HETATM   30  C   UNL     1      -9.790  10.513  66.115  1.00  0.00    -0.217 A  
HETATM   31  C   UNL     1     -10.942  11.580  64.217  1.00  0.00    -0.406 A  
HETATM   32  C   UNL     1     -10.790  11.356  65.593  1.00  0.00    -0.280 A  
HETATM   33  C   UNL     1     -12.255  12.061  63.652  1.00  0.00    -0.538 C  
HETATM   34  C   UNL     1      -9.900  11.240  63.368  1.00  0.00    -0.416 A  
HETATM   35  F   UNL     1     -13.255  12.108  64.571  1.00  0.00    -0.498 F  
HETATM   36  F   UNL     1     -12.175  13.301  63.099  1.00  0.00    -0.613 F  
HETATM   37  F   UNL     1     -12.701  11.231  62.666  1.00  0.00    -0.197 F  
HETATM   38  C   UNL     1      -8.833  10.495  63.856  1.00  0.00    -0.203 A  
HETATM   39  C   UNL     1      -8.830  10.027  65.179  1.00  0.00    -0.180 A  
BRANCH  39  40
HETATM   40  O   UNL     1      -7.848   9.172  65.621  1.00  0.00    -0.093 OA 
HETATM   41  C   UNL     1      -7.170   8.380  64.649  1.00  0.00    -0.082 C  
ENDBRANCH  39  40
ENDBRANCH  23  30
ENDBRANCH  12  15
ENDBRANCH   7   9
ENDBRANCH   2   3
TORSDOF 6
ENDMDL
MODEL       63
REMARK 921   NORMALIZED FREE ENERGY PREDICTED BY IDOCK:   -4.84 KCAL/MOL
REMARK 922        TOTAL FREE ENERGY PREDICTED BY IDOCK:   -7.77 KCAL/MOL
REMARK 923 INTER-LIGAND FREE ENERGY PREDICTED BY IDOCK:   -6.04 KCAL/MOL
REMARK 924 INTRA-LIGAND FREE ENERGY PREDICTED BY IDOCK:   -1.73 KCAL/MOL
REMARK 927      BINDING AFFINITY PREDICTED BY RF-SCORE:    0.00 PKD
ROOT
HETATM    1  C   UNL     1     -10.011   2.127  71.568  1.00  0.00    -0.079 C  
HETATM    2  O   UNL     1      -9.971   3.544  71.425  1.00  0.00    -0.171 OA 
ENDROOT
BRANCH   2   3
HETATM    3  C   UNL     1      -9.068   4.057  70.529  1.00  0.00    -0.112 A  
HETATM    4  C   UNL     1      -7.986   3.373  69.989  1.00  0.00    -0.053 A  
HETATM    5  C   UNL     1      -7.135   4.035  69.108  1.00  0.00    -0.047 A  
HETATM    6  C   UNL     1      -7.369   5.374  68.760  1.00  0.00    -0.074 A  
HETATM    7  C   UNL     1      -8.463   6.096  69.262  1.00  0.00    -0.119 A  
HETATM    8  C   UNL     1      -9.293   5.396  70.159  1.00  0.00    -0.193 A  
BRANCH   7   9
HETATM    9  N   UNL     1      -8.707   7.405  68.900  1.00  0.00    -0.132 NA 
HETATM   10  C   UNL     1      -9.570   8.313  69.673  1.00  0.00    -0.167 C  
HETATM   11  C   UNL     1      -8.770   9.542  70.130  1.00  0.00    -0.230 C  
HETATM   12  N   UNL     1      -8.054  10.239  69.036  1.00  0.00    -0.122 NA 
HETATM   13  C   UNL     1      -7.394   9.341  68.041  1.00  0.00    -0.080 C  
HETATM   14  C   UNL     1      -8.171   8.045  67.688  1.00  0.00    -0.124 C  
BRANCH  12  15
HETATM   15  C   UNL     1      -7.770  11.609  69.021  1.00  0.00    -0.002 C  
HETATM   16  N   UNL     1      -6.999  12.045  69.992  1.00  0.00     0.286 NA 
HETATM   17  C   UNL     1      -6.510  13.365  70.001  1.00  0.00     0.046 A  
HETATM   18  C   UNL     1      -6.775  14.239  68.962  1.00  0.00    -0.106 A  
HETATM   19  C   UNL     1      -6.150  15.507  68.924  1.00  0.00    -0.099 A  
HETATM   20  C   UNL     1      -7.818  13.870  67.926  1.00  0.00    -0.161 C  
HETATM   21  F   UNL     1      -5.430  13.027  72.103  1.00  0.00    -0.098 F  
HETATM   22  C   UNL     1      -5.341  15.944  69.964  1.00  0.00    -0.143 A  
HETATM   23  N   UNL     1      -8.315  12.456  68.033  1.00  0.00    -0.161 NA 
HETATM   24  C   UNL     1      -5.687  13.818  71.050  1.00  0.00    -0.210 A  
HETATM   25  C   UNL     1      -5.126  15.102  71.045  1.00  0.00    -0.141 A  
BRANCH  20  26
HETATM   26  C   UNL     1      -8.943  14.935  68.005  1.00  0.00    -0.172 C  
HETATM   27  O   UNL     1      -8.030  16.209  66.141  1.00  0.00    -0.217 OA 
HETATM   28  C   UNL     1      -9.131  15.847  66.821  1.00  0.00    -0.248 C  
HETATM   29  O   UNL     1     -10.229  16.322  66.550  1.00  0.00    -0.280 OA 
ENDBRANCH  20  26
BRANCH  23  30
HETATM   30  C   UNL     1      -9.491  12.191  67.234  1.00  0.00    -0.184 A  
HETATM   31  C   UNL     1     -10.427  11.654  65.021  1.00  0.00    -0.336 A  
HETATM   32  C   UNL     1      -9.337  11.809  65.888  1.00  0.00    -0.214 A  
HETATM   33  C   UNL     1     -10.243  11.728  63.526  1.00  0.00    -0.450 C  
HETATM   34  C   UNL     1     -11.699  11.550  65.563  1.00  0.00     0.152 A  
HETATM   35  F   UNL     1      -8.987  12.085  63.152  1.00  0.00    -0.071 F  
HETATM   36  F   UNL     1     -10.517  10.553  62.897  1.00  0.00    -0.209 F  
HETATM   37  F   UNL     1     -11.071  12.660  62.972  1.00  0.00    -0.462 F  
HETATM   38  C   UNL     1     -11.894  11.815  66.912  1.00  0.00    -0.090 A  
HETATM   39  C   UNL     1     -10.831  12.253  67.718  1.00  0.00    -0.221 A  
BRANCH  39  40
HETATM   40  O   UNL     1     -11.049  12.653  69.015  1.00  0.00    -0.253 OA 
HETATM   41  C   UNL     1     -12.116  13.566  69.258  1.00  0.00    -0.288 C  
ENDBRANCH  39  40
ENDBRANCH  23  30
ENDBRANCH  12  15
ENDBRANCH   7   9
ENDBRANCH   2   3
TORSDOF 6
ENDMDL
MODEL       64
REMARK 921   NORMALIZED FREE ENERGY PREDICTED BY IDOCK:   -4.83 KCAL/MOL
REMARK 922        TOTAL FREE ENERGY PREDICTED BY IDOCK:   -7.76 KCAL/MOL
REMARK 923 INTER-LIGAND FREE ENERGY PREDICTED BY IDOCK:   -8.28 KCAL/MOL
REMARK 924 INTRA-LIGAND FREE ENERGY PREDICTED BY IDOCK:    0.51 KCAL/MOL
REMARK 927      BINDING AFFINITY PREDICTED BY RF-SCORE:    0.00 PKD
ROOT
HETATM    1  C   UNL     1      -7.253   2.773  65.368  1.00  0.00    -0.062 C  
HETATM    2  O   UNL     1      -8.623   3.001  65.685  1.00  0.00    -0.105 OA 
ENDROOT
BRANCH   2   3
HETATM    3  C   UNL     1      -8.907   3.446  66.951  1.00  0.00    -0.138 A  
HETATM    4  C   UNL     1      -8.617   2.770  68.130  1.00  0.00    -0.116 A  
HETATM    5  C   UNL     1      -8.991   3.335  69.346  1.00  0.00    -0.176 A  
HETATM    6  C   UNL     1      -9.645   4.576  69.386  1.00  0.00    -0.264 A  
HETATM    7  C   UNL     1      -9.936   5.303  68.222  1.00  0.00    -0.156 A  
HETATM    8  C   UNL     1      -9.553   4.694  67.012  1.00  0.00    -0.198 A  
BRANCH   7   9
HETATM    9  N   UNL     1     -10.557   6.536  68.264  1.00  0.00    -0.222 NA 
HETATM   10  C   UNL     1     -10.690   7.336  69.493  1.00  0.00    -0.232 C  
HETATM   11  C   UNL     1     -10.005   8.699  69.313  1.00  0.00    -0.195 C  
HETATM   12  N   UNL     1     -10.441   9.441  68.107  1.00  0.00    -0.214 NA 
HETATM   13  C   UNL     1     -10.607   8.607  66.878  1.00  0.00    -0.200 C  
HETATM   14  C   UNL     1     -11.189   7.186  67.106  1.00  0.00     0.037 C  
BRANCH  12  15
HETATM   15  C   UNL     1     -10.466  10.836  68.000  1.00  0.00    -0.194 C  
HETATM   16  N   UNL     1     -11.248  11.461  68.851  1.00  0.00    -0.224 NA 
HETATM   17  C   UNL     1     -11.243  12.865  68.954  1.00  0.00    -0.279 A  
HETATM   18  C   UNL     1     -10.375  13.639  68.204  1.00  0.00    -0.245 A  
HETATM   19  C   UNL     1     -10.287  15.032  68.435  1.00  0.00    -0.231 A  
HETATM   20  C   UNL     1      -9.603  13.003  67.066  1.00  0.00    -0.236 C  
HETATM   21  F   UNL     1     -12.979  12.824  70.591  1.00  0.00    -0.223 F  
HETATM   22  C   UNL     1     -11.127  15.668  69.339  1.00  0.00    -0.303 A  
HETATM   23  N   UNL     1      -9.715  11.505  67.012  1.00  0.00    -0.183 NA 
HETATM   24  C   UNL     1     -12.090  13.521  69.868  1.00  0.00    -0.341 A  
HETATM   25  C   UNL     1     -12.049  14.911  70.044  1.00  0.00    -0.387 A  
BRANCH  20  26
HETATM   26  C   UNL     1     -10.042  13.710  65.758  1.00  0.00    -0.311 C  
HETATM   27  O   UNL     1     -12.409  13.447  66.269  1.00  0.00    -0.401 OA 
HETATM   28  C   UNL     1     -11.467  14.189  65.662  1.00  0.00    -0.325 C  
HETATM   29  O   UNL     1     -11.769  15.158  64.973  1.00  0.00    -0.324 OA 
ENDBRANCH  20  26
BRANCH  23  30
HETATM   30  C   UNL     1      -9.213  10.930  65.784  1.00  0.00    -0.201 A  
HETATM   31  C   UNL     1      -7.268  10.134  64.500  1.00  0.00    -0.119 A  
HETATM   32  C   UNL     1      -7.851  10.582  65.693  1.00  0.00    -0.150 A  
HETATM   33  C   UNL     1      -5.778  10.232  64.283  1.00  0.00    -0.141 C  
HETATM   34  C   UNL     1      -8.095   9.707  63.473  1.00  0.00    -0.149 A  
HETATM   35  F   UNL     1      -5.129  10.902  65.272  1.00  0.00    -0.103 F  
HETATM   36  F   UNL     1      -5.175   9.018  64.174  1.00  0.00    -0.051 F  
HETATM   37  F   UNL     1      -5.491  10.906  63.133  1.00  0.00    -0.159 F  
HETATM   38  C   UNL     1      -9.464   9.931  63.557  1.00  0.00    -0.140 A  
HETATM   39  C   UNL     1     -10.009  10.644  64.636  1.00  0.00    -0.337 A  
BRANCH  39  40
HETATM   40  O   UNL     1     -11.339  10.992  64.650  1.00  0.00    -0.018 OA 
HETATM   41  C   UNL     1     -11.879  11.602  63.481  1.00  0.00    -0.260 C  
ENDBRANCH  39  40
ENDBRANCH  23  30
ENDBRANCH  12  15
ENDBRANCH   7   9
ENDBRANCH   2   3
TORSDOF 6
ENDMDL
MODEL       65
REMARK 921   NORMALIZED FREE ENERGY PREDICTED BY IDOCK:   -4.82 KCAL/MOL
REMARK 922        TOTAL FREE ENERGY PREDICTED BY IDOCK:   -7.75 KCAL/MOL
REMARK 923 INTER-LIGAND FREE ENERGY PREDICTED BY IDOCK:   -6.20 KCAL/MOL
REMARK 924 INTRA-LIGAND FREE ENERGY PREDICTED BY IDOCK:   -1.55 KCAL/MOL
REMARK 927      BINDING AFFINITY PREDICTED BY RF-SCORE:    0.00 PKD
ROOT
HETATM    1  C   UNL     1      -7.556   2.541  66.868  1.00  0.00    -0.070 C  
HETATM    2  O   UNL     1      -7.342   1.566  67.885  1.00  0.00    -0.045 OA 
ENDROOT
BRANCH   2   3
HETATM    3  C   UNL     1      -7.053   2.028  69.144  1.00  0.00    -0.039 A  
HETATM    4  C   UNL     1      -6.111   1.485  70.008  1.00  0.00    -0.023 A  
HETATM    5  C   UNL     1      -5.945   2.044  71.272  1.00  0.00    -0.014 A  
HETATM    6  C   UNL     1      -6.713   3.150  71.668  1.00  0.00    -0.026 A  
HETATM    7  C   UNL     1      -7.658   3.745  70.820  1.00  0.00    -0.041 A  
HETATM    8  C   UNL     1      -7.805   3.144  69.555  1.00  0.00    -0.054 A  
BRANCH   7   9
HETATM    9  N   UNL     1      -8.395   4.849  71.201  1.00  0.00    -0.111 NA 
HETATM   10  C   UNL     1      -7.789   6.096  71.697  1.00  0.00    -0.102 C  
HETATM   11  C   UNL     1      -8.188   7.273  70.793  1.00  0.00    -0.112 C  
HETATM   12  N   UNL     1      -9.648   7.402  70.577  1.00  0.00    -0.172 NA 
HETATM   13  C   UNL     1     -10.370   6.112  70.356  1.00  0.00    -0.213 C  
HETATM   14  C   UNL     1      -9.865   4.909  71.196  1.00  0.00    -0.192 C  
BRANCH  12  15
HETATM   15  C   UNL     1     -10.310   8.610  70.336  1.00  0.00    -0.200 C  
HETATM   16  N   UNL     1     -11.276   8.910  71.176  1.00  0.00    -0.264 NA 
HETATM   17  C   UNL     1     -11.912  10.166  71.142  1.00  0.00    -0.386 A  
HETATM   18  C   UNL     1     -11.509  11.154  70.260  1.00  0.00    -0.329 A  
HETATM   19  C   UNL     1     -12.063  12.452  70.348  1.00  0.00    -0.381 A  
HETATM   20  C   UNL     1     -10.553  10.805  69.137  1.00  0.00    -0.222 C  
HETATM   21  F   UNL     1     -13.404   9.540  72.896  1.00  0.00    -0.394 F  
HETATM   22  C   UNL     1     -13.083  12.742  71.244  1.00  0.00    -0.245 A  
HETATM   23  N   UNL     1      -9.968   9.424  69.237  1.00  0.00    -0.173 NA 
HETATM   24  C   UNL     1     -12.946  10.472  72.046  1.00  0.00    -0.385 A  
HETATM   25  C   UNL     1     -13.543  11.740  72.083  1.00  0.00    -0.158 A  
BRANCH  20  26
HETATM   26  C   UNL     1     -11.292  11.076  67.801  1.00  0.00    -0.365 C  
HETATM   27  O   UNL     1     -10.490  13.372  67.685  1.00  0.00    -0.236 OA 
HETATM   28  C   UNL     1     -10.878  12.283  67.001  1.00  0.00    -0.250 C  
HETATM   29  O   UNL     1     -10.988  12.306  65.779  1.00  0.00    -0.280 OA 
ENDBRANCH  20  26
BRANCH  23  30
HETATM   30  C   UNL     1      -9.282   8.997  68.038  1.00  0.00    -0.135 A  
HETATM   31  C   UNL     1      -9.093   7.341  66.225  1.00  0.00    -0.186 A  
HETATM   32  C   UNL     1      -9.771   7.886  67.324  1.00  0.00    -0.230 A  
HETATM   33  C   UNL     1      -9.344   5.919  65.789  1.00  0.00     0.006 C  
HETATM   34  C   UNL     1      -8.099   8.091  65.616  1.00  0.00    -0.121 A  
HETATM   35  F   UNL     1     -10.156   5.229  66.633  1.00  0.00    -0.153 F  
HETATM   36  F   UNL     1      -9.904   5.832  64.553  1.00  0.00     0.653 F  
HETATM   37  F   UNL     1      -8.182   5.207  65.733  1.00  0.00    -0.107 F  
HETATM   38  C   UNL     1      -7.648   9.256  66.226  1.00  0.00    -0.096 A  
HETATM   39  C   UNL     1      -8.139   9.644  67.482  1.00  0.00    -0.114 A  
BRANCH  39  40
HETATM   40  O   UNL     1      -7.594  10.714  68.152  1.00  0.00    -0.088 OA 
HETATM   41  C   UNL     1      -7.306  11.890  67.401  1.00  0.00    -0.145 C  
ENDBRANCH  39  40
ENDBRANCH  23  30
ENDBRANCH  12  15
ENDBRANCH   7   9
ENDBRANCH   2   3
TORSDOF 6
ENDMDL
MODEL       66
REMARK 921   NORMALIZED FREE ENERGY PREDICTED BY IDOCK:   -4.79 KCAL/MOL
REMARK 922        TOTAL FREE ENERGY PREDICTED BY IDOCK:   -7.71 KCAL/MOL
REMARK 923 INTER-LIGAND FREE ENERGY PREDICTED BY IDOCK:   -7.69 KCAL/MOL
REMARK 924 INTRA-LIGAND FREE ENERGY PREDICTED BY IDOCK:   -0.02 KCAL/MOL
REMARK 927      BINDING AFFINITY PREDICTED BY RF-SCORE:    0.00 PKD
ROOT
HETATM    1  C   UNL     1      -5.127   8.481  72.778  1.00  0.00    -0.042 C  
HETATM    2  O   UNL     1      -6.151   9.016  73.611  1.00  0.00    -0.261 OA 
ENDROOT
BRANCH   2   3
HETATM    3  C   UNL     1      -7.442   8.642  73.334  1.00  0.00     0.114 A  
HETATM    4  C   UNL     1      -8.298   7.982  74.208  1.00  0.00    -0.285 A  
HETATM    5  C   UNL     1      -9.577   7.641  73.777  1.00  0.00    -0.275 A  
HETATM    6  C   UNL     1     -10.004   7.967  72.481  1.00  0.00    -0.338 A  
HETATM    7  C   UNL     1      -9.182   8.654  71.575  1.00  0.00    -0.246 A  
HETATM    8  C   UNL     1      -7.893   8.971  72.043  1.00  0.00     0.219 A  
BRANCH   7   9
HETATM    9  N   UNL     1      -9.612   8.997  70.309  1.00  0.00    -0.185 NA 
HETATM   10  C   UNL     1     -11.027   8.978  69.900  1.00  0.00    -0.193 C  
HETATM   11  C   UNL     1     -11.464  10.377  69.442  1.00  0.00    -0.227 C  
HETATM   12  N   UNL     1     -10.587  10.978  68.410  1.00  0.00    -0.182 NA 
HETATM   13  C   UNL     1      -9.123  10.770  68.627  1.00  0.00    -0.173 C  
HETATM   14  C   UNL     1      -8.720   9.387  69.206  1.00  0.00    -0.145 C  
BRANCH  12  15
HETATM   15  C   UNL     1     -11.015  11.885  67.435  1.00  0.00    -0.263 C  
HETATM   16  N   UNL     1     -10.912  11.477  66.190  1.00  0.00    -0.286 NA 
HETATM   17  C   UNL     1     -11.453  12.226  65.128  1.00  0.00    -0.341 A  
HETATM   18  C   UNL     1     -12.163  13.392  65.356  1.00  0.00    -0.492 A  
HETATM   19  C   UNL     1     -12.822  14.043  64.287  1.00  0.00     0.231 A  
HETATM   20  C   UNL     1     -12.138  14.020  66.735  1.00  0.00    -0.447 C  
HETATM   21  F   UNL     1     -10.622  10.676  63.515  1.00  0.00    -0.354 F  
HETATM   22  C   UNL     1     -12.695  13.592  62.980  1.00  0.00     0.729 A  
HETATM   23  N   UNL     1     -11.493  13.164  67.788  1.00  0.00    -0.293 NA 
HETATM   24  C   UNL     1     -11.333  11.778  63.798  1.00  0.00    -0.438 A  
HETATM   25  C   UNL     1     -11.928  12.464  62.731  1.00  0.00     0.542 A  
BRANCH  20  26
HETATM   26  C   UNL     1     -11.495  15.424  66.591  1.00  0.00    -0.019 C  
HETATM   27  O   UNL     1      -9.706  14.589  65.165  1.00  0.00    -0.202 OA 
HETATM   28  C   UNL     1     -10.496  15.629  65.482  1.00  0.00    -0.404 C  
HETATM   29  O   UNL     1     -10.338  16.729  64.962  1.00  0.00    -0.631 OA 
ENDBRANCH  20  26
BRANCH  23  30
HETATM   30  C   UNL     1     -11.226  13.865  69.023  1.00  0.00    -0.274 A  
HETATM   31  C   UNL     1     -12.031  14.541  71.250  1.00  0.00    -0.396 A  
HETATM   32  C   UNL     1     -12.163  13.793  70.072  1.00  0.00    -0.407 A  
HETATM   33  C   UNL     1     -13.229  14.830  72.121  1.00  0.00    -0.361 C  
HETATM   34  C   UNL     1     -10.803  15.113  71.543  1.00  0.00     0.084 A  
HETATM   35  F   UNL     1     -14.405  14.420  71.577  1.00  0.00    -0.454 F  
HETATM   36  F   UNL     1     -13.146  14.252  73.349  1.00  0.00    -0.592 F  
HETATM   37  F   UNL     1     -13.370  16.169  72.337  1.00  0.00    -0.503 F  
HETATM   38  C   UNL     1      -9.803  15.121  70.578  1.00  0.00     0.533 A  
HETATM   39  C   UNL     1     -10.045  14.618  69.290  1.00  0.00    -0.115 A  
BRANCH  39  40
HETATM   40  O   UNL     1      -9.108  14.755  68.293  1.00  0.00    -0.171 OA 
HETATM   41  C   UNL     1      -7.947  13.930  68.356  1.00  0.00    -0.144 C  
ENDBRANCH  39  40
ENDBRANCH  23  30
ENDBRANCH  12  15
ENDBRANCH   7   9
ENDBRANCH   2   3
TORSDOF 6
ENDMDL
MODEL       67
REMARK 921   NORMALIZED FREE ENERGY PREDICTED BY IDOCK:   -4.71 KCAL/MOL
REMARK 922        TOTAL FREE ENERGY PREDICTED BY IDOCK:   -7.60 KCAL/MOL
REMARK 923 INTER-LIGAND FREE ENERGY PREDICTED BY IDOCK:   -7.16 KCAL/MOL
REMARK 924 INTRA-LIGAND FREE ENERGY PREDICTED BY IDOCK:   -0.44 KCAL/MOL
REMARK 927      BINDING AFFINITY PREDICTED BY RF-SCORE:    0.00 PKD
ROOT
HETATM    1  C   UNL     1      -6.557   1.759  71.627  1.00  0.00    -0.019 C  
HETATM    2  O   UNL     1      -6.566   3.097  72.117  1.00  0.00    -0.014 OA 
ENDROOT
BRANCH   2   3
HETATM    3  C   UNL     1      -7.697   3.517  72.769  1.00  0.00    -0.061 A  
HETATM    4  C   UNL     1      -8.514   2.724  73.565  1.00  0.00    -0.072 A  
HETATM    5  C   UNL     1      -9.649   3.284  74.145  1.00  0.00    -0.125 A  
HETATM    6  C   UNL     1      -9.963   4.636  73.936  1.00  0.00    -0.195 A  
HETATM    7  C   UNL     1      -9.154   5.479  73.160  1.00  0.00    -0.126 A  
HETATM    8  C   UNL     1      -8.022   4.873  72.583  1.00  0.00    -0.094 A  
BRANCH   7   9
HETATM    9  N   UNL     1      -9.450   6.815  72.977  1.00  0.00    -0.138 NA 
HETATM   10  C   UNL     1      -8.459   7.813  72.542  1.00  0.00    -0.131 C  
HETATM   11  C   UNL     1      -8.909   8.467  71.227  1.00  0.00    -0.167 C  
HETATM   12  N   UNL     1     -10.285   9.017  71.265  1.00  0.00    -0.286 NA 
HETATM   13  C   UNL     1     -11.288   8.160  71.966  1.00  0.00    -0.316 C  
HETATM   14  C   UNL     1     -10.771   7.414  73.225  1.00  0.00    -0.391 C  
BRANCH  12  15
HETATM   15  C   UNL     1     -10.722  10.112  70.512  1.00  0.00    -0.227 C  
HETATM   16  N   UNL     1     -11.578  10.911  71.108  1.00  0.00     0.029 NA 
HETATM   17  C   UNL     1     -11.971  12.129  70.522  1.00  0.00    -0.216 A  
HETATM   18  C   UNL     1     -11.431  12.561  69.323  1.00  0.00    -0.353 A  
HETATM   19  C   UNL     1     -11.731  13.853  68.834  1.00  0.00    -0.373 A  
HETATM   20  C   UNL     1     -10.606  11.600  68.491  1.00  0.00    -0.215 C  
HETATM   21  F   UNL     1     -13.477  12.589  72.316  1.00  0.00    -0.592 F  
HETATM   22  C   UNL     1     -12.640  14.677  69.483  1.00  0.00    -0.039 A  
HETATM   23  N   UNL     1     -10.283  10.307  69.186  1.00  0.00    -0.205 NA 
HETATM   24  C   UNL     1     -12.892  12.974  71.172  1.00  0.00    -0.245 A  
HETATM   25  C   UNL     1     -13.241  14.226  70.648  1.00  0.00    -0.172 A  
BRANCH  20  26
HETATM   26  C   UNL     1     -11.339  11.416  67.137  1.00  0.00    -0.327 C  
HETATM   27  O   UNL     1      -9.798  12.893  65.965  1.00  0.00    -0.267 OA 
HETATM   28  C   UNL     1     -10.614  11.828  65.883  1.00  0.00    -0.271 C  
HETATM   29  O   UNL     1     -10.836  11.281  64.808  1.00  0.00    -0.302 OA 
ENDBRANCH  20  26
BRANCH  23  30
HETATM   30  C   UNL     1      -9.740   9.296  68.307  1.00  0.00    -0.150 A  
HETATM   31  C   UNL     1      -8.086   8.707  66.580  1.00  0.00    -0.100 A  
HETATM   32  C   UNL     1      -8.596   9.592  67.541  1.00  0.00    -0.126 A  
HETATM   33  C   UNL     1      -7.202   9.204  65.463  1.00  0.00    -0.082 C  
HETATM   34  C   UNL     1      -8.502   7.385  66.604  1.00  0.00    -0.124 A  
HETATM   35  F   UNL     1      -7.087  10.558  65.425  1.00  0.00    -0.133 F  
HETATM   36  F   UNL     1      -5.937   8.708  65.524  1.00  0.00    -0.046 F  
HETATM   37  F   UNL     1      -7.696   8.842  64.245  1.00  0.00    -0.103 F  
HETATM   38  C   UNL     1      -9.562   7.014  67.422  1.00  0.00    -0.164 A  
HETATM   39  C   UNL     1     -10.259   7.974  68.173  1.00  0.00    -0.207 A  
BRANCH  39  40
HETATM   40  O   UNL     1     -11.395   7.635  68.869  1.00  0.00     0.259 OA 
HETATM   41  C   UNL     1     -11.498   6.302  69.361  1.00  0.00    -0.278 C  
ENDBRANCH  39  40
ENDBRANCH  23  30
ENDBRANCH  12  15
ENDBRANCH   7   9
ENDBRANCH   2   3
TORSDOF 6
ENDMDL
MODEL       68
REMARK 921   NORMALIZED FREE ENERGY PREDICTED BY IDOCK:   -4.70 KCAL/MOL
REMARK 922        TOTAL FREE ENERGY PREDICTED BY IDOCK:   -7.58 KCAL/MOL
REMARK 923 INTER-LIGAND FREE ENERGY PREDICTED BY IDOCK:   -7.22 KCAL/MOL
REMARK 924 INTRA-LIGAND FREE ENERGY PREDICTED BY IDOCK:   -0.36 KCAL/MOL
REMARK 927      BINDING AFFINITY PREDICTED BY RF-SCORE:    0.00 PKD
ROOT
HETATM    1  C   UNL     1      -9.604  15.418  66.101  1.00  0.00    -0.329 C  
HETATM    2  O   UNL     1     -10.507  15.206  65.021  1.00  0.00    -0.398 OA 
ENDROOT
BRANCH   2   3
HETATM    3  C   UNL     1     -10.841  13.908  64.730  1.00  0.00    -0.419 A  
HETATM    4  C   UNL     1     -11.782  13.506  63.789  1.00  0.00    -0.367 A  
HETATM    5  C   UNL     1     -12.037  12.148  63.620  1.00  0.00    -0.648 A  
HETATM    6  C   UNL     1     -11.348  11.193  64.383  1.00  0.00     0.055 A  
HETATM    7  C   UNL     1     -10.373  11.552  65.326  1.00  0.00    -0.272 A  
HETATM    8  C   UNL     1     -10.152  12.934  65.476  1.00  0.00    -0.270 A  
BRANCH   7   9
HETATM    9  N   UNL     1      -9.677  10.610  66.057  1.00  0.00    -0.199 NA 
HETATM   10  C   UNL     1      -9.391  10.749  67.495  1.00  0.00    -0.147 C  
HETATM   11  C   UNL     1     -10.004   9.575  68.272  1.00  0.00    -0.161 C  
HETATM   12  N   UNL     1      -9.629   8.240  67.749  1.00  0.00    -0.145 NA 
HETATM   13  C   UNL     1      -9.620   8.127  66.259  1.00  0.00    -0.178 C  
HETATM   14  C   UNL     1      -9.108   9.376  65.494  1.00  0.00    -0.218 C  
BRANCH  12  15
HETATM   15  C   UNL     1      -9.528   7.083  68.527  1.00  0.00    -0.134 C  
HETATM   16  N   UNL     1      -9.620   7.257  69.826  1.00  0.00    -0.163 NA 
HETATM   17  C   UNL     1      -9.694   6.162  70.708  1.00  0.00    -0.177 A  
HETATM   18  C   UNL     1      -9.729   4.860  70.239  1.00  0.00    -0.287 A  
HETATM   19  C   UNL     1      -9.954   3.789  71.135  1.00  0.00    -0.144 A  
HETATM   20  C   UNL     1      -9.419   4.586  68.782  1.00  0.00    -0.157 C  
HETATM   21  F   UNL     1      -9.721   7.603  72.611  1.00  0.00    -0.183 F  
HETATM   22  C   UNL     1     -10.047   4.001  72.504  1.00  0.00    -0.232 A  
HETATM   23  N   UNL     1      -9.308   5.822  67.935  1.00  0.00    -0.105 NA 
HETATM   24  C   UNL     1      -9.790   6.364  72.098  1.00  0.00    -0.158 A  
HETATM   25  C   UNL     1      -9.942   5.295  72.991  1.00  0.00    -0.188 A  
BRANCH  20  26
HETATM   26  C   UNL     1      -8.157   3.685  68.741  1.00  0.00    -0.073 C  
HETATM   27  O   UNL     1      -9.408   1.766  67.913  1.00  0.00    -0.166 OA 
HETATM   28  C   UNL     1      -8.229   2.410  67.941  1.00  0.00    -0.063 C  
HETATM   29  O   UNL     1      -7.228   1.927  67.422  1.00  0.00    -0.052 OA 
ENDBRANCH  20  26
BRANCH  23  30
HETATM   30  C   UNL     1      -8.749   5.579  66.624  1.00  0.00    -0.116 A  
HETATM   31  C   UNL     1      -9.064   4.655  64.363  1.00  0.00    -0.122 A  
HETATM   32  C   UNL     1      -9.566   5.030  65.618  1.00  0.00    -0.138 A  
HETATM   33  C   UNL     1      -9.798   3.656  63.504  1.00  0.00    -0.159 C  
HETATM   34  C   UNL     1      -7.821   5.130  63.974  1.00  0.00    -0.094 A  
HETATM   35  F   UNL     1     -10.867   3.090  64.124  1.00  0.00    -0.160 F  
HETATM   36  F   UNL     1     -10.260   4.190  62.342  1.00  0.00    -0.153 F  
HETATM   37  F   UNL     1      -8.986   2.619  63.151  1.00  0.00    -0.087 F  
HETATM   38  C   UNL     1      -7.012   5.774  64.902  1.00  0.00    -0.052 A  
HETATM   39  C   UNL     1      -7.410   5.891  66.243  1.00  0.00    -0.081 A  
BRANCH  39  40
HETATM   40  O   UNL     1      -6.553   6.398  67.190  1.00  0.00    -0.054 OA 
HETATM   41  C   UNL     1      -5.560   7.325  66.758  1.00  0.00    -0.023 C  
ENDBRANCH  39  40
ENDBRANCH  23  30
ENDBRANCH  12  15
ENDBRANCH   7   9
ENDBRANCH   2   3
TORSDOF 6
ENDMDL
MODEL       69
REMARK 921   NORMALIZED FREE ENERGY PREDICTED BY IDOCK:   -4.68 KCAL/MOL
REMARK 922        TOTAL FREE ENERGY PREDICTED BY IDOCK:   -7.56 KCAL/MOL
REMARK 923 INTER-LIGAND FREE ENERGY PREDICTED BY IDOCK:   -6.34 KCAL/MOL
REMARK 924 INTRA-LIGAND FREE ENERGY PREDICTED BY IDOCK:   -1.22 KCAL/MOL
REMARK 927      BINDING AFFINITY PREDICTED BY RF-SCORE:    0.00 PKD
ROOT
HETATM    1  C   UNL     1      -9.863  14.232  66.526  1.00  0.00    -0.288 C  
HETATM    2  O   UNL     1     -10.774  14.699  67.516  1.00  0.00    -0.261 OA 
ENDROOT
BRANCH   2   3
HETATM    3  C   UNL     1     -11.158  13.807  68.485  1.00  0.00    -0.267 A  
HETATM    4  C   UNL     1     -12.054  14.067  69.515  1.00  0.00    -0.397 A  
HETATM    5  C   UNL     1     -12.328  13.068  70.445  1.00  0.00    -0.351 A  
HETATM    6  C   UNL     1     -11.716  11.809  70.342  1.00  0.00    -0.253 A  
HETATM    7  C   UNL     1     -10.824  11.496  69.305  1.00  0.00    -0.167 A  
HETATM    8  C   UNL     1     -10.564  12.535  68.392  1.00  0.00    -0.256 A  
BRANCH   7   9
HETATM    9  N   UNL     1     -10.242  10.249  69.190  1.00  0.00    -0.205 NA 
HETATM   10  C   UNL     1      -9.003   9.865  69.886  1.00  0.00    -0.202 C  
HETATM   11  C   UNL     1      -9.262   8.659  70.801  1.00  0.00    -0.185 C  
HETATM   12  N   UNL     1      -9.906   7.511  70.121  1.00  0.00    -0.180 NA 
HETATM   13  C   UNL     1     -10.995   7.874  69.165  1.00  0.00     0.065 C  
HETATM   14  C   UNL     1     -10.760   9.167  68.339  1.00  0.00    -0.115 C  
BRANCH  12  15
HETATM   15  C   UNL     1      -9.729   6.172  70.486  1.00  0.00    -0.173 C  
HETATM   16  N   UNL     1     -10.099   5.858  71.707  1.00  0.00    -0.184 NA 
HETATM   17  C   UNL     1     -10.122   4.520  72.143  1.00  0.00    -0.195 A  
HETATM   18  C   UNL     1      -9.810   3.477  71.288  1.00  0.00    -0.205 A  
HETATM   19  C   UNL     1      -9.986   2.138  71.707  1.00  0.00    -0.209 A  
HETATM   20  C   UNL     1      -9.181   3.781  69.943  1.00  0.00    -0.148 C  
HETATM   21  F   UNL     1     -10.793   5.171  74.339  1.00  0.00    -0.309 F  
HETATM   22  C   UNL     1     -10.377   1.834  73.004  1.00  0.00    -0.203 A  
HETATM   23  N   UNL     1      -9.157   5.242  69.593  1.00  0.00    -0.113 NA 
HETATM   24  C   UNL     1     -10.519   4.199  73.455  1.00  0.00    -0.184 A  
HETATM   25  C   UNL     1     -10.624   2.871  73.890  1.00  0.00    -0.261 A  
BRANCH  20  26
HETATM   26  C   UNL     1      -7.782   3.111  69.927  1.00  0.00    -0.044 C  
HETATM   27  O   UNL     1      -6.981   4.466  71.785  1.00  0.00    -0.036 OA 
HETATM   28  C   UNL     1      -6.902   3.292  71.136  1.00  0.00    -0.032 C  
HETATM   29  O   UNL     1      -6.075   2.444  71.455  1.00  0.00    -0.013 OA 
ENDBRANCH  20  26
BRANCH  23  30
HETATM   30  C   UNL     1      -8.322   5.553  68.454  1.00  0.00    -0.098 A  
HETATM   31  C   UNL     1      -8.024   5.487  66.011  1.00  0.00    -0.106 A  
HETATM   32  C   UNL     1      -8.816   5.325  67.156  1.00  0.00    -0.109 A  
HETATM   33  C   UNL     1      -8.383   4.798  64.718  1.00  0.00    -0.132 C  
HETATM   34  C   UNL     1      -6.837   6.197  66.117  1.00  0.00    -0.061 A  
HETATM   35  F   UNL     1      -9.428   3.938  64.834  1.00  0.00    -0.132 F  
HETATM   36  F   UNL     1      -8.704   5.668  63.723  1.00  0.00    -0.093 F  
HETATM   37  F   UNL     1      -7.342   4.051  64.251  1.00  0.00    -0.060 F  
HETATM   38  C   UNL     1      -6.353   6.540  67.373  1.00  0.00    -0.037 A  
HETATM   39  C   UNL     1      -7.015   6.118  68.537  1.00  0.00    -0.076 A  
BRANCH  39  40
HETATM   40  O   UNL     1      -6.463   6.332  69.777  1.00  0.00    -0.039 OA 
HETATM   41  C   UNL     1      -5.689   7.514  69.965  1.00  0.00    -0.024 C  
ENDBRANCH  39  40
ENDBRANCH  23  30
ENDBRANCH  12  15
ENDBRANCH   7   9
ENDBRANCH   2   3
TORSDOF 6
ENDMDL
MODEL       70
REMARK 921   NORMALIZED FREE ENERGY PREDICTED BY IDOCK:   -4.57 KCAL/MOL
REMARK 922        TOTAL FREE ENERGY PREDICTED BY IDOCK:   -7.41 KCAL/MOL
REMARK 923 INTER-LIGAND FREE ENERGY PREDICTED BY IDOCK:   -5.71 KCAL/MOL
REMARK 924 INTRA-LIGAND FREE ENERGY PREDICTED BY IDOCK:   -1.70 KCAL/MOL
REMARK 927      BINDING AFFINITY PREDICTED BY RF-SCORE:    0.00 PKD
ROOT
HETATM    1  C   UNL     1      -8.087   4.287  70.755  1.00  0.00    -0.067 C  
HETATM    2  O   UNL     1      -8.093   4.570  72.150  1.00  0.00    -0.096 OA 
ENDROOT
BRANCH   2   3
HETATM    3  C   UNL     1      -7.645   5.807  72.540  1.00  0.00    -0.101 A  
HETATM    4  C   UNL     1      -6.872   6.069  73.664  1.00  0.00    -0.080 A  
HETATM    5  C   UNL     1      -6.513   7.384  73.951  1.00  0.00    -0.076 A  
HETATM    6  C   UNL     1      -6.918   8.433  73.111  1.00  0.00    -0.111 A  
HETATM    7  C   UNL     1      -7.679   8.211  71.954  1.00  0.00    -0.106 A  
HETATM    8  C   UNL     1      -8.031   6.871  71.705  1.00  0.00    -0.101 A  
BRANCH   7   9
HETATM    9  N   UNL     1      -8.055   9.241  71.115  1.00  0.00    -0.327 NA 
HETATM   10  C   UNL     1      -7.095  10.068  70.366  1.00  0.00    -0.122 C  
HETATM   11  C   UNL     1      -7.362   9.953  68.858  1.00  0.00    -0.078 C  
HETATM   12  N   UNL     1      -8.765  10.226  68.468  1.00  0.00    -0.125 NA 
HETATM   13  C   UNL     1      -9.797   9.642  69.378  1.00  0.00    -0.193 C  
HETATM   14  C   UNL     1      -9.446   9.662  70.890  1.00  0.00     0.028 C  
BRANCH  12  15
HETATM   15  C   UNL     1      -9.157  10.758  67.236  1.00  0.00    -0.144 C  
HETATM   16  N   UNL     1      -8.887  10.021  66.182  1.00  0.00    -0.145 NA 
HETATM   17  C   UNL     1      -9.369  10.365  64.905  1.00  0.00    -0.243 A  
HETATM   18  C   UNL     1     -10.192  11.462  64.716  1.00  0.00    -0.338 A  
HETATM   19  C   UNL     1     -10.781  11.698  63.453  1.00  0.00    -0.460 A  
HETATM   20  C   UNL     1     -10.368  12.462  65.841  1.00  0.00    -0.257 C  
HETATM   21  F   UNL     1      -8.244   8.514  63.901  1.00  0.00    -0.146 F  
HETATM   22  C   UNL     1     -10.478  10.904  62.355  1.00  0.00     0.805 A  
HETATM   23  N   UNL     1      -9.774  12.024  67.150  1.00  0.00    -0.195 NA 
HETATM   24  C   UNL     1      -9.069   9.566  63.785  1.00  0.00    -0.109 A  
HETATM   25  C   UNL     1      -9.599   9.844  62.517  1.00  0.00    -0.024 A  
BRANCH  20  26
HETATM   26  C   UNL     1      -9.830  13.825  65.335  1.00  0.00    -0.171 C  
HETATM   27  O   UNL     1     -12.066  14.678  64.887  1.00  0.00    -0.401 OA 
HETATM   28  C   UNL     1     -10.802  14.972  65.234  1.00  0.00    -0.386 C  
HETATM   29  O   UNL     1     -10.432  16.134  65.362  1.00  0.00    -0.426 OA 
ENDBRANCH  20  26
BRANCH  23  30
HETATM   30  C   UNL     1      -9.700  13.079  68.136  1.00  0.00    -0.228 A  
HETATM   31  C   UNL     1      -8.418  14.952  69.090  1.00  0.00    -0.152 A  
HETATM   32  C   UNL     1      -8.621  13.982  68.099  1.00  0.00    -0.181 A  
HETATM   33  C   UNL     1      -7.056  15.562  69.308  1.00  0.00    -0.186 C  
HETATM   34  C   UNL     1      -9.464  15.257  69.947  1.00  0.00    -0.020 A  
HETATM   35  F   UNL     1      -6.077  14.983  68.563  1.00  0.00    -0.084 F  
HETATM   36  F   UNL     1      -7.018  16.893  69.032  1.00  0.00    -0.177 F  
HETATM   37  F   UNL     1      -6.657  15.429  70.605  1.00  0.00    -0.018 F  
HETATM   38  C   UNL     1     -10.601  14.459  69.954  1.00  0.00     0.133 A  
HETATM   39  C   UNL     1     -10.675  13.309  69.152  1.00  0.00    -0.047 A  
BRANCH  39  40
HETATM   40  O   UNL     1     -11.735  12.441  69.261  1.00  0.00    -0.295 OA 
HETATM   41  C   UNL     1     -12.365  12.320  70.534  1.00  0.00    -0.264 C  
ENDBRANCH  39  40
ENDBRANCH  23  30
ENDBRANCH  12  15
ENDBRANCH   7   9
ENDBRANCH   2   3
TORSDOF 6
ENDMDL
MODEL       71
REMARK 921   NORMALIZED FREE ENERGY PREDICTED BY IDOCK:   -4.55 KCAL/MOL
REMARK 922        TOTAL FREE ENERGY PREDICTED BY IDOCK:   -7.39 KCAL/MOL
REMARK 923 INTER-LIGAND FREE ENERGY PREDICTED BY IDOCK:   -7.30 KCAL/MOL
REMARK 924 INTRA-LIGAND FREE ENERGY PREDICTED BY IDOCK:   -0.09 KCAL/MOL
REMARK 927      BINDING AFFINITY PREDICTED BY RF-SCORE:    0.00 PKD
ROOT
HETATM    1  C   UNL     1      -8.285   5.664  68.019  1.00  0.00    -0.100 C  
HETATM    2  O   UNL     1      -8.533   5.137  66.719  1.00  0.00    -0.108 OA 
ENDROOT
BRANCH   2   3
HETATM    3  C   UNL     1      -8.099   5.880  65.650  1.00  0.00    -0.124 A  
HETATM    4  C   UNL     1      -7.397   5.390  64.556  1.00  0.00    -0.063 A  
HETATM    5  C   UNL     1      -6.997   6.270  63.555  1.00  0.00    -0.046 A  
HETATM    6  C   UNL     1      -7.307   7.636  63.641  1.00  0.00    -0.093 A  
HETATM    7  C   UNL     1      -8.035   8.170  64.715  1.00  0.00    -0.147 A  
HETATM    8  C   UNL     1      -8.411   7.250  65.712  1.00  0.00    -0.140 A  
BRANCH   7   9
HETATM    9  N   UNL     1      -8.361   9.510  64.786  1.00  0.00    -0.140 NA 
HETATM   10  C   UNL     1      -9.721  10.027  64.557  1.00  0.00    -0.239 C  
HETATM   11  C   UNL     1     -10.221  10.770  65.805  1.00  0.00    -0.257 C  
HETATM   12  N   UNL     1      -9.295  11.817  66.298  1.00  0.00    -0.222 NA 
HETATM   13  C   UNL     1      -7.849  11.441  66.276  1.00  0.00    -0.015 C  
HETATM   14  C   UNL     1      -7.397  10.586  65.062  1.00  0.00    -0.003 C  
BRANCH  12  15
HETATM   15  C   UNL     1      -9.695  12.975  66.973  1.00  0.00    -0.235 C  
HETATM   16  N   UNL     1      -9.277  14.110  66.458  1.00  0.00    -0.255 NA 
HETATM   17  C   UNL     1      -9.738  15.347  66.946  1.00  0.00    -0.231 A  
HETATM   18  C   UNL     1     -10.690  15.418  67.948  1.00  0.00    -0.286 A  
HETATM   19  C   UNL     1     -11.244  16.667  68.314  1.00  0.00    -0.220 A  
HETATM   20  C   UNL     1     -11.053  14.165  68.719  1.00  0.00    -0.262 C  
HETATM   21  F   UNL     1      -8.328  16.548  65.440  1.00  0.00     0.115 F  
HETATM   22  C   UNL     1     -10.783  17.852  67.755  1.00  0.00    -0.339 A  
HETATM   23  N   UNL     1     -10.470  12.903  68.149  1.00  0.00    -0.230 NA 
HETATM   24  C   UNL     1      -9.280  16.555  66.386  1.00  0.00    -0.295 A  
HETATM   25  C   UNL     1      -9.780  17.797  66.801  1.00  0.00    -0.309 A  
BRANCH  20  26
HETATM   26  C   UNL     1     -10.678  14.412  70.203  1.00  0.00     0.203 C  
HETATM   27  O   UNL     1     -12.837  15.420  70.706  1.00  0.00    -0.430 OA 
HETATM   28  C   UNL     1     -11.794  14.712  71.170  1.00  0.00    -0.323 C  
HETATM   29  O   UNL     1     -11.707  14.413  72.356  1.00  0.00     0.066 OA 
ENDBRANCH  20  26
BRANCH  23  30
HETATM   30  C   UNL     1     -10.587  11.761  69.027  1.00  0.00    -0.136 A  
HETATM   31  C   UNL     1     -12.020  10.404  70.500  1.00  0.00    -0.427 A  
HETATM   32  C   UNL     1     -11.849  11.420  69.550  1.00  0.00    -0.426 A  
HETATM   33  C   UNL     1     -13.239  10.372  71.387  1.00  0.00    -0.364 C  
HETATM   34  C   UNL     1     -10.993   9.493  70.693  1.00  0.00    -0.370 A  
HETATM   35  F   UNL     1     -14.033  11.467  71.257  1.00  0.00     0.385 F  
HETATM   36  F   UNL     1     -14.031   9.289  71.166  1.00  0.00    -0.410 F  
HETATM   37  F   UNL     1     -12.889  10.327  72.705  1.00  0.00    -0.301 F  
HETATM   38  C   UNL     1      -9.752   9.726  70.114  1.00  0.00    -0.299 A  
HETATM   39  C   UNL     1      -9.506  10.905  69.393  1.00  0.00     0.063 A  
BRANCH  39  40
HETATM   40  O   UNL     1      -8.242  11.205  68.943  1.00  0.00    -0.145 OA 
HETATM   41  C   UNL     1      -7.136  10.670  69.665  1.00  0.00    -0.143 C  
ENDBRANCH  39  40
ENDBRANCH  23  30
ENDBRANCH  12  15
ENDBRANCH   7   9
ENDBRANCH   2   3
TORSDOF 6
ENDMDL
MODEL       72
REMARK 921   NORMALIZED FREE ENERGY PREDICTED BY IDOCK:   -4.54 KCAL/MOL
REMARK 922        TOTAL FREE ENERGY PREDICTED BY IDOCK:   -7.36 KCAL/MOL
REMARK 923 INTER-LIGAND FREE ENERGY PREDICTED BY IDOCK:   -7.25 KCAL/MOL
REMARK 924 INTRA-LIGAND FREE ENERGY PREDICTED BY IDOCK:   -0.11 KCAL/MOL
REMARK 927      BINDING AFFINITY PREDICTED BY RF-SCORE:    0.00 PKD
ROOT
HETATM    1  C   UNL     1     -13.245   7.268  71.384  1.00  0.00    -0.346 C  
HETATM    2  O   UNL     1     -12.474   6.166  71.852  1.00  0.00    -0.206 OA 
ENDROOT
BRANCH   2   3
HETATM    3  C   UNL     1     -11.234   5.987  71.292  1.00  0.00    -0.258 A  
HETATM    4  C   UNL     1     -10.431   4.864  71.447  1.00  0.00    -0.170 A  
HETATM    5  C   UNL     1      -9.179   4.834  70.839  1.00  0.00    -0.194 A  
HETATM    6  C   UNL     1      -8.734   5.920  70.070  1.00  0.00    -0.133 A  
HETATM    7  C   UNL     1      -9.521   7.063  69.866  1.00  0.00    -0.157 A  
HETATM    8  C   UNL     1     -10.775   7.060  70.507  1.00  0.00    -0.262 A  
BRANCH   7   9
HETATM    9  N   UNL     1      -9.093   8.119  69.088  1.00  0.00    -0.148 NA 
HETATM   10  C   UNL     1     -10.007   9.094  68.470  1.00  0.00    -0.174 C  
HETATM   11  C   UNL     1      -9.684  10.511  68.968  1.00  0.00    -0.210 C  
HETATM   12  N   UNL     1      -8.262  10.897  68.816  1.00  0.00    -0.144 NA 
HETATM   13  C   UNL     1      -7.277   9.826  69.158  1.00  0.00    -0.073 C  
HETATM   14  C   UNL     1      -7.686   8.385  68.750  1.00  0.00    -0.102 C  
BRANCH  12  15
HETATM   15  C   UNL     1      -7.812  12.207  68.620  1.00  0.00    -0.078 C  
HETATM   16  N   UNL     1      -7.260  12.785  69.663  1.00  0.00     0.374 NA 
HETATM   17  C   UNL     1      -6.626  14.037  69.555  1.00  0.00    -0.115 A  
HETATM   18  C   UNL     1      -6.508  14.683  68.337  1.00  0.00    -0.104 A  
HETATM   19  C   UNL     1      -5.738  15.865  68.231  1.00  0.00    -0.113 A  
HETATM   20  C   UNL     1      -7.296  14.176  67.146  1.00  0.00     0.167 C  
HETATM   21  F   UNL     1      -6.160  14.084  71.895  1.00  0.00    -0.250 F  
HETATM   22  C   UNL     1      -5.167  16.456  69.350  1.00  0.00    -0.129 A  
HETATM   23  N   UNL     1      -7.979  12.857  67.380  1.00  0.00    -0.177 NA 
HETATM   24  C   UNL     1      -6.042  14.646  70.682  1.00  0.00    -0.148 A  
HETATM   25  C   UNL     1      -5.338  15.854  70.587  1.00  0.00    -0.152 A  
BRANCH  20  26
HETATM   26  C   UNL     1      -8.261  15.311  66.713  1.00  0.00    -0.215 C  
HETATM   27  O   UNL     1      -9.379  15.347  68.876  1.00  0.00    -0.191 OA 
HETATM   28  C   UNL     1      -9.006  16.050  67.793  1.00  0.00    -0.188 C  
HETATM   29  O   UNL     1      -9.347  17.219  67.646  1.00  0.00    -0.234 OA 
ENDBRANCH  20  26
BRANCH  23  30
HETATM   30  C   UNL     1      -8.941  12.513  66.357  1.00  0.00    -0.073 A  
HETATM   31  C   UNL     1     -11.057  13.054  65.220  1.00  0.00    -0.311 A  
HETATM   32  C   UNL     1     -10.023  13.379  66.109  1.00  0.00    -0.299 A  
HETATM   33  C   UNL     1     -12.404  13.727  65.323  1.00  0.00    -0.464 C  
HETATM   34  C   UNL     1     -10.862  12.020  64.319  1.00  0.00    -0.389 A  
HETATM   35  F   UNL     1     -12.526  14.533  66.410  1.00  0.00    -0.420 F  
HETATM   36  F   UNL     1     -12.703  14.489  64.237  1.00  0.00    -0.422 F  
HETATM   37  F   UNL     1     -13.406  12.808  65.432  1.00  0.00    -0.144 F  
HETATM   38  C   UNL     1      -9.752  11.194  64.453  1.00  0.00    -0.312 A  
HETATM   39  C   UNL     1      -8.866  11.353  65.530  1.00  0.00    -0.030 A  
BRANCH  39  40
HETATM   40  O   UNL     1      -7.851  10.451  65.746  1.00  0.00    -0.140 OA 
HETATM   41  C   UNL     1      -7.964   9.166  65.138  1.00  0.00    -0.117 C  
ENDBRANCH  39  40
ENDBRANCH  23  30
ENDBRANCH  12  15
ENDBRANCH   7   9
ENDBRANCH   2   3
TORSDOF 6
ENDMDL
MODEL       73
REMARK 921   NORMALIZED FREE ENERGY PREDICTED BY IDOCK:   -4.52 KCAL/MOL
REMARK 922        TOTAL FREE ENERGY PREDICTED BY IDOCK:   -7.34 KCAL/MOL
REMARK 923 INTER-LIGAND FREE ENERGY PREDICTED BY IDOCK:   -5.44 KCAL/MOL
REMARK 924 INTRA-LIGAND FREE ENERGY PREDICTED BY IDOCK:   -1.90 KCAL/MOL
REMARK 927      BINDING AFFINITY PREDICTED BY RF-SCORE:    0.00 PKD
ROOT
HETATM    1  C   UNL     1      -9.103  16.408  66.697  1.00  0.00    -0.250 C  
HETATM    2  O   UNL     1      -8.028  17.002  67.418  1.00  0.00    -0.172 OA 
ENDROOT
BRANCH   2   3
HETATM    3  C   UNL     1      -7.286  16.179  68.227  1.00  0.00    -0.140 A  
HETATM    4  C   UNL     1      -6.759  16.523  69.466  1.00  0.00    -0.198 A  
HETATM    5  C   UNL     1      -6.000  15.588  70.166  1.00  0.00    -0.137 A  
HETATM    6  C   UNL     1      -5.776  14.310  69.633  1.00  0.00    -0.100 A  
HETATM    7  C   UNL     1      -6.309  13.911  68.398  1.00  0.00    -0.104 A  
HETATM    8  C   UNL     1      -7.061  14.888  67.716  1.00  0.00    -0.192 A  
BRANCH   7   9
HETATM    9  N   UNL     1      -6.109  12.644  67.887  1.00  0.00    -0.093 NA 
HETATM   10  C   UNL     1      -5.226  11.647  68.514  1.00  0.00    -0.042 C  
HETATM   11  C   UNL     1      -6.026  10.389  68.881  1.00  0.00    -0.040 C  
HETATM   12  N   UNL     1      -6.810   9.821  67.760  1.00  0.00    -0.080 NA 
HETATM   13  C   UNL     1      -7.503  10.828  66.901  1.00  0.00    -0.120 C  
HETATM   14  C   UNL     1      -6.719  12.144  66.646  1.00  0.00     0.279 C  
BRANCH  12  15
HETATM   15  C   UNL     1      -7.121   8.465  67.615  1.00  0.00    -0.083 C  
HETATM   16  N   UNL     1      -6.709   7.899  66.503  1.00  0.00    -0.057 NA 
HETATM   17  C   UNL     1      -6.817   6.509  66.306  1.00  0.00    -0.057 A  
HETATM   18  C   UNL     1      -7.308   5.676  67.297  1.00  0.00    -0.077 A  
HETATM   19  C   UNL     1      -7.266   4.273  67.130  1.00  0.00    -0.068 A  
HETATM   20  C   UNL     1      -7.986   6.282  68.509  1.00  0.00    -0.105 C  
HETATM   21  F   UNL     1      -5.926   6.679  64.099  1.00  0.00    -0.031 F  
HETATM   22  C   UNL     1      -6.827   3.700  65.943  1.00  0.00    -0.057 A  
HETATM   23  N   UNL     1      -7.859   7.777  68.601  1.00  0.00    -0.118 NA 
HETATM   24  C   UNL     1      -6.374   5.917  65.108  1.00  0.00    -0.038 A  
HETATM   25  C   UNL     1      -6.399   4.529  64.917  1.00  0.00    -0.035 A  
BRANCH  20  26
HETATM   26  C   UNL     1      -9.453   5.778  68.517  1.00  0.00    -0.141 C  
HETATM   27  O   UNL     1      -9.187   4.674  70.671  1.00  0.00    -0.121 OA 
HETATM   28  C   UNL     1     -10.025   5.298  69.825  1.00  0.00    -0.236 C  
HETATM   29  O   UNL     1     -11.224   5.382  70.066  1.00  0.00    -0.034 OA 
ENDBRANCH  20  26
BRANCH  23  30
HETATM   30  C   UNL     1      -8.726   8.373  69.592  1.00  0.00    -0.133 A  
HETATM   31  C   UNL     1     -10.732   9.722  70.063  1.00  0.00    -0.326 A  
HETATM   32  C   UNL     1      -9.906   9.018  69.175  1.00  0.00    -0.175 A  
HETATM   33  C   UNL     1     -11.683  10.779  69.560  1.00  0.00    -0.312 C  
HETATM   34  C   UNL     1     -10.576   9.514  71.424  1.00  0.00    -0.307 A  
HETATM   35  F   UNL     1     -11.544  11.048  68.236  1.00  0.00    -0.311 F  
HETATM   36  F   UNL     1     -12.990  10.457  69.757  1.00  0.00    -0.245 F  
HETATM   37  F   UNL     1     -11.482  11.967  70.200  1.00  0.00    -0.337 F  
HETATM   38  C   UNL     1      -9.482   8.794  71.888  1.00  0.00    -0.362 A  
HETATM   39  C   UNL     1      -8.497   8.334  70.999  1.00  0.00    -0.133 A  
BRANCH  39  40
HETATM   40  O   UNL     1      -7.345   7.749  71.466  1.00  0.00    -0.064 OA 
HETATM   41  C   UNL     1      -6.872   8.146  72.751  1.00  0.00    -0.091 C  
ENDBRANCH  39  40
ENDBRANCH  23  30
ENDBRANCH  12  15
ENDBRANCH   7   9
ENDBRANCH   2   3
TORSDOF 6
ENDMDL
MODEL       74
REMARK 921   NORMALIZED FREE ENERGY PREDICTED BY IDOCK:   -4.49 KCAL/MOL
REMARK 922        TOTAL FREE ENERGY PREDICTED BY IDOCK:   -7.30 KCAL/MOL
REMARK 923 INTER-LIGAND FREE ENERGY PREDICTED BY IDOCK:   -6.18 KCAL/MOL
REMARK 924 INTRA-LIGAND FREE ENERGY PREDICTED BY IDOCK:   -1.12 KCAL/MOL
REMARK 927      BINDING AFFINITY PREDICTED BY RF-SCORE:    0.00 PKD
ROOT
HETATM    1  C   UNL     1     -10.771   1.914  74.426  1.00  0.00    -0.122 C  
HETATM    2  O   UNL     1     -11.248   3.146  73.894  1.00  0.00    -0.194 OA 
ENDROOT
BRANCH   2   3
HETATM    3  C   UNL     1     -10.316   4.120  73.637  1.00  0.00    -0.172 A  
HETATM    4  C   UNL     1      -9.409   4.634  74.555  1.00  0.00    -0.132 A  
HETATM    5  C   UNL     1      -8.537   5.643  74.157  1.00  0.00    -0.116 A  
HETATM    6  C   UNL     1      -8.564   6.132  72.842  1.00  0.00    -0.123 A  
HETATM    7  C   UNL     1      -9.446   5.626  71.876  1.00  0.00    -0.151 A  
HETATM    8  C   UNL     1     -10.319   4.614  72.320  1.00  0.00    -0.251 A  
BRANCH   7   9
HETATM    9  N   UNL     1      -9.454   6.089  70.575  1.00  0.00    -0.166 NA 
HETATM   10  C   UNL     1     -10.684   6.267  69.786  1.00  0.00    -0.297 C  
HETATM   11  C   UNL     1     -10.826   7.733  69.350  1.00  0.00    -0.113 C  
HETATM   12  N   UNL     1      -9.631   8.278  68.664  1.00  0.00    -0.148 NA 
HETATM   13  C   UNL     1      -8.322   7.880  69.264  1.00  0.00    -0.136 C  
HETATM   14  C   UNL     1      -8.247   6.428  69.807  1.00  0.00    -0.126 C  
BRANCH  12  15
HETATM   15  C   UNL     1      -9.664   9.284  67.692  1.00  0.00    -0.157 C  
HETATM   16  N   UNL     1     -10.560  10.228  67.876  1.00  0.00    -0.220 NA 
HETATM   17  C   UNL     1     -10.591  11.376  67.062  1.00  0.00    -0.248 A  
HETATM   18  C   UNL     1      -9.645  11.584  66.073  1.00  0.00    -0.251 A  
HETATM   19  C   UNL     1      -9.610  12.812  65.372  1.00  0.00     0.045 A  
HETATM   20  C   UNL     1      -8.723  10.450  65.675  1.00  0.00    -0.171 C  
HETATM   21  F   UNL     1     -12.523  12.211  68.188  1.00  0.00    -0.143 F  
HETATM   22  C   UNL     1     -10.570  13.792  65.585  1.00  0.00    -0.302 A  
HETATM   23  N   UNL     1      -8.802   9.249  66.576  1.00  0.00    -0.130 NA 
HETATM   24  C   UNL     1     -11.558  12.378  67.270  1.00  0.00    -0.365 A  
HETATM   25  C   UNL     1     -11.563  13.564  66.524  1.00  0.00    -0.391 A  
BRANCH  20  26
HETATM   26  C   UNL     1      -9.000  10.131  64.183  1.00  0.00    -0.267 C  
HETATM   27  O   UNL     1      -6.651  10.346  63.577  1.00  0.00    -0.123 OA 
HETATM   28  C   UNL     1      -7.828   9.753  63.315  1.00  0.00    -0.139 C  
HETATM   29  O   UNL     1      -7.965   9.013  62.347  1.00  0.00    -0.120 OA 
ENDBRANCH  20  26
BRANCH  23  30
HETATM   30  C   UNL     1      -8.137   8.081  66.047  1.00  0.00    -0.110 A  
HETATM   31  C   UNL     1      -8.344   5.854  65.016  1.00  0.00    -0.131 A  
HETATM   32  C   UNL     1      -8.903   7.066  65.442  1.00  0.00     0.088 A  
HETATM   33  C   UNL     1      -9.203   4.628  64.832  1.00  0.00    -0.143 C  
HETATM   34  C   UNL     1      -6.967   5.767  64.878  1.00  0.00    -0.052 A  
HETATM   35  F   UNL     1     -10.486   4.799  65.245  1.00  0.00    -0.192 F  
HETATM   36  F   UNL     1      -9.263   4.208  63.539  1.00  0.00    -0.122 F  
HETATM   37  F   UNL     1      -8.721   3.576  65.553  1.00  0.00    -0.109 F  
HETATM   38  C   UNL     1      -6.164   6.791  65.365  1.00  0.00    -0.039 A  
HETATM   39  C   UNL     1      -6.725   7.878  66.054  1.00  0.00    -0.053 A  
BRANCH  39  40
HETATM   40  O   UNL     1      -5.925   8.816  66.661  1.00  0.00    -0.051 OA 
HETATM   41  C   UNL     1      -5.496   8.560  67.996  1.00  0.00    -0.035 C  
ENDBRANCH  39  40
ENDBRANCH  23  30
ENDBRANCH  12  15
ENDBRANCH   7   9
ENDBRANCH   2   3
TORSDOF 6
ENDMDL
MODEL       75
REMARK 921   NORMALIZED FREE ENERGY PREDICTED BY IDOCK:   -4.48 KCAL/MOL
REMARK 922        TOTAL FREE ENERGY PREDICTED BY IDOCK:   -7.29 KCAL/MOL
REMARK 923 INTER-LIGAND FREE ENERGY PREDICTED BY IDOCK:   -7.87 KCAL/MOL
REMARK 924 INTRA-LIGAND FREE ENERGY PREDICTED BY IDOCK:    0.59 KCAL/MOL
REMARK 927      BINDING AFFINITY PREDICTED BY RF-SCORE:    0.00 PKD
ROOT
HETATM    1  C   UNL     1     -11.064  15.527  64.941  1.00  0.00    -0.416 C  
HETATM    2  O   UNL     1     -11.667  14.363  65.497  1.00  0.00    -0.341 OA 
ENDROOT
BRANCH   2   3
HETATM    3  C   UNL     1     -11.233  13.148  65.029  1.00  0.00    -0.298 A  
HETATM    4  C   UNL     1     -11.428  12.661  63.743  1.00  0.00    -0.539 A  
HETATM    5  C   UNL     1     -10.952  11.394  63.417  1.00  0.00    -0.342 A  
HETATM    6  C   UNL     1     -10.275  10.619  64.371  1.00  0.00    -0.400 A  
HETATM    7  C   UNL     1     -10.035  11.081  65.674  1.00  0.00    -0.248 A  
HETATM    8  C   UNL     1     -10.541  12.362  65.968  1.00  0.00    -0.286 A  
BRANCH   7   9
HETATM    9  N   UNL     1      -9.346  10.328  66.604  1.00  0.00    -0.159 NA 
HETATM   10  C   UNL     1      -8.336  10.892  67.515  1.00  0.00    -0.117 C  
HETATM   11  C   UNL     1      -8.752  10.658  68.975  1.00  0.00    -0.146 C  
HETATM   12  N   UNL     1      -9.076   9.248  69.294  1.00  0.00    -0.147 NA 
HETATM   13  C   UNL     1      -9.866   8.530  68.249  1.00  0.00    -0.169 C  
HETATM   14  C   UNL     1      -9.505   8.877  66.779  1.00  0.00    -0.187 C  
BRANCH  12  15
HETATM   15  C   UNL     1      -8.905   8.660  70.552  1.00  0.00    -0.163 C  
HETATM   16  N   UNL     1      -7.839   7.904  70.691  1.00  0.00    -0.093 NA 
HETATM   17  C   UNL     1      -7.468   7.386  71.946  1.00  0.00    -0.080 A  
HETATM   18  C   UNL     1      -8.178   7.697  73.093  1.00  0.00    -0.177 A  
HETATM   19  C   UNL     1      -7.698   7.286  74.358  1.00  0.00    -0.158 A  
HETATM   20  C   UNL     1      -9.523   8.384  72.972  1.00  0.00    -0.167 C  
HETATM   21  F   UNL     1      -5.621   6.210  70.996  1.00  0.00    -0.016 F  
HETATM   22  C   UNL     1      -6.568   6.486  74.476  1.00  0.00    -0.081 A  
HETATM   23  N   UNL     1      -9.849   8.854  71.582  1.00  0.00    -0.307 NA 
HETATM   24  C   UNL     1      -6.324   6.576  72.079  1.00  0.00    -0.049 A  
HETATM   25  C   UNL     1      -5.890   6.111  73.327  1.00  0.00    -0.045 A  
BRANCH  20  26
HETATM   26  C   UNL     1     -10.585   7.428  73.574  1.00  0.00    -0.388 C  
HETATM   27  O   UNL     1      -9.724   5.508  72.349  1.00  0.00    -0.153 OA 
HETATM   28  C   UNL     1     -10.343   5.946  73.458  1.00  0.00    -0.243 C  
HETATM   29  O   UNL     1     -10.783   5.162  74.292  1.00  0.00    -0.281 OA 
ENDBRANCH  20  26
BRANCH  23  30
HETATM   30  C   UNL     1     -11.227   9.257  71.414  1.00  0.00    -0.362 A  
HETATM   31  C   UNL     1     -12.872  11.089  71.380  1.00  0.00    -0.548 A  
HETATM   32  C   UNL     1     -11.549  10.627  71.416  1.00  0.00     0.177 A  
HETATM   33  C   UNL     1     -13.222  12.475  71.861  1.00  0.00    -0.392 C  
HETATM   34  C   UNL     1     -13.875  10.208  71.003  1.00  0.00     0.262 A  
HETATM   35  F   UNL     1     -12.177  13.128  72.434  1.00  0.00     0.145 F  
HETATM   36  F   UNL     1     -13.689  13.281  70.870  1.00  0.00    -0.007 F  
HETATM   37  F   UNL     1     -14.197  12.435  72.813  1.00  0.00    -0.244 F  
HETATM   38  C   UNL     1     -13.589   8.854  70.884  1.00  0.00     0.155 A  
HETATM   39  C   UNL     1     -12.315   8.358  71.205  1.00  0.00    -0.266 A  
BRANCH  39  40
HETATM   40  O   UNL     1     -12.070   7.006  71.226  1.00  0.00    -0.322 OA 
HETATM   41  C   UNL     1     -11.729   6.374  69.995  1.00  0.00    -0.275 C  
ENDBRANCH  39  40
ENDBRANCH  23  30
ENDBRANCH  12  15
ENDBRANCH   7   9
ENDBRANCH   2   3
TORSDOF 6
ENDMDL
MODEL       76
REMARK 921   NORMALIZED FREE ENERGY PREDICTED BY IDOCK:   -4.45 KCAL/MOL
REMARK 922        TOTAL FREE ENERGY PREDICTED BY IDOCK:   -7.25 KCAL/MOL
REMARK 923 INTER-LIGAND FREE ENERGY PREDICTED BY IDOCK:   -6.66 KCAL/MOL
REMARK 924 INTRA-LIGAND FREE ENERGY PREDICTED BY IDOCK:   -0.59 KCAL/MOL
REMARK 927      BINDING AFFINITY PREDICTED BY RF-SCORE:    0.00 PKD
ROOT
HETATM    1  C   UNL     1      -8.712  19.099  68.056  1.00  0.00    -0.310 C  
HETATM    2  O   UNL     1     -10.036  18.582  67.969  1.00  0.00    -0.335 OA 
ENDROOT
BRANCH   2   3
HETATM    3  C   UNL     1     -10.249  17.320  68.462  1.00  0.00    -0.358 A  
HETATM    4  C   UNL     1     -10.987  17.009  69.597  1.00  0.00     0.125 A  
HETATM    5  C   UNL     1     -11.095  15.679  69.995  1.00  0.00    -0.332 A  
HETATM    6  C   UNL     1     -10.474  14.661  69.255  1.00  0.00    -0.218 A  
HETATM    7  C   UNL     1      -9.739  14.927  68.090  1.00  0.00    -0.214 A  
HETATM    8  C   UNL     1      -9.644  16.284  67.727  1.00  0.00    -0.223 A  
BRANCH   7   9
HETATM    9  N   UNL     1      -9.150  13.922  67.349  1.00  0.00    -0.207 NA 
HETATM   10  C   UNL     1      -7.851  13.319  67.688  1.00  0.00    -0.168 C  
HETATM   11  C   UNL     1      -8.013  11.810  67.923  1.00  0.00    -0.141 C  
HETATM   12  N   UNL     1      -8.694  11.095  66.818  1.00  0.00    -0.152 NA 
HETATM   13  C   UNL     1      -9.866  11.813  66.231  1.00  0.00    -0.221 C  
HETATM   14  C   UNL     1      -9.722  13.354  66.118  1.00  0.00    -0.250 C  
BRANCH  12  15
HETATM   15  C   UNL     1      -8.466   9.758  66.478  1.00  0.00    -0.124 C  
HETATM   16  N   UNL     1      -8.485   9.482  65.193  1.00  0.00    -0.140 NA 
HETATM   17  C   UNL     1      -8.114   8.212  64.712  1.00  0.00    -0.152 A  
HETATM   18  C   UNL     1      -7.662   7.221  65.566  1.00  0.00    -0.108 A  
HETATM   19  C   UNL     1      -7.156   6.009  65.043  1.00  0.00    -0.061 A  
HETATM   20  C   UNL     1      -7.814   7.403  67.063  1.00  0.00    -0.116 C  
HETATM   21  F   UNL     1      -8.607   8.840  62.463  1.00  0.00    -0.189 F  
HETATM   22  C   UNL     1      -7.188   5.743  63.680  1.00  0.00    -0.055 A  
HETATM   23  N   UNL     1      -8.265   8.777  67.472  1.00  0.00    -0.109 NA 
HETATM   24  C   UNL     1      -8.141   7.931  63.333  1.00  0.00    -0.083 A  
HETATM   25  C   UNL     1      -7.704   6.701  62.822  1.00  0.00    -0.101 A  
BRANCH  20  26
HETATM   26  C   UNL     1      -8.736   6.265  67.574  1.00  0.00    -0.105 C  
HETATM   27  O   UNL     1     -10.697   7.197  66.470  1.00  0.00    -0.139 OA 
HETATM   28  C   UNL     1     -10.073   6.088  66.902  1.00  0.00    -0.185 C  
HETATM   29  O   UNL     1     -10.616   4.990  66.843  1.00  0.00    -0.227 OA 
ENDBRANCH  20  26
BRANCH  23  30
HETATM   30  C   UNL     1      -8.669   8.868  68.857  1.00  0.00    -0.136 A  
HETATM   31  C   UNL     1      -8.085   8.524  71.224  1.00  0.00    -0.166 A  
HETATM   32  C   UNL     1      -7.734   8.575  69.868  1.00  0.00    -0.091 A  
HETATM   33  C   UNL     1      -7.239   7.760  72.213  1.00  0.00    -0.081 C  
HETATM   34  C   UNL     1      -9.286   9.088  71.623  1.00  0.00    -0.254 A  
HETATM   35  F   UNL     1      -6.235   7.051  71.633  1.00  0.00    -0.037 F  
HETATM   36  F   UNL     1      -6.662   8.560  73.149  1.00  0.00    -0.113 F  
HETATM   37  F   UNL     1      -7.986   6.847  72.898  1.00  0.00    -0.101 F  
HETATM   38  C   UNL     1     -10.207   9.492  70.664  1.00  0.00    -0.364 A  
HETATM   39  C   UNL     1      -9.963   9.273  69.299  1.00  0.00    -0.180 A  
BRANCH  39  40
HETATM   40  O   UNL     1     -10.931   9.539  68.360  1.00  0.00    -0.172 OA 
HETATM   41  C   UNL     1     -11.845  10.598  68.630  1.00  0.00    -0.064 C  
ENDBRANCH  39  40
ENDBRANCH  23  30
ENDBRANCH  12  15
ENDBRANCH   7   9
ENDBRANCH   2   3
TORSDOF 6
ENDMDL
MODEL       77
REMARK 921   NORMALIZED FREE ENERGY PREDICTED BY IDOCK:   -4.45 KCAL/MOL
REMARK 922        TOTAL FREE ENERGY PREDICTED BY IDOCK:   -7.25 KCAL/MOL
REMARK 923 INTER-LIGAND FREE ENERGY PREDICTED BY IDOCK:   -6.91 KCAL/MOL
REMARK 924 INTRA-LIGAND FREE ENERGY PREDICTED BY IDOCK:   -0.33 KCAL/MOL
REMARK 927      BINDING AFFINITY PREDICTED BY RF-SCORE:    0.00 PKD
ROOT
HETATM    1  C   UNL     1      -9.463  18.133  67.554  1.00  0.00    -0.262 C  
HETATM    2  O   UNL     1      -9.051  16.770  67.579  1.00  0.00    -0.208 OA 
ENDROOT
BRANCH   2   3
HETATM    3  C   UNL     1      -9.761  15.888  66.805  1.00  0.00    -0.238 A  
HETATM    4  C   UNL     1     -10.088  16.067  65.467  1.00  0.00    -0.336 A  
HETATM    5  C   UNL     1     -10.841  15.094  64.814  1.00  0.00    -0.378 A  
HETATM    6  C   UNL     1     -11.257  13.940  65.495  1.00  0.00    -0.307 A  
HETATM    7  C   UNL     1     -10.929  13.706  66.838  1.00  0.00    -0.289 A  
HETATM    8  C   UNL     1     -10.177  14.718  67.466  1.00  0.00    -0.233 A  
BRANCH   7   9
HETATM    9  N   UNL     1     -11.317  12.558  67.500  1.00  0.00    -0.291 NA 
HETATM   10  C   UNL     1     -11.743  11.329  66.809  1.00  0.00     0.345 C  
HETATM   11  C   UNL     1     -10.829  10.159  67.199  1.00  0.00    -0.189 C  
HETATM   12  N   UNL     1     -10.687   9.963  68.661  1.00  0.00    -0.223 NA 
HETATM   13  C   UNL     1     -10.542  11.221  69.455  1.00  0.00    -0.099 C  
HETATM   14  C   UNL     1     -11.388  12.426  68.963  1.00  0.00    -0.283 C  
BRANCH  12  15
HETATM   15  C   UNL     1     -10.448   8.730  69.277  1.00  0.00    -0.219 C  
HETATM   16  N   UNL     1     -10.790   8.647  70.543  1.00  0.00    -0.224 NA 
HETATM   17  C   UNL     1     -10.751   7.421  71.233  1.00  0.00    -0.221 A  
HETATM   18  C   UNL     1     -10.403   6.244  70.592  1.00  0.00    -0.254 A  
HETATM   19  C   UNL     1     -10.515   5.007  71.269  1.00  0.00    -0.213 A  
HETATM   20  C   UNL     1      -9.802   6.303  69.203  1.00  0.00    -0.144 C  
HETATM   21  F   UNL     1     -11.425   8.462  73.272  1.00  0.00    -0.242 F  
HETATM   22  C   UNL     1     -10.879   4.948  72.608  1.00  0.00    -0.264 A  
HETATM   23  N   UNL     1      -9.845   7.667  68.573  1.00  0.00    -0.162 NA 
HETATM   24  C   UNL     1     -11.118   7.348  72.590  1.00  0.00    -0.331 A  
HETATM   25  C   UNL     1     -11.161   6.128  73.279  1.00  0.00    -0.160 A  
BRANCH  20  26
HETATM   26  C   UNL     1      -8.375   5.701  69.291  1.00  0.00    -0.107 C  
HETATM   27  O   UNL     1      -7.506   7.631  70.496  1.00  0.00    -0.076 OA 
HETATM   28  C   UNL     1      -7.416   6.307  70.282  1.00  0.00    -0.094 C  
HETATM   29  O   UNL     1      -6.525   5.640  70.796  1.00  0.00    -0.033 OA 
ENDBRANCH  20  26
BRANCH  23  30
HETATM   30  C   UNL     1      -9.037   7.782  67.380  1.00  0.00    -0.126 A  
HETATM   31  C   UNL     1      -7.291   9.016  66.158  1.00  0.00    -0.091 A  
HETATM   32  C   UNL     1      -8.031   8.766  67.322  1.00  0.00    -0.097 A  
HETATM   33  C   UNL     1      -6.593  10.338  65.955  1.00  0.00    -0.113 C  
HETATM   34  C   UNL     1      -7.307   8.073  65.142  1.00  0.00    -0.074 A  
HETATM   35  F   UNL     1      -6.875  11.253  66.919  1.00  0.00    -0.096 F  
HETATM   36  F   UNL     1      -5.239  10.224  65.910  1.00  0.00    -0.036 F  
HETATM   37  F   UNL     1      -6.967  10.917  64.778  1.00  0.00     0.030 F  
HETATM   38  C   UNL     1      -8.211   7.019  65.199  1.00  0.00    -0.113 A  
HETATM   39  C   UNL     1      -9.153   6.937  66.237  1.00  0.00    -0.141 A  
BRANCH  39  40
HETATM   40  O   UNL     1     -10.139   5.979  66.219  1.00  0.00    -0.118 OA 
HETATM   41  C   UNL     1      -9.811   4.699  65.686  1.00  0.00    -0.204 C  
ENDBRANCH  39  40
ENDBRANCH  23  30
ENDBRANCH  12  15
ENDBRANCH   7   9
ENDBRANCH   2   3
TORSDOF 6
ENDMDL
MODEL       78
REMARK 921   NORMALIZED FREE ENERGY PREDICTED BY IDOCK:   -4.35 KCAL/MOL
REMARK 922        TOTAL FREE ENERGY PREDICTED BY IDOCK:   -7.11 KCAL/MOL
REMARK 923 INTER-LIGAND FREE ENERGY PREDICTED BY IDOCK:   -6.66 KCAL/MOL
REMARK 924 INTRA-LIGAND FREE ENERGY PREDICTED BY IDOCK:   -0.45 KCAL/MOL
REMARK 927      BINDING AFFINITY PREDICTED BY RF-SCORE:    0.00 PKD
ROOT
HETATM    1  C   UNL     1     -11.546  16.784  71.746  1.00  0.00     0.237 C  
HETATM    2  O   UNL     1     -12.762  16.110  72.051  1.00  0.00    -0.429 OA 
ENDROOT
BRANCH   2   3
HETATM    3  C   UNL     1     -12.802  14.757  71.826  1.00  0.00    -0.325 A  
HETATM    4  C   UNL     1     -13.516  13.832  72.578  1.00  0.00    -0.682 A  
HETATM    5  C   UNL     1     -13.440  12.482  72.247  1.00  0.00    -0.490 A  
HETATM    6  C   UNL     1     -12.659  12.058  71.160  1.00  0.00    -0.372 A  
HETATM    7  C   UNL     1     -11.942  12.959  70.359  1.00  0.00    -0.249 A  
HETATM    8  C   UNL     1     -12.035  14.313  70.733  1.00  0.00    -0.390 A  
BRANCH   7   9
HETATM    9  N   UNL     1     -11.195  12.542  69.275  1.00  0.00    -0.225 NA 
HETATM   10  C   UNL     1      -9.730  12.674  69.201  1.00  0.00     0.520 C  
HETATM   11  C   UNL     1      -9.083  11.293  69.027  1.00  0.00     0.029 C  
HETATM   12  N   UNL     1      -9.636  10.502  67.902  1.00  0.00    -0.149 NA 
HETATM   13  C   UNL     1     -11.121  10.571  67.753  1.00  0.00    -0.317 C  
HETATM   14  C   UNL     1     -11.763  11.952  68.053  1.00  0.00    -0.312 C  
BRANCH  12  15
HETATM   15  C   UNL     1      -8.914   9.556  67.167  1.00  0.00    -0.134 C  
HETATM   16  N   UNL     1      -9.008   9.655  65.859  1.00  0.00    -0.158 NA 
HETATM   17  C   UNL     1      -8.209   8.869  65.007  1.00  0.00    -0.153 A  
HETATM   18  C   UNL     1      -7.254   8.003  65.511  1.00  0.00    -0.064 A  
HETATM   19  C   UNL     1      -6.365   7.338  64.634  1.00  0.00    -0.037 A  
HETATM   20  C   UNL     1      -7.240   7.691  66.994  1.00  0.00    -0.089 C  
HETATM   21  F   UNL     1      -9.258   9.777  63.066  1.00  0.00    -0.245 F  
HETATM   22  C   UNL     1      -6.487   7.459  63.256  1.00  0.00    -0.054 A  
HETATM   23  N   UNL     1      -8.165   8.549  67.810  1.00  0.00    -0.121 NA 
HETATM   24  C   UNL     1      -8.323   8.983  63.609  1.00  0.00    -0.177 A  
HETATM   25  C   UNL     1      -7.487   8.269  62.740  1.00  0.00    -0.105 A  
BRANCH  20  26
HETATM   26  C   UNL     1      -7.499   6.170  67.148  1.00  0.00    -0.081 C  
HETATM   27  O   UNL     1      -5.248   5.591  66.420  1.00  0.00    -0.005 OA 
HETATM   28  C   UNL     1      -6.305   5.253  67.179  1.00  0.00    -0.040 C  
HETATM   29  O   UNL     1      -6.333   4.189  67.790  1.00  0.00    -0.035 OA 
ENDBRANCH  20  26
BRANCH  23  30
HETATM   30  C   UNL     1      -8.354   8.076  69.162  1.00  0.00    -0.132 A  
HETATM   31  C   UNL     1      -9.929   7.409  70.935  1.00  0.00    -0.184 A  
HETATM   32  C   UNL     1      -9.652   7.758  69.605  1.00  0.00    -0.163 A  
HETATM   33  C   UNL     1     -11.322   7.547  71.496  1.00  0.00    -0.255 C  
HETATM   34  C   UNL     1      -8.876   7.048  71.761  1.00  0.00    -0.127 A  
HETATM   35  F   UNL     1     -12.192   8.150  70.645  1.00  0.00    -0.225 F  
HETATM   36  F   UNL     1     -11.877   6.354  71.840  1.00  0.00    -0.319 F  
HETATM   37  F   UNL     1     -11.325   8.309  72.627  1.00  0.00    -0.402 F  
HETATM   38  C   UNL     1      -7.569   7.243  71.333  1.00  0.00    -0.083 A  
HETATM   39  C   UNL     1      -7.303   7.865  70.103  1.00  0.00    -0.070 A  
BRANCH  39  40
HETATM   40  O   UNL     1      -6.017   8.189  69.742  1.00  0.00    -0.029 OA 
HETATM   41  C   UNL     1      -5.246   8.966  70.656  1.00  0.00    -0.020 C  
ENDBRANCH  39  40
ENDBRANCH  23  30
ENDBRANCH  12  15
ENDBRANCH   7   9
ENDBRANCH   2   3
TORSDOF 6
ENDMDL
MODEL       79
REMARK 921   NORMALIZED FREE ENERGY PREDICTED BY IDOCK:   -4.17 KCAL/MOL
REMARK 922        TOTAL FREE ENERGY PREDICTED BY IDOCK:   -6.86 KCAL/MOL
REMARK 923 INTER-LIGAND FREE ENERGY PREDICTED BY IDOCK:   -6.14 KCAL/MOL
REMARK 924 INTRA-LIGAND FREE ENERGY PREDICTED BY IDOCK:   -0.72 KCAL/MOL
REMARK 927      BINDING AFFINITY PREDICTED BY RF-SCORE:    0.00 PKD
ROOT
HETATM    1  C   UNL     1      -6.411   8.963  73.407  1.00  0.00     0.071 C  
HETATM    2  O   UNL     1      -7.338   8.518  74.392  1.00  0.00    -0.258 OA 
ENDROOT
BRANCH   2   3
HETATM    3  C   UNL     1      -8.468   7.881  73.947  1.00  0.00    -0.259 A  
HETATM    4  C   UNL     1      -9.083   6.799  74.564  1.00  0.00    -0.227 A  
HETATM    5  C   UNL     1     -10.214   6.236  73.980  1.00  0.00    -0.327 A  
HETATM    6  C   UNL     1     -10.736   6.759  72.786  1.00  0.00    -0.277 A  
HETATM    7  C   UNL     1     -10.162   7.865  72.142  1.00  0.00    -0.227 A  
HETATM    8  C   UNL     1      -9.013   8.399  72.758  1.00  0.00    -0.291 A  
BRANCH   7   9
HETATM    9  N   UNL     1     -10.691   8.395  70.982  1.00  0.00    -0.217 NA 
HETATM   10  C   UNL     1     -10.887   9.838  70.766  1.00  0.00    -0.333 C  
HETATM   11  C   UNL     1     -10.089  10.301  69.538  1.00  0.00    -0.235 C  
HETATM   12  N   UNL     1     -10.346   9.507  68.314  1.00  0.00    -0.198 NA 
HETATM   13  C   UNL     1     -10.449   8.032  68.529  1.00  0.00    -0.164 C  
HETATM   14  C   UNL     1     -11.155   7.593  69.840  1.00  0.00    -0.150 C  
BRANCH  12  15
HETATM   15  C   UNL     1     -10.258  10.007  67.010  1.00  0.00    -0.237 C  
HETATM   16  N   UNL     1     -11.185  10.872  66.665  1.00  0.00    -0.211 NA 
HETATM   17  C   UNL     1     -11.118  11.568  65.443  1.00  0.00    -0.186 A  
HETATM   18  C   UNL     1     -10.046  11.411  64.582  1.00  0.00    -0.330 A  
HETATM   19  C   UNL     1      -9.931  12.231  63.435  1.00  0.00    -0.192 A  
HETATM   20  C   UNL     1      -9.059  10.286  64.820  1.00  0.00    -0.219 C  
HETATM   21  F   UNL     1     -13.203  12.652  65.863  1.00  0.00     0.381 F  
HETATM   22  C   UNL     1     -10.926  13.136  63.093  1.00  0.00     0.831 A  
HETATM   23  N   UNL     1      -9.246   9.572  66.129  1.00  0.00    -0.164 NA 
HETATM   24  C   UNL     1     -12.121  12.489  65.085  1.00  0.00    -0.446 A  
HETATM   25  C   UNL     1     -12.039  13.250  63.912  1.00  0.00    -0.531 A  
BRANCH  20  26
HETATM   26  C   UNL     1      -9.118   9.351  63.584  1.00  0.00    -0.062 C  
HETATM   27  O   UNL     1      -6.704   9.423  63.266  1.00  0.00    -0.094 OA 
HETATM   28  C   UNL     1      -7.834   8.709  63.127  1.00  0.00    -0.153 C  
HETATM   29  O   UNL     1      -7.833   7.622  62.557  1.00  0.00    -0.117 OA 
ENDBRANCH  20  26
BRANCH  23  30
HETATM   30  C   UNL     1      -8.494   8.342  66.232  1.00  0.00    -0.129 A  
HETATM   31  C   UNL     1      -8.511   5.880  66.181  1.00  0.00    -0.132 A  
HETATM   32  C   UNL     1      -9.142   7.116  65.984  1.00  0.00    -0.108 A  
HETATM   33  C   UNL     1      -9.321   4.623  66.384  1.00  0.00    -0.149 C  
HETATM   34  C   UNL     1      -7.131   5.848  66.305  1.00  0.00    -0.068 A  
HETATM   35  F   UNL     1     -10.656   4.850  66.489  1.00  0.00    -0.275 F  
HETATM   36  F   UNL     1      -9.157   3.717  65.384  1.00  0.00    -0.124 F  
HETATM   37  F   UNL     1      -8.964   3.988  67.537  1.00  0.00    -0.110 F  
HETATM   38  C   UNL     1      -6.428   7.037  66.449  1.00  0.00    -0.051 A  
HETATM   39  C   UNL     1      -7.103   8.264  66.539  1.00  0.00    -0.072 A  
BRANCH  39  40
HETATM   40  O   UNL     1      -6.423   9.424  66.825  1.00  0.00    -0.065 OA 
HETATM   41  C   UNL     1      -5.594   9.439  67.984  1.00  0.00    -0.037 C  
ENDBRANCH  39  40
ENDBRANCH  23  30
ENDBRANCH  12  15
ENDBRANCH   7   9
ENDBRANCH   2   3
TORSDOF 6
ENDMDL
MODEL       80
REMARK 921   NORMALIZED FREE ENERGY PREDICTED BY IDOCK:   -4.11 KCAL/MOL
REMARK 922        TOTAL FREE ENERGY PREDICTED BY IDOCK:   -6.79 KCAL/MOL
REMARK 923 INTER-LIGAND FREE ENERGY PREDICTED BY IDOCK:   -6.26 KCAL/MOL
REMARK 924 INTRA-LIGAND FREE ENERGY PREDICTED BY IDOCK:   -0.53 KCAL/MOL
REMARK 927      BINDING AFFINITY PREDICTED BY RF-SCORE:    0.00 PKD
ROOT
HETATM    1  C   UNL     1     -10.519   8.105  69.800  1.00  0.00    -0.227 C  
HETATM    2  O   UNL     1      -9.736   8.406  70.951  1.00  0.00    -0.164 OA 
ENDROOT
BRANCH   2   3
HETATM    3  C   UNL     1      -8.422   8.743  70.744  1.00  0.00    -0.173 A  
HETATM    4  C   UNL     1      -7.324   7.974  71.109  1.00  0.00    -0.065 A  
HETATM    5  C   UNL     1      -6.042   8.459  70.859  1.00  0.00    -0.034 A  
HETATM    6  C   UNL     1      -5.860   9.704  70.238  1.00  0.00    -0.051 A  
HETATM    7  C   UNL     1      -6.940  10.501  69.831  1.00  0.00    -0.150 A  
HETATM    8  C   UNL     1      -8.218   9.982  70.111  1.00  0.00    -0.083 A  
BRANCH   7   9
HETATM    9  N   UNL     1      -6.759  11.714  69.197  1.00  0.00    -0.101 NA 
HETATM   10  C   UNL     1      -7.110  11.952  67.787  1.00  0.00    -0.103 C  
HETATM   11  C   UNL     1      -8.146  13.081  67.684  1.00  0.00    -0.172 C  
HETATM   12  N   UNL     1      -7.757  14.327  68.386  1.00  0.00    -0.126 NA 
HETATM   13  C   UNL     1      -7.116  14.124  69.721  1.00  0.00     0.107 C  
HETATM   14  C   UNL     1      -6.165  12.902  69.830  1.00  0.00    -0.105 C  
BRANCH  12  15
HETATM   15  C   UNL     1      -8.154  15.612  68.002  1.00  0.00    -0.136 C  
HETATM   16  N   UNL     1      -7.183  16.449  67.714  1.00  0.00    -0.131 NA 
HETATM   17  C   UNL     1      -7.450  17.717  67.164  1.00  0.00    -0.194 A  
HETATM   18  C   UNL     1      -8.740  18.111  66.852  1.00  0.00    -0.267 A  
HETATM   19  C   UNL     1      -8.964  19.326  66.164  1.00  0.00    -0.270 A  
HETATM   20  C   UNL     1      -9.910  17.285  67.347  1.00  0.00    -0.272 C  
HETATM   21  F   UNL     1      -5.133  18.292  67.180  1.00  0.00    -0.123 F  
HETATM   22  C   UNL     1      -7.920  20.194  65.873  1.00  0.00    -0.197 A  
HETATM   23  N   UNL     1      -9.517  15.973  67.965  1.00  0.00    -0.206 NA 
HETATM   24  C   UNL     1      -6.399  18.605  66.863  1.00  0.00    -0.178 A  
HETATM   25  C   UNL     1      -6.632  19.841  66.245  1.00  0.00    -0.215 A  
BRANCH  20  26
HETATM   26  C   UNL     1     -10.750  18.191  68.285  1.00  0.00    -0.171 C  
HETATM   27  O   UNL     1      -8.827  18.736  69.677  1.00  0.00     0.405 OA 
HETATM   28  C   UNL     1     -10.012  19.143  69.189  1.00  0.00    -0.274 C  
HETATM   29  O   UNL     1     -10.516  20.201  69.548  1.00  0.00    -0.126 OA 
ENDBRANCH  20  26
BRANCH  23  30
HETATM   30  C   UNL     1     -10.594  15.320  68.674  1.00  0.00    -0.236 A  
HETATM   31  C   UNL     1     -11.871  15.090  70.767  1.00  0.00    -0.372 A  
HETATM   32  C   UNL     1     -10.924  15.751  69.974  1.00  0.00    -0.344 A  
HETATM   33  C   UNL     1     -11.865  15.244  72.268  1.00  0.00    -0.437 C  
HETATM   34  C   UNL     1     -12.743  14.199  70.161  1.00  0.00    -0.227 A  
HETATM   35  F   UNL     1     -10.801  15.946  72.736  1.00  0.00     0.221 F  
HETATM   36  F   UNL     1     -12.980  15.861  72.745  1.00  0.00    -0.436 F  
HETATM   37  F   UNL     1     -11.806  14.030  72.887  1.00  0.00     0.143 F  
HETATM   38  C   UNL     1     -12.525  13.816  68.843  1.00  0.00     0.158 A  
HETATM   39  C   UNL     1     -11.397  14.268  68.142  1.00  0.00    -0.288 A  
BRANCH  39  40
HETATM   40  O   UNL     1     -11.102  13.780  66.891  1.00  0.00    -0.294 OA 
HETATM   41  C   UNL     1     -11.612  14.489  65.764  1.00  0.00    -0.347 C  
ENDBRANCH  39  40
ENDBRANCH  23  30
ENDBRANCH  12  15
ENDBRANCH   7   9
ENDBRANCH   2   3
TORSDOF 6
ENDMDL
MODEL       81
REMARK 921   NORMALIZED FREE ENERGY PREDICTED BY IDOCK:   -4.09 KCAL/MOL
REMARK 922        TOTAL FREE ENERGY PREDICTED BY IDOCK:   -6.77 KCAL/MOL
REMARK 923 INTER-LIGAND FREE ENERGY PREDICTED BY IDOCK:   -5.39 KCAL/MOL
REMARK 924 INTRA-LIGAND FREE ENERGY PREDICTED BY IDOCK:   -1.38 KCAL/MOL
REMARK 927      BINDING AFFINITY PREDICTED BY RF-SCORE:    0.00 PKD
ROOT
HETATM    1  C   UNL     1      -8.765  16.793  66.986  1.00  0.00    -0.204 C  
HETATM    2  O   UNL     1     -10.184  16.818  67.100  1.00  0.00    -0.283 OA 
ENDROOT
BRANCH   2   3
HETATM    3  C   UNL     1     -10.747  16.034  68.075  1.00  0.00    -0.309 A  
HETATM    4  C   UNL     1     -11.622  16.473  69.061  1.00  0.00    -0.027 A  
HETATM    5  C   UNL     1     -12.094  15.564  70.005  1.00  0.00    -0.391 A  
HETATM    6  C   UNL     1     -11.701  14.218  69.957  1.00  0.00    -0.364 A  
HETATM    7  C   UNL     1     -10.840  13.726  68.965  1.00  0.00    -0.217 A  
HETATM    8  C   UNL     1     -10.375  14.678  68.037  1.00  0.00    -0.235 A  
BRANCH   7   9
HETATM    9  N   UNL     1     -10.475  12.396  68.904  1.00  0.00    -0.147 NA 
HETATM   10  C   UNL     1      -9.237  11.924  68.261  1.00  0.00    -0.187 C  
HETATM   11  C   UNL     1      -8.363  11.180  69.282  1.00  0.00     0.113 C  
HETATM   12  N   UNL     1      -9.069  10.098  70.008  1.00  0.00    -0.091 NA 
HETATM   13  C   UNL     1     -10.462  10.430  70.434  1.00  0.00     0.048 C  
HETATM   14  C   UNL     1     -11.283  11.288  69.435  1.00  0.00    -0.280 C  
BRANCH  12  15
HETATM   15  C   UNL     1      -8.455   8.943  70.504  1.00  0.00    -0.177 C  
HETATM   16  N   UNL     1      -7.757   9.095  71.608  1.00  0.00    -0.336 NA 
HETATM   17  C   UNL     1      -7.224   7.988  72.294  1.00  0.00    -0.094 A  
HETATM   18  C   UNL     1      -7.460   6.693  71.867  1.00  0.00    -0.091 A  
HETATM   19  C   UNL     1      -7.040   5.597  72.656  1.00  0.00    -0.089 A  
HETATM   20  C   UNL     1      -8.073   6.460  70.501  1.00  0.00    -0.117 C  
HETATM   21  F   UNL     1      -6.184   9.400  73.913  1.00  0.00    -0.018 F  
HETATM   22  C   UNL     1      -6.303   5.785  73.818  1.00  0.00    -0.068 A  
HETATM   23  N   UNL     1      -8.565   7.711  69.828  1.00  0.00    -0.134 NA 
HETATM   24  C   UNL     1      -6.477   8.166  73.474  1.00  0.00    -0.108 A  
HETATM   25  C   UNL     1      -6.001   7.078  74.218  1.00  0.00    -0.070 A  
BRANCH  20  26
HETATM   26  C   UNL     1      -7.041   5.663  69.661  1.00  0.00    -0.064 C  
HETATM   27  O   UNL     1      -8.574   3.800  69.326  1.00  0.00    -0.070 OA 
HETATM   28  C   UNL     1      -7.548   4.514  68.830  1.00  0.00    -0.060 C  
HETATM   29  O   UNL     1      -6.984   4.178  67.794  1.00  0.00    -0.054 OA 
ENDBRANCH  20  26
BRANCH  23  30
HETATM   30  C   UNL     1      -8.893   7.529  68.432  1.00  0.00    -0.126 A  
HETATM   31  C   UNL     1      -8.464   8.164  66.091  1.00  0.00    -0.143 A  
HETATM   32  C   UNL     1      -8.132   8.196  67.453  1.00  0.00    -0.122 A  
HETATM   33  C   UNL     1      -7.966   9.231  65.148  1.00  0.00    -0.116 C  
HETATM   34  C   UNL     1      -9.356   7.200  65.646  1.00  0.00     0.278 A  
HETATM   35  F   UNL     1      -7.314  10.245  65.774  1.00  0.00    -0.113 F  
HETATM   36  F   UNL     1      -7.119   8.750  64.199  1.00  0.00    -0.086 F  
HETATM   37  F   UNL     1      -8.999   9.817  64.478  1.00  0.00    -0.190 F  
HETATM   38  C   UNL     1     -10.060   6.438  66.569  1.00  0.00    -0.155 A  
HETATM   39  C   UNL     1      -9.930   6.678  67.946  1.00  0.00    -0.132 A  
BRANCH  39  40
HETATM   40  O   UNL     1     -10.730   6.026  68.854  1.00  0.00    -0.255 OA 
HETATM   41  C   UNL     1     -11.675   6.804  69.585  1.00  0.00    -0.104 C  
ENDBRANCH  39  40
ENDBRANCH  23  30
ENDBRANCH  12  15
ENDBRANCH   7   9
ENDBRANCH   2   3
TORSDOF 6
ENDMDL
MODEL       82
REMARK 921   NORMALIZED FREE ENERGY PREDICTED BY IDOCK:   -4.01 KCAL/MOL
REMARK 922        TOTAL FREE ENERGY PREDICTED BY IDOCK:   -6.65 KCAL/MOL
REMARK 923 INTER-LIGAND FREE ENERGY PREDICTED BY IDOCK:   -5.33 KCAL/MOL
REMARK 924 INTRA-LIGAND FREE ENERGY PREDICTED BY IDOCK:   -1.32 KCAL/MOL
REMARK 927      BINDING AFFINITY PREDICTED BY RF-SCORE:    0.00 PKD
ROOT
HETATM    1  C   UNL     1     -10.394  18.395  67.774  1.00  0.00    -0.405 C  
HETATM    2  O   UNL     1     -10.412  17.094  68.353  1.00  0.00    -0.334 OA 
ENDROOT
BRANCH   2   3
HETATM    3  C   UNL     1      -9.208  16.450  68.485  1.00  0.00    -0.226 A  
HETATM    4  C   UNL     1      -7.972  17.069  68.629  1.00  0.00    -0.258 A  
HETATM    5  C   UNL     1      -6.826  16.284  68.726  1.00  0.00    -0.151 A  
HETATM    6  C   UNL     1      -6.915  14.884  68.687  1.00  0.00    -0.108 A  
HETATM    7  C   UNL     1      -8.143  14.217  68.566  1.00  0.00    -0.147 A  
HETATM    8  C   UNL     1      -9.277  15.046  68.460  1.00  0.00    -0.192 A  
BRANCH   7   9
HETATM    9  N   UNL     1      -8.232  12.840  68.554  1.00  0.00    -0.113 NA 
HETATM   10  C   UNL     1      -9.296  12.102  67.852  1.00  0.00    -0.192 C  
HETATM   11  C   UNL     1      -8.684  11.167  66.799  1.00  0.00    -0.157 C  
HETATM   12  N   UNL     1      -7.629  10.270  67.326  1.00  0.00    -0.095 NA 
HETATM   13  C   UNL     1      -6.680  10.908  68.288  1.00  0.00    -0.063 C  
HETATM   14  C   UNL     1      -7.307  11.942  69.262  1.00  0.00     0.094 C  
BRANCH  12  15
HETATM   15  C   UNL     1      -7.339   9.000  66.816  1.00  0.00    -0.086 C  
HETATM   16  N   UNL     1      -6.876   8.969  65.586  1.00  0.00    -0.075 NA 
HETATM   17  C   UNL     1      -6.398   7.775  65.014  1.00  0.00    -0.041 A  
HETATM   18  C   UNL     1      -6.344   6.599  65.741  1.00  0.00    -0.042 A  
HETATM   19  C   UNL     1      -5.722   5.453  65.192  1.00  0.00    -0.017 A  
HETATM   20  C   UNL     1      -7.049   6.518  67.080  1.00  0.00    -0.073 C  
HETATM   21  F   UNL     1      -5.971   8.859  62.931  1.00  0.00    -0.086 F  
HETATM   22  C   UNL     1      -5.242   5.447  63.889  1.00  0.00    -0.010 A  
HETATM   23  N   UNL     1      -7.569   7.837  67.579  1.00  0.00    -0.106 NA 
HETATM   24  C   UNL     1      -5.907   7.757  63.694  1.00  0.00    -0.057 A  
HETATM   25  C   UNL     1      -5.355   6.601  63.128  1.00  0.00    -0.030 A  
BRANCH  20  26
HETATM   26  C   UNL     1      -8.138   5.421  66.962  1.00  0.00    -0.101 C  
HETATM   27  O   UNL     1      -6.812   3.803  68.209  1.00  0.00    -0.045 OA 
HETATM   28  C   UNL     1      -8.043   4.234  67.885  1.00  0.00    -0.094 C  
HETATM   29  O   UNL     1      -9.045   3.623  68.243  1.00  0.00    -0.121 OA 
ENDBRANCH  20  26
BRANCH  23  30
HETATM   30  C   UNL     1      -8.468   7.717  68.705  1.00  0.00    -0.129 A  
HETATM   31  C   UNL     1      -8.734   7.434  71.137  1.00  0.00    -0.137 A  
HETATM   32  C   UNL     1      -7.937   7.670  70.008  1.00  0.00    -0.114 A  
HETATM   33  C   UNL     1      -8.128   6.913  72.417  1.00  0.00    -0.103 C  
HETATM   34  C   UNL     1     -10.108   7.576  71.023  1.00  0.00    -0.190 A  
HETATM   35  F   UNL     1      -6.815   6.584  72.299  1.00  0.00    -0.063 F  
HETATM   36  F   UNL     1      -8.218   7.796  73.447  1.00  0.00    -0.143 F  
HETATM   37  F   UNL     1      -8.757   5.776  72.832  1.00  0.00    -0.124 F  
HETATM   38  C   UNL     1     -10.680   7.730  69.766  1.00  0.00    -0.236 A  
HETATM   39  C   UNL     1      -9.890   7.677  68.607  1.00  0.00    -0.171 A  
BRANCH  39  40
HETATM   40  O   UNL     1     -10.468   7.685  67.360  1.00  0.00    -0.250 OA 
HETATM   41  C   UNL     1     -10.933   6.444  66.835  1.00  0.00    -0.341 C  
ENDBRANCH  39  40
ENDBRANCH  23  30
ENDBRANCH  12  15
ENDBRANCH   7   9
ENDBRANCH   2   3
TORSDOF 6
ENDMDL
MODEL       83
REMARK 921   NORMALIZED FREE ENERGY PREDICTED BY IDOCK:   -3.89 KCAL/MOL
REMARK 922        TOTAL FREE ENERGY PREDICTED BY IDOCK:   -6.50 KCAL/MOL
REMARK 923 INTER-LIGAND FREE ENERGY PREDICTED BY IDOCK:   -7.39 KCAL/MOL
REMARK 924 INTRA-LIGAND FREE ENERGY PREDICTED BY IDOCK:    0.89 KCAL/MOL
REMARK 927      BINDING AFFINITY PREDICTED BY RF-SCORE:    0.00 PKD
ROOT
HETATM    1  C   UNL     1      -5.509  21.151  68.020  1.00  0.00    -0.318 C  
HETATM    2  O   UNL     1      -5.344  19.737  68.018  1.00  0.00    -0.185 OA 
ENDROOT
BRANCH   2   3
HETATM    3  C   UNL     1      -6.477  18.973  68.137  1.00  0.00    -0.223 A  
HETATM    4  C   UNL     1      -7.757  19.458  68.377  1.00  0.00    -0.363 A  
HETATM    5  C   UNL     1      -8.812  18.558  68.501  1.00  0.00    -0.351 A  
HETATM    6  C   UNL     1      -8.591  17.178  68.377  1.00  0.00    -0.246 A  
HETATM    7  C   UNL     1      -7.321  16.647  68.110  1.00  0.00    -0.170 A  
HETATM    8  C   UNL     1      -6.278  17.587  68.003  1.00  0.00    -0.153 A  
BRANCH   7   9
HETATM    9  N   UNL     1      -7.109  15.291  67.962  1.00  0.00    -0.117 NA 
HETATM   10  C   UNL     1      -6.134  14.530  68.762  1.00  0.00    -0.087 C  
HETATM   11  C   UNL     1      -6.846  13.414  69.541  1.00  0.00     0.066 C  
HETATM   12  N   UNL     1      -7.694  12.536  68.702  1.00  0.00    -0.100 NA 
HETATM   13  C   UNL     1      -8.499  13.244  67.660  1.00  0.00    -0.191 C  
HETATM   14  C   UNL     1      -7.797  14.446  66.973  1.00  0.00     0.050 C  
BRANCH  12  15
HETATM   15  C   UNL     1      -7.957  11.190  68.976  1.00  0.00    -0.086 C  
HETATM   16  N   UNL     1      -7.066  10.573  69.720  1.00  0.00    -0.141 NA 
HETATM   17  C   UNL     1      -7.290   9.268  70.198  1.00  0.00    -0.096 A  
HETATM   18  C   UNL     1      -8.479   8.604  69.952  1.00  0.00    -0.129 A  
HETATM   19  C   UNL     1      -8.737   7.357  70.569  1.00  0.00    -0.147 A  
HETATM   20  C   UNL     1      -9.452   9.170  68.938  1.00  0.00    -0.151 C  
HETATM   21  F   UNL     1      -5.138   9.198  71.229  1.00  0.00    -0.027 F  
HETATM   22  C   UNL     1      -7.777   6.726  71.349  1.00  0.00    -0.093 A  
HETATM   23  N   UNL     1      -9.096  10.547  68.449  1.00  0.00    -0.142 NA 
HETATM   24  C   UNL     1      -6.325   8.618  70.992  1.00  0.00    -0.048 A  
HETATM   25  C   UNL     1      -6.555   7.351  71.544  1.00  0.00    -0.049 A  
BRANCH  20  26
HETATM   26  C   UNL     1      -9.597   8.123  67.803  1.00  0.00    -0.180 C  
HETATM   27  O   UNL     1     -11.219   6.811  69.061  1.00  0.00    -0.220 OA 
HETATM   28  C   UNL     1     -10.785   7.198  67.849  1.00  0.00    -0.192 C  
HETATM   29  O   UNL     1     -11.273   6.735  66.823  1.00  0.00    -0.312 OA 
ENDBRANCH  20  26
BRANCH  23  30
HETATM   30  C   UNL     1      -9.858  10.968  67.295  1.00  0.00    -0.178 A  
HETATM   31  C   UNL     1     -10.085  10.988  64.843  1.00  0.00    -0.359 A  
HETATM   32  C   UNL     1      -9.471  10.526  66.016  1.00  0.00    -0.227 A  
HETATM   33  C   UNL     1      -9.378  10.901  63.514  1.00  0.00    -0.272 C  
HETATM   34  C   UNL     1     -11.308  11.635  64.942  1.00  0.00    -0.252 A  
HETATM   35  F   UNL     1      -8.091  10.476  63.612  1.00  0.00    -0.162 F  
HETATM   36  F   UNL     1      -9.997  10.068  62.635  1.00  0.00    -0.228 F  
HETATM   37  F   UNL     1      -9.318  12.120  62.907  1.00  0.00    -0.228 F  
HETATM   38  C   UNL     1     -11.790  12.003  66.192  1.00  0.00    -0.225 A  
HETATM   39  C   UNL     1     -11.024  11.789  67.348  1.00  0.00    -0.262 A  
BRANCH  39  40
HETATM   40  O   UNL     1     -11.433  12.280  68.565  1.00  0.00    -0.253 OA 
HETATM   41  C   UNL     1     -12.013  13.581  68.595  1.00  0.00    -0.343 C  
ENDBRANCH  39  40
ENDBRANCH  23  30
ENDBRANCH  12  15
ENDBRANCH   7   9
ENDBRANCH   2   3
TORSDOF 6
ENDMDL
MODEL       84
REMARK 921   NORMALIZED FREE ENERGY PREDICTED BY IDOCK:   -3.85 KCAL/MOL
REMARK 922        TOTAL FREE ENERGY PREDICTED BY IDOCK:   -6.44 KCAL/MOL
REMARK 923 INTER-LIGAND FREE ENERGY PREDICTED BY IDOCK:   -5.68 KCAL/MOL
REMARK 924 INTRA-LIGAND FREE ENERGY PREDICTED BY IDOCK:   -0.76 KCAL/MOL
REMARK 927      BINDING AFFINITY PREDICTED BY RF-SCORE:    0.00 PKD
ROOT
HETATM    1  C   UNL     1     -11.878  15.616  68.618  1.00  0.00    -0.291 C  
HETATM    2  O   UNL     1     -10.536  15.485  68.158  1.00  0.00    -0.253 OA 
ENDROOT
BRANCH   2   3
HETATM    3  C   UNL     1     -10.205  14.318  67.518  1.00  0.00    -0.240 A  
HETATM    4  C   UNL     1      -9.828  14.205  66.185  1.00  0.00    -0.326 A  
HETATM    5  C   UNL     1      -9.545  12.946  65.662  1.00  0.00    -0.036 A  
HETATM    6  C   UNL     1      -9.631  11.803  66.471  1.00  0.00    -0.225 A  
HETATM    7  C   UNL     1      -9.984  11.872  67.827  1.00  0.00    -0.186 A  
HETATM    8  C   UNL     1     -10.273  13.161  68.315  1.00  0.00    -0.250 A  
BRANCH   7   9
HETATM    9  N   UNL     1     -10.042  10.749  68.628  1.00  0.00    -0.176 NA 
HETATM   10  C   UNL     1     -11.202   9.844  68.672  1.00  0.00    -0.068 C  
HETATM   11  C   UNL     1     -10.780   8.424  68.269  1.00  0.00    -0.028 C  
HETATM   12  N   UNL     1      -9.624   7.896  69.032  1.00  0.00    -0.154 NA 
HETATM   13  C   UNL     1      -8.525   8.880  69.272  1.00  0.00    -0.121 C  
HETATM   14  C   UNL     1      -8.979  10.336  69.558  1.00  0.00    -0.157 C  
BRANCH  12  15
HETATM   15  C   UNL     1      -9.408   6.542  69.310  1.00  0.00    -0.141 C  
HETATM   16  N   UNL     1      -9.458   6.204  70.578  1.00  0.00    -0.163 NA 
HETATM   17  C   UNL     1      -9.416   4.854  70.978  1.00  0.00    -0.164 A  
HETATM   18  C   UNL     1      -9.378   3.829  70.049  1.00  0.00    -0.250 A  
HETATM   19  C   UNL     1      -9.488   2.483  70.472  1.00  0.00    -0.189 A  
HETATM   20  C   UNL     1      -9.111   4.153  68.593  1.00  0.00    -0.133 C  
HETATM   21  F   UNL     1      -9.465   5.460  73.286  1.00  0.00    -0.140 F  
HETATM   22  C   UNL     1      -9.538   2.153  71.820  1.00  0.00    -0.205 A  
HETATM   23  N   UNL     1      -9.125   5.622  68.279  1.00  0.00    -0.110 NA 
HETATM   24  C   UNL     1      -9.468   4.506  72.341  1.00  0.00    -0.135 A  
HETATM   25  C   UNL     1      -9.505   3.170  72.761  1.00  0.00    -0.151 A  
BRANCH  20  26
HETATM   26  C   UNL     1      -7.791   3.441  68.197  1.00  0.00    -0.063 C  
HETATM   27  O   UNL     1      -6.440   4.918  69.584  1.00  0.00    -0.033 OA 
HETATM   28  C   UNL     1      -6.574   3.693  69.048  1.00  0.00    -0.040 C  
HETATM   29  O   UNL     1      -5.691   2.849  69.164  1.00  0.00    -0.021 OA 
ENDBRANCH  20  26
BRANCH  23  30
HETATM   30  C   UNL     1      -8.605   5.941  66.968  1.00  0.00    -0.110 A  
HETATM   31  C   UNL     1      -7.147   7.377  65.598  1.00  0.00    -0.065 A  
HETATM   32  C   UNL     1      -7.611   6.930  66.843  1.00  0.00    -0.094 A  
HETATM   33  C   UNL     1      -6.476   8.721  65.460  1.00  0.00    -0.063 C  
HETATM   34  C   UNL     1      -7.420   6.614  64.473  1.00  0.00    -0.094 A  
HETATM   35  F   UNL     1      -6.505   9.460  66.599  1.00  0.00    -0.063 F  
HETATM   36  F   UNL     1      -5.171   8.628  65.089  1.00  0.00    -0.033 F  
HETATM   37  F   UNL     1      -7.090   9.483  64.510  1.00  0.00    -0.092 F  
HETATM   38  C   UNL     1      -8.318   5.558  64.562  1.00  0.00    -0.127 A  
HETATM   39  C   UNL     1      -9.001   5.296  65.759  1.00  0.00    -0.154 A  
BRANCH  39  40
HETATM   40  O   UNL     1      -9.993   4.345  65.811  1.00  0.00    -0.203 OA 
HETATM   41  C   UNL     1     -10.776   4.138  64.638  1.00  0.00    -0.129 C  
ENDBRANCH  39  40
ENDBRANCH  23  30
ENDBRANCH  12  15
ENDBRANCH   7   9
ENDBRANCH   2   3
TORSDOF 6
ENDMDL
MODEL       85
REMARK 921   NORMALIZED FREE ENERGY PREDICTED BY IDOCK:   -3.81 KCAL/MOL
REMARK 922        TOTAL FREE ENERGY PREDICTED BY IDOCK:   -6.38 KCAL/MOL
REMARK 923 INTER-LIGAND FREE ENERGY PREDICTED BY IDOCK:   -4.75 KCAL/MOL
REMARK 924 INTRA-LIGAND FREE ENERGY PREDICTED BY IDOCK:   -1.63 KCAL/MOL
REMARK 927      BINDING AFFINITY PREDICTED BY RF-SCORE:    0.00 PKD
ROOT
HETATM    1  C   UNL     1      -6.199   3.056  67.511  1.00  0.00    -0.032 C  
HETATM    2  O   UNL     1      -7.566   3.414  67.693  1.00  0.00    -0.068 OA 
ENDROOT
BRANCH   2   3
HETATM    3  C   UNL     1      -8.116   4.272  66.774  1.00  0.00    -0.101 A  
HETATM    4  C   UNL     1      -8.505   3.934  65.484  1.00  0.00    -0.109 A  
HETATM    5  C   UNL     1      -9.025   4.920  64.650  1.00  0.00    -0.111 A  
HETATM    6  C   UNL     1      -9.165   6.240  65.108  1.00  0.00     0.444 A  
HETATM    7  C   UNL     1      -8.808   6.620  66.410  1.00  0.00    -0.144 A  
HETATM    8  C   UNL     1      -8.275   5.597  67.218  1.00  0.00    -0.101 A  
BRANCH   7   9
HETATM    9  N   UNL     1      -8.970   7.912  66.868  1.00  0.00    -0.131 NA 
HETATM   10  C   UNL     1      -9.689   8.954  66.116  1.00  0.00    -0.268 C  
HETATM   11  C   UNL     1     -10.873   9.479  66.940  1.00  0.00    -0.015 C  
HETATM   12  N   UNL     1     -10.511   9.919  68.308  1.00  0.00    -0.198 NA 
HETATM   13  C   UNL     1      -9.539   9.034  69.019  1.00  0.00    -0.160 C  
HETATM   14  C   UNL     1      -8.421   8.420  68.135  1.00  0.00    -0.132 C  
BRANCH  12  15
HETATM   15  C   UNL     1     -11.176  10.922  69.021  1.00  0.00    -0.266 C  
HETATM   16  N   UNL     1     -11.993  10.508  69.964  1.00  0.00    -0.288 NA 
HETATM   17  C   UNL     1     -12.599  11.412  70.857  1.00  0.00    -0.356 A  
HETATM   18  C   UNL     1     -12.317  12.766  70.813  1.00  0.00    -0.375 A  
HETATM   19  C   UNL     1     -12.822  13.630  71.813  1.00  0.00    -0.407 A  
HETATM   20  C   UNL     1     -11.555  13.330  69.630  1.00  0.00    -0.261 C  
HETATM   21  F   UNL     1     -13.814   9.657  71.925  1.00  0.00    -0.386 F  
HETATM   22  C   UNL     1     -13.684  13.166  72.797  1.00  0.00    -0.124 A  
HETATM   23  N   UNL     1     -10.992  12.285  68.709  1.00  0.00    -0.228 NA 
HETATM   24  C   UNL     1     -13.474  10.954  71.860  1.00  0.00    -0.202 A  
HETATM   25  C   UNL     1     -14.030  11.823  72.808  1.00  0.00     1.340 A  
BRANCH  20  26
HETATM   26  C   UNL     1     -12.487  14.349  68.924  1.00  0.00     0.070 C  
HETATM   27  O   UNL     1     -11.220  16.259  69.747  1.00  0.00    -0.334 OA 
HETATM   28  C   UNL     1     -11.991  15.762  68.765  1.00  0.00    -0.210 C  
HETATM   29  O   UNL     1     -12.359  16.465  67.829  1.00  0.00     1.002 OA 
ENDBRANCH  20  26
BRANCH  23  30
HETATM   30  C   UNL     1     -10.510  12.816  67.454  1.00  0.00    -0.228 A  
HETATM   31  C   UNL     1     -10.927  13.200  65.057  1.00  0.00    -0.322 A  
HETATM   32  C   UNL     1     -11.362  12.815  66.333  1.00  0.00    -0.369 A  
HETATM   33  C   UNL     1     -11.662  12.748  63.820  1.00  0.00    -0.493 C  
HETATM   34  C   UNL     1      -9.741  13.908  64.944  1.00  0.00     0.185 A  
HETATM   35  F   UNL     1     -12.655  11.855  64.076  1.00  0.00    -0.481 F  
HETATM   36  F   UNL     1     -12.230  13.775  63.133  1.00  0.00    -0.510 F  
HETATM   37  F   UNL     1     -10.821  12.123  62.948  1.00  0.00    -0.360 F  
HETATM   38  C   UNL     1      -8.907  14.030  66.048  1.00  0.00     0.505 A  
HETATM   39  C   UNL     1      -9.219  13.389  67.258  1.00  0.00    -0.222 A  
BRANCH  39  40
HETATM   40  O   UNL     1      -8.328  13.389  68.305  1.00  0.00    -0.154 OA 
HETATM   41  C   UNL     1      -7.952  14.648  68.857  1.00  0.00    -0.149 C  
ENDBRANCH  39  40
ENDBRANCH  23  30
ENDBRANCH  12  15
ENDBRANCH   7   9
ENDBRANCH   2   3
TORSDOF 6
ENDMDL
MODEL       86
REMARK 921   NORMALIZED FREE ENERGY PREDICTED BY IDOCK:   -3.70 KCAL/MOL
REMARK 922        TOTAL FREE ENERGY PREDICTED BY IDOCK:   -6.23 KCAL/MOL
REMARK 923 INTER-LIGAND FREE ENERGY PREDICTED BY IDOCK:   -5.07 KCAL/MOL
REMARK 924 INTRA-LIGAND FREE ENERGY PREDICTED BY IDOCK:   -1.15 KCAL/MOL
REMARK 927      BINDING AFFINITY PREDICTED BY RF-SCORE:    0.00 PKD
ROOT
HETATM    1  C   UNL     1      -5.284   4.475  74.297  1.00  0.00    -0.008 C  
HETATM    2  O   UNL     1      -5.463   4.418  72.885  1.00  0.00    -0.006 OA 
ENDROOT
BRANCH   2   3
HETATM    3  C   UNL     1      -6.745   4.265  72.422  1.00  0.00    -0.038 A  
HETATM    4  C   UNL     1      -7.459   3.074  72.397  1.00  0.00    -0.052 A  
HETATM    5  C   UNL     1      -8.748   3.065  71.870  1.00  0.00    -0.110 A  
HETATM    6  C   UNL     1      -9.325   4.245  71.378  1.00  0.00    -0.210 A  
HETATM    7  C   UNL     1      -8.650   5.474  71.405  1.00  0.00    -0.131 A  
HETATM    8  C   UNL     1      -7.346   5.440  71.934  1.00  0.00    -0.091 A  
BRANCH   7   9
HETATM    9  N   UNL     1      -9.229   6.640  70.944  1.00  0.00    -0.157 NA 
HETATM   10  C   UNL     1      -8.840   7.980  71.415  1.00  0.00    -0.141 C  
HETATM   11  C   UNL     1      -8.343   8.830  70.236  1.00  0.00    -0.136 C  
HETATM   12  N   UNL     1      -9.282   8.886  69.091  1.00  0.00    -0.144 NA 
HETATM   13  C   UNL     1      -9.939   7.587  68.751  1.00  0.00    -0.172 C  
HETATM   14  C   UNL     1     -10.321   6.692  69.960  1.00  0.00    -0.199 C  
BRANCH  12  15
HETATM   15  C   UNL     1      -9.394   9.965  68.208  1.00  0.00    -0.132 C  
HETATM   16  N   UNL     1     -10.449  10.731  68.373  1.00  0.00    -0.173 NA 
HETATM   17  C   UNL     1     -10.597  11.935  67.659  1.00  0.00    -0.211 A  
HETATM   18  C   UNL     1      -9.613  12.388  66.797  1.00  0.00    -0.224 A  
HETATM   19  C   UNL     1      -9.719  13.669  66.208  1.00  0.00    -0.295 A  
HETATM   20  C   UNL     1      -8.480  11.460  66.408  1.00  0.00    -0.160 C  
HETATM   21  F   UNL     1     -12.737  12.337  68.636  1.00  0.00     0.184 F  
HETATM   22  C   UNL     1     -10.846  14.459  66.398  1.00  0.00    -0.314 A  
HETATM   23  N   UNL     1      -8.440  10.178  67.192  1.00  0.00    -0.125 NA 
HETATM   24  C   UNL     1     -11.734  12.745  67.844  1.00  0.00    -0.357 A  
HETATM   25  C   UNL     1     -11.869  13.984  67.203  1.00  0.00    -0.444 A  
BRANCH  20  26
HETATM   26  C   UNL     1      -8.562  11.250  64.873  1.00  0.00     0.258 C  
HETATM   27  O   UNL     1     -10.658  10.021  65.032  1.00  0.00     0.066 OA 
HETATM   28  C   UNL     1      -9.887  10.833  64.290  1.00  0.00    -0.326 C  
HETATM   29  O   UNL     1     -10.203  11.138  63.145  1.00  0.00    -0.342 OA 
ENDBRANCH  20  26
BRANCH  23  30
HETATM   30  C   UNL     1      -7.542   9.188  66.642  1.00  0.00    -0.089 A  
HETATM   31  C   UNL     1      -7.275   7.006  65.532  1.00  0.00    -0.070 A  
HETATM   32  C   UNL     1      -8.076   8.064  65.984  1.00  0.00    -0.110 A  
HETATM   33  C   UNL     1      -7.865   5.640  65.285  1.00  0.00    -0.100 C  
HETATM   34  C   UNL     1      -5.906   7.204  65.428  1.00  0.00    -0.037 A  
HETATM   35  F   UNL     1      -9.163   5.533  65.670  1.00  0.00    -0.158 F  
HETATM   36  F   UNL     1      -7.814   5.266  63.979  1.00  0.00    -0.074 F  
HETATM   37  F   UNL     1      -7.194   4.680  65.984  1.00  0.00    -0.069 F  
HETATM   38  C   UNL     1      -5.336   8.349  65.970  1.00  0.00    -0.031 A  
HETATM   39  C   UNL     1      -6.118   9.274  66.679  1.00  0.00    -0.064 A  
BRANCH  39  40
HETATM   40  O   UNL     1      -5.536  10.331  67.338  1.00  0.00    -0.041 OA 
HETATM   41  C   UNL     1      -5.643  10.368  68.758  1.00  0.00    -0.041 C  
ENDBRANCH  39  40
ENDBRANCH  23  30
ENDBRANCH  12  15
ENDBRANCH   7   9
ENDBRANCH   2   3
TORSDOF 6
ENDMDL
MODEL       87
REMARK 921   NORMALIZED FREE ENERGY PREDICTED BY IDOCK:   -3.62 KCAL/MOL
REMARK 922        TOTAL FREE ENERGY PREDICTED BY IDOCK:   -6.13 KCAL/MOL
REMARK 923 INTER-LIGAND FREE ENERGY PREDICTED BY IDOCK:   -5.04 KCAL/MOL
REMARK 924 INTRA-LIGAND FREE ENERGY PREDICTED BY IDOCK:   -1.08 KCAL/MOL
REMARK 927      BINDING AFFINITY PREDICTED BY RF-SCORE:    0.00 PKD
ROOT
HETATM    1  C   UNL     1      -9.764   6.701  67.836  1.00  0.00    -0.122 C  
HETATM    2  O   UNL     1      -8.584   5.967  67.525  1.00  0.00    -0.105 OA 
ENDROOT
BRANCH   2   3
HETATM    3  C   UNL     1      -7.407   6.413  68.071  1.00  0.00    -0.089 A  
HETATM    4  C   UNL     1      -6.412   5.610  68.615  1.00  0.00    -0.043 A  
HETATM    5  C   UNL     1      -5.279   6.207  69.160  1.00  0.00    -0.004 A  
HETATM    6  C   UNL     1      -5.135   7.603  69.154  1.00  0.00    -0.015 A  
HETATM    7  C   UNL     1      -6.103   8.451  68.594  1.00  0.00    -0.045 A  
HETATM    8  C   UNL     1      -7.239   7.810  68.063  1.00  0.00    -0.087 A  
BRANCH   7   9
HETATM    9  N   UNL     1      -5.949   9.822  68.565  1.00  0.00    -0.042 NA 
HETATM   10  C   UNL     1      -5.651  10.579  67.338  1.00  0.00    -0.044 C  
HETATM   11  C   UNL     1      -6.759  11.607  67.068  1.00  0.00    -0.145 C  
HETATM   12  N   UNL     1      -7.057  12.493  68.219  1.00  0.00    -0.094 NA 
HETATM   13  C   UNL     1      -7.083  11.812  69.549  1.00  0.00     0.092 C  
HETATM   14  C   UNL     1      -6.027  10.691  69.749  1.00  0.00    -0.062 C  
BRANCH  12  15
HETATM   15  C   UNL     1      -7.530  13.805  68.108  1.00  0.00    -0.124 C  
HETATM   16  N   UNL     1      -6.743  14.739  68.593  1.00  0.00    -0.084 NA 
HETATM   17  C   UNL     1      -7.026  16.105  68.403  1.00  0.00    -0.129 A  
HETATM   18  C   UNL     1      -8.113  16.518  67.652  1.00  0.00    -0.177 A  
HETATM   19  C   UNL     1      -8.289  17.889  67.353  1.00  0.00    -0.227 A  
HETATM   20  C   UNL     1      -9.165  15.506  67.247  1.00  0.00    -0.209 C  
HETATM   21  F   UNL     1      -5.129  16.753  69.698  1.00  0.00    -0.129 F  
HETATM   22  C   UNL     1      -7.442  18.857  67.879  1.00  0.00    -0.269 A  
HETATM   23  N   UNL     1      -8.790  14.080  67.539  1.00  0.00    -0.187 NA 
HETATM   24  C   UNL     1      -6.174  17.095  68.930  1.00  0.00    -0.179 A  
HETATM   25  C   UNL     1      -6.391  18.458  68.690  1.00  0.00    -0.223 A  
BRANCH  20  26
HETATM   26  C   UNL     1     -10.503  15.946  67.897  1.00  0.00    -0.288 C  
HETATM   27  O   UNL     1      -9.540  15.985  70.134  1.00  0.00     0.134 OA 
HETATM   28  C   UNL     1     -10.455  16.502  69.296  1.00  0.00    -0.326 C  
HETATM   29  O   UNL     1     -11.282  17.320  69.686  1.00  0.00     0.378 OA 
ENDBRANCH  20  26
BRANCH  23  30
HETATM   30  C   UNL     1      -9.891  13.152  67.408  1.00  0.00    -0.226 A  
HETATM   31  C   UNL     1     -11.356  11.494  68.489  1.00  0.00    -0.337 A  
HETATM   32  C   UNL     1     -10.376  12.494  68.555  1.00  0.00    -0.233 A  
HETATM   33  C   UNL     1     -11.511  10.489  69.603  1.00  0.00    -0.282 C  
HETATM   34  C   UNL     1     -12.105  11.370  67.329  1.00  0.00     0.587 A  
HETATM   35  F   UNL     1     -10.545  10.581  70.554  1.00  0.00    -0.313 F  
HETATM   36  F   UNL     1     -12.704  10.589  70.248  1.00  0.00    -0.359 F  
HETATM   37  F   UNL     1     -11.440   9.212  69.128  1.00  0.00    -0.013 F  
HETATM   38  C   UNL     1     -11.732  12.079  66.193  1.00  0.00    -0.313 A  
HETATM   39  C   UNL     1     -10.569  12.864  66.187  1.00  0.00    -0.271 A  
BRANCH  39  40
HETATM   40  O   UNL     1     -10.120  13.449  65.027  1.00  0.00    -0.301 OA 
HETATM   41  C   UNL     1     -10.845  13.189  63.828  1.00  0.00    -0.137 C  
ENDBRANCH  39  40
ENDBRANCH  23  30
ENDBRANCH  12  15
ENDBRANCH   7   9
ENDBRANCH   2   3
TORSDOF 6
ENDMDL
MODEL       88
REMARK 921   NORMALIZED FREE ENERGY PREDICTED BY IDOCK:   -3.42 KCAL/MOL
REMARK 922        TOTAL FREE ENERGY PREDICTED BY IDOCK:   -5.86 KCAL/MOL
REMARK 923 INTER-LIGAND FREE ENERGY PREDICTED BY IDOCK:   -6.11 KCAL/MOL
REMARK 924 INTRA-LIGAND FREE ENERGY PREDICTED BY IDOCK:    0.25 KCAL/MOL
REMARK 927      BINDING AFFINITY PREDICTED BY RF-SCORE:    0.00 PKD
ROOT
HETATM    1  C   UNL     1      -8.175   5.518  68.049  1.00  0.00    -0.100 C  
HETATM    2  O   UNL     1      -9.050   5.331  66.941  1.00  0.00    -0.113 OA 
ENDROOT
BRANCH   2   3
HETATM    3  C   UNL     1      -8.748   6.003  65.784  1.00  0.00    -0.151 A  
HETATM    4  C   UNL     1      -8.348   5.417  64.589  1.00  0.00    -0.141 A  
HETATM    5  C   UNL     1      -8.047   6.231  63.500  1.00  0.00    -0.049 A  
HETATM    6  C   UNL     1      -8.154   7.626  63.602  1.00  0.00    -0.038 A  
HETATM    7  C   UNL     1      -8.578   8.259  64.780  1.00  0.00    -0.020 A  
HETATM    8  C   UNL     1      -8.861   7.403  65.862  1.00  0.00    -0.149 A  
BRANCH   7   9
HETATM    9  N   UNL     1      -8.707   9.630  64.871  1.00  0.00    -0.167 NA 
HETATM   10  C   UNL     1      -9.962  10.347  64.586  1.00  0.00    -0.338 C  
HETATM   11  C   UNL     1     -10.416  11.131  65.826  1.00  0.00    -0.246 C  
HETATM   12  N   UNL     1      -9.376  12.020  66.395  1.00  0.00    -0.225 NA 
HETATM   13  C   UNL     1      -8.001  11.436  66.437  1.00  0.00    -0.088 C  
HETATM   14  C   UNL     1      -7.613  10.546  65.226  1.00  0.00    -0.074 C  
BRANCH  12  15
HETATM   15  C   UNL     1      -9.638  13.211  67.080  1.00  0.00    -0.241 C  
HETATM   16  N   UNL     1      -9.123  14.299  66.553  1.00  0.00    -0.226 NA 
HETATM   17  C   UNL     1      -9.443  15.576  67.052  1.00  0.00    -0.225 A  
HETATM   18  C   UNL     1     -10.355  15.740  68.080  1.00  0.00    -0.252 A  
HETATM   19  C   UNL     1     -10.770  17.038  68.460  1.00  0.00    -0.352 A  
HETATM   20  C   UNL     1     -10.821  14.529  68.862  1.00  0.00    -0.253 C  
HETATM   21  F   UNL     1      -7.962  16.632  65.506  1.00  0.00    -0.001 F  
HETATM   22  C   UNL     1     -10.209  18.171  67.888  1.00  0.00    -0.391 A  
HETATM   23  N   UNL     1     -10.384  13.215  68.277  1.00  0.00    -0.247 NA 
HETATM   24  C   UNL     1      -8.882  16.733  66.479  1.00  0.00    -0.277 A  
HETATM   25  C   UNL     1      -9.242  18.018  66.906  1.00  0.00    -0.271 A  
BRANCH  20  26
HETATM   26  C   UNL     1     -10.382  14.734  70.335  1.00  0.00     0.302 C  
HETATM   27  O   UNL     1     -12.389  16.001  70.882  1.00  0.00    -0.380 OA 
HETATM   28  C   UNL     1     -11.428  15.172  71.326  1.00  0.00    -0.349 C  
HETATM   29  O   UNL     1     -11.350  14.869  72.512  1.00  0.00    -0.220 OA 
ENDBRANCH  20  26
BRANCH  23  30
HETATM   30  C   UNL     1     -10.590  12.089  69.159  1.00  0.00    -0.025 A  
HETATM   31  C   UNL     1      -9.733   9.961  70.055  1.00  0.00    -0.274 A  
HETATM   32  C   UNL     1      -9.563  11.139  69.314  1.00  0.00     0.066 A  
HETATM   33  C   UNL     1      -8.845   8.765  69.822  1.00  0.00    -0.142 C  
HETATM   34  C   UNL     1     -10.809   9.872  70.926  1.00  0.00    -0.357 A  
HETATM   35  F   UNL     1      -8.003   8.913  68.766  1.00  0.00    -0.095 F  
HETATM   36  F   UNL     1      -8.071   8.458  70.897  1.00  0.00    -0.083 F  
HETATM   37  F   UNL     1      -9.581   7.649  69.550  1.00  0.00    -0.161 F  
HETATM   38  C   UNL     1     -11.803  10.841  70.889  1.00  0.00    -0.400 A  
HETATM   39  C   UNL     1     -11.767  11.871  69.935  1.00  0.00    -0.308 A  
BRANCH  39  40
HETATM   40  O   UNL     1     -12.819  12.746  69.802  1.00  0.00     0.357 OA 
HETATM   41  C   UNL     1     -13.608  13.016  70.958  1.00  0.00     0.587 C  
ENDBRANCH  39  40
ENDBRANCH  23  30
ENDBRANCH  12  15
ENDBRANCH   7   9
ENDBRANCH   2   3
TORSDOF 6
ENDMDL
MODEL       89
REMARK 921   NORMALIZED FREE ENERGY PREDICTED BY IDOCK:   -3.19 KCAL/MOL
REMARK 922        TOTAL FREE ENERGY PREDICTED BY IDOCK:   -5.55 KCAL/MOL
REMARK 923 INTER-LIGAND FREE ENERGY PREDICTED BY IDOCK:   -5.95 KCAL/MOL
REMARK 924 INTRA-LIGAND FREE ENERGY PREDICTED BY IDOCK:    0.40 KCAL/MOL
REMARK 927      BINDING AFFINITY PREDICTED BY RF-SCORE:    0.00 PKD
ROOT
HETATM    1  C   UNL     1      -7.062   6.230  65.232  1.00  0.00    -0.064 C  
HETATM    2  O   UNL     1      -6.778   7.624  65.161  1.00  0.00    -0.047 OA 
ENDROOT
BRANCH   2   3
HETATM    3  C   UNL     1      -6.472   8.261  66.337  1.00  0.00    -0.054 A  
HETATM    4  C   UNL     1      -5.537   7.830  67.270  1.00  0.00    -0.036 A  
HETATM    5  C   UNL     1      -5.350   8.568  68.436  1.00  0.00    -0.034 A  
HETATM    6  C   UNL     1      -6.089   9.739  68.665  1.00  0.00    -0.042 A  
HETATM    7  C   UNL     1      -7.025  10.224  67.739  1.00  0.00    -0.083 A  
HETATM    8  C   UNL     1      -7.194   9.444  66.579  1.00  0.00    -0.089 A  
BRANCH   7   9
HETATM    9  N   UNL     1      -7.733  11.389  67.954  1.00  0.00    -0.109 NA 
HETATM   10  C   UNL     1      -7.400  12.357  69.012  1.00  0.00     0.031 C  
HETATM   11  C   UNL     1      -7.089  13.729  68.396  1.00  0.00    -0.105 C  
HETATM   12  N   UNL     1      -8.140  14.234  67.481  1.00  0.00    -0.174 NA 
HETATM   13  C   UNL     1      -8.728  13.207  66.569  1.00  0.00     0.094 C  
HETATM   14  C   UNL     1      -8.919  11.794  67.184  1.00  0.00    -0.177 C  
BRANCH  12  15
HETATM   15  C   UNL     1      -8.420  15.587  67.265  1.00  0.00    -0.193 C  
HETATM   16  N   UNL     1      -7.389  16.345  66.967  1.00  0.00    -0.197 NA 
HETATM   17  C   UNL     1      -7.556  17.685  66.571  1.00  0.00    -0.264 A  
HETATM   18  C   UNL     1      -8.814  18.243  66.427  1.00  0.00    -0.256 A  
HETATM   19  C   UNL     1      -8.958  19.542  65.886  1.00  0.00    -0.068 A  
HETATM   20  C   UNL     1     -10.024  17.495  66.951  1.00  0.00    -0.313 C  
HETATM   21  F   UNL     1      -5.196  18.010  66.418  1.00  0.00    -0.141 F  
HETATM   22  C   UNL     1      -7.850  20.322  65.581  1.00  0.00    -0.015 A  
HETATM   23  N   UNL     1      -9.731  16.090  67.396  1.00  0.00    -0.230 NA 
HETATM   24  C   UNL     1      -6.441  18.486  66.258  1.00  0.00    -0.203 A  
HETATM   25  C   UNL     1      -6.584  19.799  65.788  1.00  0.00    -0.265 A  
BRANCH  20  26
HETATM   26  C   UNL     1     -10.671  18.377  68.050  1.00  0.00    -0.277 C  
HETATM   27  O   UNL     1      -8.589  18.558  69.299  1.00  0.00     0.013 OA 
HETATM   28  C   UNL     1      -9.754  19.140  68.970  1.00  0.00    -0.361 C  
HETATM   29  O   UNL     1     -10.100  20.201  69.479  1.00  0.00    -0.201 OA 
ENDBRANCH  20  26
BRANCH  23  30
HETATM   30  C   UNL     1     -10.810  15.480  68.140  1.00  0.00    -0.296 A  
HETATM   31  C   UNL     1     -12.048  15.325  70.264  1.00  0.00    -0.388 A  
HETATM   32  C   UNL     1     -11.100  15.945  69.438  1.00  0.00    -0.322 A  
HETATM   33  C   UNL     1     -12.006  15.506  71.761  1.00  0.00    -0.419 C  
HETATM   34  C   UNL     1     -12.956  14.447  69.693  1.00  0.00     0.468 A  
HETATM   35  F   UNL     1     -10.913  16.187  72.193  1.00  0.00    -0.091 F  
HETATM   36  F   UNL     1     -13.092  16.162  72.249  1.00  0.00    -0.494 F  
HETATM   37  F   UNL     1     -11.967  14.303  72.401  1.00  0.00    -0.259 F  
HETATM   38  C   UNL     1     -12.778  14.034  68.378  1.00  0.00     0.904 A  
HETATM   39  C   UNL     1     -11.653  14.442  67.645  1.00  0.00    -0.370 A  
BRANCH  39  40
HETATM   40  O   UNL     1     -11.399  13.923  66.397  1.00  0.00    -0.313 OA 
HETATM   41  C   UNL     1     -12.510  13.695  65.534  1.00  0.00    -0.503 C  
ENDBRANCH  39  40
ENDBRANCH  23  30
ENDBRANCH  12  15
ENDBRANCH   7   9
ENDBRANCH   2   3
TORSDOF 6
ENDMDL
MODEL       90
REMARK 921   NORMALIZED FREE ENERGY PREDICTED BY IDOCK:   -2.96 KCAL/MOL
REMARK 922        TOTAL FREE ENERGY PREDICTED BY IDOCK:   -5.24 KCAL/MOL
REMARK 923 INTER-LIGAND FREE ENERGY PREDICTED BY IDOCK:   -4.49 KCAL/MOL
REMARK 924 INTRA-LIGAND FREE ENERGY PREDICTED BY IDOCK:   -0.74 KCAL/MOL
REMARK 927      BINDING AFFINITY PREDICTED BY RF-SCORE:    0.00 PKD
ROOT
HETATM    1  C   UNL     1      -6.011  16.729  68.582  1.00  0.00    -0.136 C  
HETATM    2  O   UNL     1      -6.783  15.552  68.369  1.00  0.00    -0.109 OA 
ENDROOT
BRANCH   2   3
HETATM    3  C   UNL     1      -6.431  14.435  69.084  1.00  0.00    -0.107 A  
HETATM    4  C   UNL     1      -6.001  14.422  70.405  1.00  0.00    -0.168 A  
HETATM    5  C   UNL     1      -5.651  13.211  70.995  1.00  0.00    -0.175 A  
HETATM    6  C   UNL     1      -5.738  12.013  70.269  1.00  0.00    -0.159 A  
HETATM    7  C   UNL     1      -6.190  11.976  68.941  1.00  0.00    -0.072 A  
HETATM    8  C   UNL     1      -6.524  13.222  68.377  1.00  0.00    -0.091 A  
BRANCH   7   9
HETATM    9  N   UNL     1      -6.300  10.794  68.236  1.00  0.00    -0.057 NA 
HETATM   10  C   UNL     1      -5.368   9.665  68.395  1.00  0.00    -0.033 C  
HETATM   11  C   UNL     1      -6.129   8.411  68.848  1.00  0.00    -0.044 C  
HETATM   12  N   UNL     1      -7.291   8.066  67.996  1.00  0.00    -0.094 NA 
HETATM   13  C   UNL     1      -8.119   9.231  67.558  1.00  0.00    -0.107 C  
HETATM   14  C   UNL     1      -7.331  10.525  67.222  1.00  0.00    -0.091 C  
BRANCH  12  15
HETATM   15  C   UNL     1      -7.770   6.768  67.795  1.00  0.00    -0.111 C  
HETATM   16  N   UNL     1      -8.122   6.472  66.564  1.00  0.00    -0.109 NA 
HETATM   17  C   UNL     1      -8.468   5.158  66.197  1.00  0.00    -0.115 A  
HETATM   18  C   UNL     1      -8.398   4.114  67.104  1.00  0.00    -0.100 A  
HETATM   19  C   UNL     1      -8.606   2.784  66.672  1.00  0.00    -0.113 A  
HETATM   20  C   UNL     1      -8.203   4.419  68.575  1.00  0.00    -0.084 C  
HETATM   21  F   UNL     1      -8.968   5.834  63.964  1.00  0.00     0.050 F  
HETATM   22  C   UNL     1      -8.978   2.499  65.365  1.00  0.00    -0.131 A  
HETATM   23  N   UNL     1      -7.890   5.860  68.867  1.00  0.00    -0.094 NA 
HETATM   24  C   UNL     1      -8.845   4.857  64.874  1.00  0.00    -0.152 A  
HETATM   25  C   UNL     1      -9.120   3.545  64.466  1.00  0.00    -0.130 A  
BRANCH  20  26
HETATM   26  C   UNL     1      -9.452   3.887  69.325  1.00  0.00    -0.256 C  
HETATM   27  O   UNL     1      -8.334   1.821  69.967  1.00  0.00    -0.044 OA 
HETATM   28  C   UNL     1      -9.262   2.741  70.284  1.00  0.00    -0.137 C  
HETATM   29  O   UNL     1      -9.991   2.597  71.259  1.00  0.00    -0.121 OA 
ENDBRANCH  20  26
BRANCH  23  30
HETATM   30  C   UNL     1      -7.976   6.200  70.270  1.00  0.00    -0.107 A  
HETATM   31  C   UNL     1      -9.379   6.958  72.146  1.00  0.00    -0.147 A  
HETATM   32  C   UNL     1      -9.232   6.503  70.829  1.00  0.00    -0.156 A  
HETATM   33  C   UNL     1     -10.610   7.721  72.569  1.00  0.00    -0.293 C  
HETATM   34  C   UNL     1      -8.321   6.798  73.028  1.00  0.00    -0.124 A  
HETATM   35  F   UNL     1     -11.442   8.020  71.537  1.00  0.00    -0.255 F  
HETATM   36  F   UNL     1     -11.356   7.059  73.493  1.00  0.00    -0.215 F  
HETATM   37  F   UNL     1     -10.278   8.918  73.132  1.00  0.00     0.051 F  
HETATM   38  C   UNL     1      -7.081   6.399  72.546  1.00  0.00    -0.078 A  
HETATM   39  C   UNL     1      -6.869   6.221  71.169  1.00  0.00    -0.067 A  
BRANCH  39  40
HETATM   40  O   UNL     1      -5.611   5.967  70.677  1.00  0.00    -0.013 OA 
HETATM   41  C   UNL     1      -5.270   4.612  70.394  1.00  0.00     0.000 C  
ENDBRANCH  39  40
ENDBRANCH  23  30
ENDBRANCH  12  15
ENDBRANCH   7   9
ENDBRANCH   2   3
TORSDOF 6
ENDMDL
MODEL       91
REMARK 921   NORMALIZED FREE ENERGY PREDICTED BY IDOCK:   -2.79 KCAL/MOL
REMARK 922        TOTAL FREE ENERGY PREDICTED BY IDOCK:   -5.01 KCAL/MOL
REMARK 923 INTER-LIGAND FREE ENERGY PREDICTED BY IDOCK:   -3.79 KCAL/MOL
REMARK 924 INTRA-LIGAND FREE ENERGY PREDICTED BY IDOCK:   -1.22 KCAL/MOL
REMARK 927      BINDING AFFINITY PREDICTED BY RF-SCORE:    0.00 PKD
ROOT
HETATM    1  C   UNL     1     -12.196  13.824  64.082  1.00  0.00    -0.396 C  
HETATM    2  O   UNL     1     -11.505  14.923  64.668  1.00  0.00    -0.398 OA 
ENDROOT
BRANCH   2   3
HETATM    3  C   UNL     1     -10.528  14.631  65.585  1.00  0.00    -0.342 A  
HETATM    4  C   UNL     1      -9.802  15.562  66.318  1.00  0.00    -0.317 A  
HETATM    5  C   UNL     1      -8.818  15.117  67.197  1.00  0.00    -0.236 A  
HETATM    6  C   UNL     1      -8.565  13.745  67.349  1.00  0.00    -0.208 A  
HETATM    7  C   UNL     1      -9.290  12.770  66.648  1.00  0.00    -0.242 A  
HETATM    8  C   UNL     1     -10.268  13.259  65.762  1.00  0.00    -0.296 A  
BRANCH   7   9
HETATM    9  N   UNL     1      -9.058  11.420  66.819  1.00  0.00    -0.171 NA 
HETATM   10  C   UNL     1      -7.729  10.802  66.683  1.00  0.00    -0.141 C  
HETATM   11  C   UNL     1      -7.329  10.112  67.996  1.00  0.00    -0.086 C  
HETATM   12  N   UNL     1      -8.342   9.163  68.514  1.00  0.00    -0.122 NA 
HETATM   13  C   UNL     1      -9.758   9.629  68.405  1.00  0.00    -0.150 C  
HETATM   14  C   UNL     1     -10.103  10.430  67.121  1.00  0.00    -0.208 C  
BRANCH  12  15
HETATM   15  C   UNL     1      -8.049   8.029  69.278  1.00  0.00    -0.118 C  
HETATM   16  N   UNL     1      -7.689   8.254  70.522  1.00  0.00    -0.078 NA 
HETATM   17  C   UNL     1      -7.522   7.199  71.438  1.00  0.00    -0.080 A  
HETATM   18  C   UNL     1      -7.783   5.887  71.082  1.00  0.00    -0.109 A  
HETATM   19  C   UNL     1      -7.752   4.866  72.060  1.00  0.00    -0.100 A  
HETATM   20  C   UNL     1      -7.997   5.541  69.622  1.00  0.00    -0.093 C  
HETATM   21  F   UNL     1      -6.828   8.703  73.156  1.00  0.00    -0.125 F  
HETATM   22  C   UNL     1      -7.367   5.131  73.367  1.00  0.00    -0.091 A  
HETATM   23  N   UNL     1      -8.111   6.736  68.718  1.00  0.00    -0.119 NA 
HETATM   24  C   UNL     1      -7.133   7.455  72.767  1.00  0.00    -0.069 A  
HETATM   25  C   UNL     1      -7.034   6.431  73.718  1.00  0.00    -0.082 A  
BRANCH  20  26
HETATM   26  C   UNL     1      -6.874   4.552  69.213  1.00  0.00    -0.049 C  
HETATM   27  O   UNL     1      -8.391   2.647  69.202  1.00  0.00    -0.057 OA 
HETATM   28  C   UNL     1      -7.283   3.203  68.682  1.00  0.00    -0.049 C  
HETATM   29  O   UNL     1      -6.581   2.593  67.884  1.00  0.00    -0.035 OA 
ENDBRANCH  20  26
BRANCH  23  30
HETATM   30  C   UNL     1      -8.039   6.409  67.312  1.00  0.00    -0.113 A  
HETATM   31  C   UNL     1      -9.189   5.542  65.314  1.00  0.00     0.037 A  
HETATM   32  C   UNL     1      -9.205   5.990  66.642  1.00  0.00    -0.151 A  
HETATM   33  C   UNL     1     -10.295   4.666  64.780  1.00  0.00     0.156 C  
HETATM   34  C   UNL     1      -8.079   5.820  64.531  1.00  0.00    -0.132 A  
HETATM   35  F   UNL     1     -11.180   4.271  65.732  1.00  0.00    -0.037 F  
HETATM   36  F   UNL     1     -11.020   5.264  63.797  1.00  0.00     1.323 F  
HETATM   37  F   UNL     1      -9.796   3.517  64.242  1.00  0.00    -0.138 F  
HETATM   38  C   UNL     1      -6.932   6.334  65.123  1.00  0.00    -0.056 A  
HETATM   39  C   UNL     1      -6.861   6.511  66.514  1.00  0.00    -0.065 A  
BRANCH  39  40
HETATM   40  O   UNL     1      -5.683   6.882  67.117  1.00  0.00    -0.016 OA 
HETATM   41  C   UNL     1      -5.295   8.251  67.031  1.00  0.00    -0.036 C  
ENDBRANCH  39  40
ENDBRANCH  23  30
ENDBRANCH  12  15
ENDBRANCH   7   9
ENDBRANCH   2   3
TORSDOF 6
ENDMDL
MODEL       92
REMARK 921   NORMALIZED FREE ENERGY PREDICTED BY IDOCK:   -2.71 KCAL/MOL
REMARK 922        TOTAL FREE ENERGY PREDICTED BY IDOCK:   -4.90 KCAL/MOL
REMARK 923 INTER-LIGAND FREE ENERGY PREDICTED BY IDOCK:   -4.13 KCAL/MOL
REMARK 924 INTRA-LIGAND FREE ENERGY PREDICTED BY IDOCK:   -0.77 KCAL/MOL
REMARK 927      BINDING AFFINITY PREDICTED BY RF-SCORE:    0.00 PKD
ROOT
HETATM    1  C   UNL     1      -8.816   1.745  63.875  1.00  0.00    -0.091 C  
HETATM    2  O   UNL     1      -8.582   2.351  65.142  1.00  0.00    -0.099 OA 
ENDROOT
BRANCH   2   3
HETATM    3  C   UNL     1      -9.330   3.457  65.455  1.00  0.00    -0.153 A  
HETATM    4  C   UNL     1     -10.643   3.684  65.059  1.00  0.00     0.194 A  
HETATM    5  C   UNL     1     -11.270   4.870  65.431  1.00  0.00     0.329 A  
HETATM    6  C   UNL     1     -10.590   5.824  66.204  1.00  0.00    -0.009 A  
HETATM    7  C   UNL     1      -9.273   5.626  66.646  1.00  0.00    -0.134 A  
HETATM    8  C   UNL     1      -8.670   4.420  66.240  1.00  0.00    -0.113 A  
BRANCH   7   9
HETATM    9  N   UNL     1      -8.615   6.553  67.428  1.00  0.00    -0.118 NA 
HETATM   10  C   UNL     1      -7.328   7.164  67.052  1.00  0.00    -0.089 C  
HETATM   11  C   UNL     1      -7.474   8.690  66.960  1.00  0.00    -0.084 C  
HETATM   12  N   UNL     1      -8.064   9.316  68.167  1.00  0.00    -0.106 NA 
HETATM   13  C   UNL     1      -9.209   8.568  68.769  1.00  0.00    -0.142 C  
HETATM   14  C   UNL     1      -9.090   7.020  68.739  1.00  0.00    -0.133 C  
BRANCH  12  15
HETATM   15  C   UNL     1      -7.786  10.615  68.603  1.00  0.00    -0.121 C  
HETATM   16  N   UNL     1      -7.010  10.710  69.659  1.00  0.00    -0.120 NA 
HETATM   17  C   UNL     1      -6.526  11.956  70.101  1.00  0.00     0.098 A  
HETATM   18  C   UNL     1      -6.802  13.123  69.411  1.00  0.00     0.032 A  
HETATM   19  C   UNL     1      -6.182  14.337  69.790  1.00  0.00    -0.139 A  
HETATM   20  C   UNL     1      -7.852  13.111  68.318  1.00  0.00    -0.143 C  
HETATM   21  F   UNL     1      -5.428  10.950  71.966  1.00  0.00     0.030 F  
HETATM   22  C   UNL     1      -5.367  14.410  70.912  1.00  0.00    -0.147 A  
HETATM   23  N   UNL     1      -8.342  11.737  67.954  1.00  0.00    -0.141 NA 
HETATM   24  C   UNL     1      -5.697  12.043  71.236  1.00  0.00     0.278 A  
HETATM   25  C   UNL     1      -5.140  13.260  71.652  1.00  0.00    -0.175 A  
BRANCH  20  26
HETATM   26  C   UNL     1      -8.980  14.083  68.750  1.00  0.00    -0.030 C  
HETATM   27  O   UNL     1      -8.218  15.831  67.235  1.00  0.00    -0.156 OA 
HETATM   28  C   UNL     1      -9.264  15.269  67.866  1.00  0.00    -0.184 C  
HETATM   29  O   UNL     1     -10.384  15.765  67.804  1.00  0.00    -0.262 OA 
ENDBRANCH  20  26
BRANCH  23  30
HETATM   30  C   UNL     1      -9.523  11.744  67.120  1.00  0.00    -0.175 A  
HETATM   31  C   UNL     1     -10.479  11.516  64.862  1.00  0.00    -0.345 A  
HETATM   32  C   UNL     1      -9.404  11.414  65.756  1.00  0.00    -0.247 A  
HETATM   33  C   UNL     1     -10.241  11.635  63.377  1.00  0.00    -0.433 C  
HETATM   34  C   UNL     1     -11.763  11.625  65.373  1.00  0.00     0.002 A  
HETATM   35  F   UNL     1      -8.929  11.768  63.048  1.00  0.00    -0.218 F  
HETATM   36  F   UNL     1     -10.713  10.570  62.675  1.00  0.00     0.117 F  
HETATM   37  F   UNL     1     -10.862  12.736  62.865  1.00  0.00    -0.235 F  
HETATM   38  C   UNL     1     -11.943  11.848  66.733  1.00  0.00     0.012 A  
HETATM   39  C   UNL     1     -10.841  12.032  67.582  1.00  0.00    -0.231 A  
BRANCH  39  40
HETATM   40  O   UNL     1     -11.017  12.395  68.896  1.00  0.00    -0.229 OA 
HETATM   41  C   UNL     1     -11.337  11.368  69.831  1.00  0.00    -0.219 C  
ENDBRANCH  39  40
ENDBRANCH  23  30
ENDBRANCH  12  15
ENDBRANCH   7   9
ENDBRANCH   2   3
TORSDOF 6
ENDMDL
MODEL       93
REMARK 921   NORMALIZED FREE ENERGY PREDICTED BY IDOCK:   -2.69 KCAL/MOL
REMARK 922        TOTAL FREE ENERGY PREDICTED BY IDOCK:   -4.87 KCAL/MOL
REMARK 923 INTER-LIGAND FREE ENERGY PREDICTED BY IDOCK:   -4.35 KCAL/MOL
REMARK 924 INTRA-LIGAND FREE ENERGY PREDICTED BY IDOCK:   -0.52 KCAL/MOL
REMARK 927      BINDING AFFINITY PREDICTED BY RF-SCORE:    0.00 PKD
ROOT
HETATM    1  C   UNL     1     -14.221   6.028  72.243  1.00  0.00     0.887 C  
HETATM    2  O   UNL     1     -12.991   5.322  72.115  1.00  0.00     1.101 OA 
ENDROOT
BRANCH   2   3
HETATM    3  C   UNL     1     -11.855   5.960  72.545  1.00  0.00    -0.185 A  
HETATM    4  C   UNL     1     -10.933   5.448  73.450  1.00  0.00    -0.349 A  
HETATM    5  C   UNL     1      -9.837   6.224  73.816  1.00  0.00    -0.212 A  
HETATM    6  C   UNL     1      -9.656   7.505  73.272  1.00  0.00    -0.308 A  
HETATM    7  C   UNL     1     -10.548   8.052  72.337  1.00  0.00    -0.307 A  
HETATM    8  C   UNL     1     -11.650   7.241  72.001  1.00  0.00    -0.311 A  
BRANCH   7   9
HETATM    9  N   UNL     1     -10.356   9.301  71.783  1.00  0.00    -0.261 NA 
HETATM   10  C   UNL     1      -9.046   9.791  71.322  1.00  0.00     0.976 C  
HETATM   11  C   UNL     1      -9.106  10.135  69.826  1.00  0.00    -0.136 C  
HETATM   12  N   UNL     1     -10.212  11.052  69.460  1.00  0.00    -0.077 NA 
HETATM   13  C   UNL     1     -11.514  10.771  70.137  1.00  0.00    -0.331 C  
HETATM   14  C   UNL     1     -11.416  10.307  71.615  1.00  0.00     0.352 C  
BRANCH  12  15
HETATM   15  C   UNL     1     -10.172  11.957  68.395  1.00  0.00    -0.204 C  
HETATM   16  N   UNL     1     -10.791  13.099  68.591  1.00  0.00    -0.255 NA 
HETATM   17  C   UNL     1     -10.691  14.154  67.664  1.00  0.00    -0.257 A  
HETATM   18  C   UNL     1      -9.893  14.052  66.539  1.00  0.00    -0.298 A  
HETATM   19  C   UNL     1      -9.693  15.177  65.705  1.00  0.00    -0.351 A  
HETATM   20  C   UNL     1      -9.324  12.702  66.150  1.00  0.00    -0.112 C  
HETATM   21  F   UNL     1     -12.182  15.513  68.940  1.00  0.00    -0.333 F  
HETATM   22  C   UNL     1     -10.361  16.372  65.934  1.00  0.00    -0.378 A  
HETATM   23  N   UNL     1      -9.528  11.630  67.183  1.00  0.00    -0.175 NA 
HETATM   24  C   UNL     1     -11.363  15.372  67.887  1.00  0.00    -0.325 A  
HETATM   25  C   UNL     1     -11.219  16.463  67.020  1.00  0.00     0.192 A  
BRANCH  20  26
HETATM   26  C   UNL     1      -9.899  12.343  64.755  1.00  0.00    -0.103 C  
HETATM   27  O   UNL     1     -12.157  12.069  65.625  1.00  0.00    -0.508 OA 
HETATM   28  C   UNL     1     -11.393  12.408  64.573  1.00  0.00    -0.328 C  
HETATM   29  O   UNL     1     -11.892  12.660  63.481  1.00  0.00    -0.476 OA 
ENDBRANCH  20  26
BRANCH  23  30
HETATM   30  C   UNL     1      -9.235  10.298  66.703  1.00  0.00    -0.155 A  
HETATM   31  C   UNL     1      -9.936   7.943  66.537  1.00  0.00    -0.267 A  
HETATM   32  C   UNL     1     -10.195   9.281  66.866  1.00  0.00    -0.327 A  
HETATM   33  C   UNL     1     -10.747   6.826  67.146  1.00  0.00    -0.371 C  
HETATM   34  C   UNL     1      -8.845   7.654  65.733  1.00  0.00    -0.134 A  
HETATM   35  F   UNL     1     -11.613   7.246  68.105  1.00  0.00     0.157 F  
HETATM   36  F   UNL     1     -11.483   6.142  66.229  1.00  0.00    -0.127 F  
HETATM   37  F   UNL     1      -9.943   5.907  67.753  1.00  0.00    -0.113 F  
HETATM   38  C   UNL     1      -7.917   8.650  65.452  1.00  0.00    -0.111 A  
HETATM   39  C   UNL     1      -8.035   9.924  66.028  1.00  0.00    -0.114 A  
BRANCH  39  40
HETATM   40  O   UNL     1      -7.045  10.864  65.869  1.00  0.00    -0.116 OA 
HETATM   41  C   UNL     1      -6.330  10.872  64.636  1.00  0.00     0.395 C  
ENDBRANCH  39  40
ENDBRANCH  23  30
ENDBRANCH  12  15
ENDBRANCH   7   9
ENDBRANCH   2   3
TORSDOF 6
ENDMDL
MODEL       94
REMARK 921   NORMALIZED FREE ENERGY PREDICTED BY IDOCK:   -2.68 KCAL/MOL
REMARK 922        TOTAL FREE ENERGY PREDICTED BY IDOCK:   -4.86 KCAL/MOL
REMARK 923 INTER-LIGAND FREE ENERGY PREDICTED BY IDOCK:   -3.95 KCAL/MOL
REMARK 924 INTRA-LIGAND FREE ENERGY PREDICTED BY IDOCK:   -0.91 KCAL/MOL
REMARK 927      BINDING AFFINITY PREDICTED BY RF-SCORE:    0.00 PKD
ROOT
HETATM    1  C   UNL     1      -5.803   4.960  73.226  1.00  0.00    -0.018 C  
HETATM    2  O   UNL     1      -6.479   3.707  73.279  1.00  0.00    -0.026 OA 
ENDROOT
BRANCH   2   3
HETATM    3  C   UNL     1      -7.805   3.696  72.930  1.00  0.00    -0.066 A  
HETATM    4  C   UNL     1      -8.541   2.568  72.586  1.00  0.00    -0.070 A  
HETATM    5  C   UNL     1      -9.878   2.713  72.225  1.00  0.00    -0.230 A  
HETATM    6  C   UNL     1     -10.481   3.980  72.218  1.00  0.00    -0.121 A  
HETATM    7  C   UNL     1      -9.783   5.142  72.581  1.00  0.00    -0.152 A  
HETATM    8  C   UNL     1      -8.431   4.955  72.928  1.00  0.00    -0.108 A  
BRANCH   7   9
HETATM    9  N   UNL     1     -10.385   6.384  72.598  1.00  0.00    -0.190 NA 
HETATM   10  C   UNL     1      -9.834   7.542  73.322  1.00  0.00    -0.288 C  
HETATM   11  C   UNL     1      -9.556   8.693  72.345  1.00  0.00    -0.235 C  
HETATM   12  N   UNL     1     -10.714   9.059  71.494  1.00  0.00    -0.325 NA 
HETATM   13  C   UNL     1     -11.496   7.902  70.963  1.00  0.00    -0.280 C  
HETATM   14  C   UNL     1     -11.657   6.700  71.931  1.00  0.00    -0.303 C  
BRANCH  12  15
HETATM   15  C   UNL     1     -10.954  10.341  70.990  1.00  0.00     0.085 C  
HETATM   16  N   UNL     1     -12.033  10.940  71.442  1.00  0.00    -0.134 NA 
HETATM   17  C   UNL     1     -12.304  12.288  71.138  1.00  0.00    -0.147 A  
HETATM   18  C   UNL     1     -11.417  13.052  70.399  1.00  0.00     0.246 A  
HETATM   19  C   UNL     1     -11.640  14.439  70.236  1.00  0.00    -0.311 A  
HETATM   20  C   UNL     1     -10.269  12.373  69.680  1.00  0.00     1.054 C  
HETATM   21  F   UNL     1     -14.379  12.213  72.315  1.00  0.00    -0.021 F  
HETATM   22  C   UNL     1     -12.790  15.047  70.723  1.00  0.00    -0.447 A  
HETATM   23  N   UNL     1     -10.096  10.922  70.034  1.00  0.00     0.342 NA 
HETATM   24  C   UNL     1     -13.465  12.915  71.627  1.00  0.00    -0.174 A  
HETATM   25  C   UNL     1     -13.719  14.275  71.404  1.00  0.00    -0.382 A  
BRANCH  20  26
HETATM   26  C   UNL     1     -10.460  12.628  68.163  1.00  0.00    -0.239 C  
HETATM   27  O   UNL     1      -8.848  14.453  68.146  1.00  0.00    -0.166 OA 
HETATM   28  C   UNL     1      -9.419  13.454  67.452  1.00  0.00    -0.222 C  
HETATM   29  O   UNL     1      -9.177  13.288  66.262  1.00  0.00    -0.179 OA 
ENDBRANCH  20  26
BRANCH  23  30
HETATM   30  C   UNL     1      -9.191  10.215  69.156  1.00  0.00    -0.197 A  
HETATM   31  C   UNL     1      -8.817   9.154  66.966  1.00  0.00    -0.135 A  
HETATM   32  C   UNL     1      -9.589   9.938  67.834  1.00  0.00    -0.157 A  
HETATM   33  C   UNL     1      -9.444   8.476  65.773  1.00  0.00    -0.064 C  
HETATM   34  C   UNL     1      -7.489   8.915  67.286  1.00  0.00    -0.084 A  
HETATM   35  F   UNL     1     -10.797   8.596  65.731  1.00  0.00     0.658 F  
HETATM   36  F   UNL     1      -8.974   8.945  64.586  1.00  0.00    -0.219 F  
HETATM   37  F   UNL     1      -9.194   7.135  65.780  1.00  0.00    -0.152 F  
HETATM   38  C   UNL     1      -7.014   9.263  68.544  1.00  0.00    -0.067 A  
HETATM   39  C   UNL     1      -7.877   9.791  69.516  1.00  0.00    -0.128 A  
BRANCH  39  40
HETATM   40  O   UNL     1      -7.444  10.002  70.804  1.00  0.00    -0.298 OA 
HETATM   41  C   UNL     1      -6.039  10.117  71.021  1.00  0.00    -0.003 C  
ENDBRANCH  39  40
ENDBRANCH  23  30
ENDBRANCH  12  15
ENDBRANCH   7   9
ENDBRANCH   2   3
TORSDOF 6
ENDMDL
MODEL       95
REMARK 921   NORMALIZED FREE ENERGY PREDICTED BY IDOCK:   -2.64 KCAL/MOL
REMARK 922        TOTAL FREE ENERGY PREDICTED BY IDOCK:   -4.81 KCAL/MOL
REMARK 923 INTER-LIGAND FREE ENERGY PREDICTED BY IDOCK:   -3.40 KCAL/MOL
REMARK 924 INTRA-LIGAND FREE ENERGY PREDICTED BY IDOCK:   -1.41 KCAL/MOL
REMARK 927      BINDING AFFINITY PREDICTED BY RF-SCORE:    0.00 PKD
ROOT
HETATM    1  C   UNL     1      -5.208   8.245  71.836  1.00  0.00    -0.035 C  
HETATM    2  O   UNL     1      -5.972   8.508  73.009  1.00  0.00    -0.076 OA 
ENDROOT
BRANCH   2   3
HETATM    3  C   UNL     1      -7.330   8.337  72.923  1.00  0.00    -0.104 A  
HETATM    4  C   UNL     1      -8.142   7.802  73.916  1.00  0.00    -0.246 A  
HETATM    5  C   UNL     1      -9.507   7.664  73.677  1.00  0.00    -0.340 A  
HETATM    6  C   UNL     1     -10.060   8.066  72.452  1.00  0.00    -0.332 A  
HETATM    7  C   UNL     1      -9.282   8.633  71.431  1.00  0.00    -0.235 A  
HETATM    8  C   UNL     1      -7.906   8.746  71.707  1.00  0.00    -0.097 A  
BRANCH   7   9
HETATM    9  N   UNL     1      -9.832   9.052  70.236  1.00  0.00    -0.182 NA 
HETATM   10  C   UNL     1     -11.189   9.613  70.121  1.00  0.00    -0.256 C  
HETATM   11  C   UNL     1     -11.125  11.036  69.547  1.00  0.00    -0.263 C  
HETATM   12  N   UNL     1     -10.360  11.146  68.283  1.00  0.00    -0.173 NA 
HETATM   13  C   UNL     1      -9.097  10.348  68.239  1.00  0.00    -0.145 C  
HETATM   14  C   UNL     1      -9.156   8.962  68.934  1.00  0.00    -0.140 C  
BRANCH  12  15
HETATM   15  C   UNL     1     -10.612  12.091  67.283  1.00  0.00    -0.222 C  
HETATM   16  N   UNL     1     -10.883  11.606  66.092  1.00  0.00    -0.286 NA 
HETATM   17  C   UNL     1     -11.309  12.440  65.042  1.00  0.00    -0.320 A  
HETATM   18  C   UNL     1     -11.513  13.795  65.235  1.00  0.00    -0.320 A  
HETATM   19  C   UNL     1     -12.083  14.581  64.206  1.00  0.00    -0.448 A  
HETATM   20  C   UNL     1     -11.024  14.447  66.512  1.00  0.00    -0.316 C  
HETATM   21  F   UNL     1     -11.376  10.606  63.515  1.00  0.00     0.123 F  
HETATM   22  C   UNL     1     -12.359  14.043  62.956  1.00  0.00     0.857 A  
HETATM   23  N   UNL     1     -10.541  13.474  67.551  1.00  0.00    -0.243 NA 
HETATM   24  C   UNL     1     -11.593  11.906  63.770  1.00  0.00    -0.462 A  
HETATM   25  C   UNL     1     -12.092  12.701  62.730  1.00  0.00     0.573 A  
BRANCH  20  26
HETATM   26  C   UNL     1      -9.968  15.510  66.113  1.00  0.00    -0.332 C  
HETATM   27  O   UNL     1     -10.994  17.225  67.505  1.00  0.00    -0.256 OA 
HETATM   28  C   UNL     1      -9.859  16.748  66.964  1.00  0.00    -0.262 C  
HETATM   29  O   UNL     1      -8.799  17.353  67.077  1.00  0.00    -0.222 OA 
ENDBRANCH  20  26
BRANCH  23  30
HETATM   30  C   UNL     1      -9.829  14.097  68.644  1.00  0.00    -0.206 A  
HETATM   31  C   UNL     1      -7.662  14.739  69.620  1.00  0.00    -0.011 A  
HETATM   32  C   UNL     1      -8.433  14.256  68.555  1.00  0.00    -0.164 A  
HETATM   33  C   UNL     1      -6.182  14.454  69.696  1.00  0.00    -0.126 C  
HETATM   34  C   UNL     1      -8.301  15.385  70.667  1.00  0.00     1.790 A  
HETATM   35  F   UNL     1      -5.745  13.600  68.734  1.00  0.00    -0.076 F  
HETATM   36  F   UNL     1      -5.418  15.575  69.597  1.00  0.00    -0.101 F  
HETATM   37  F   UNL     1      -5.852  13.870  70.883  1.00  0.00    -0.151 F  
HETATM   38  C   UNL     1      -9.688  15.349  70.750  1.00  0.00     1.063 A  
HETATM   39  C   UNL     1     -10.443  14.612  69.824  1.00  0.00     0.007 A  
BRANCH  39  40
HETATM   40  O   UNL     1     -11.799  14.457  69.986  1.00  0.00    -0.279 OA 
HETATM   41  C   UNL     1     -12.465  15.337  70.888  1.00  0.00    -0.388 C  
ENDBRANCH  39  40
ENDBRANCH  23  30
ENDBRANCH  12  15
ENDBRANCH   7   9
ENDBRANCH   2   3
TORSDOF 6
ENDMDL
MODEL       96
REMARK 921   NORMALIZED FREE ENERGY PREDICTED BY IDOCK:   -2.62 KCAL/MOL
REMARK 922        TOTAL FREE ENERGY PREDICTED BY IDOCK:   -4.78 KCAL/MOL
REMARK 923 INTER-LIGAND FREE ENERGY PREDICTED BY IDOCK:   -4.53 KCAL/MOL
REMARK 924 INTRA-LIGAND FREE ENERGY PREDICTED BY IDOCK:   -0.25 KCAL/MOL
REMARK 927      BINDING AFFINITY PREDICTED BY RF-SCORE:    0.00 PKD
ROOT
HETATM    1  C   UNL     1     -10.839   7.251  67.395  1.00  0.00    -0.247 C  
HETATM    2  O   UNL     1     -10.336   8.571  67.577  1.00  0.00    -0.232 OA 
ENDROOT
BRANCH   2   3
HETATM    3  C   UNL     1      -8.986   8.754  67.418  1.00  0.00    -0.133 A  
HETATM    4  C   UNL     1      -8.111   7.851  66.827  1.00  0.00    -0.108 A  
HETATM    5  C   UNL     1      -6.756   8.162  66.759  1.00  0.00    -0.064 A  
HETATM    6  C   UNL     1      -6.277   9.377  67.273  1.00  0.00    -0.057 A  
HETATM    7  C   UNL     1      -7.127  10.328  67.856  1.00  0.00    -0.084 A  
HETATM    8  C   UNL     1      -8.488   9.972  67.916  1.00  0.00    -0.118 A  
BRANCH   7   9
HETATM    9  N   UNL     1      -6.658  11.534  68.337  1.00  0.00    -0.058 NA 
HETATM   10  C   UNL     1      -5.879  12.484  67.525  1.00  0.00    -0.145 C  
HETATM   11  C   UNL     1      -6.607  13.833  67.444  1.00  0.00     0.053 C  
HETATM   12  N   UNL     1      -6.986  14.396  68.762  1.00  0.00    -0.094 NA 
HETATM   13  C   UNL     1      -7.520  13.403  69.742  1.00  0.00     0.834 C  
HETATM   14  C   UNL     1      -6.844  12.006  69.718  1.00  0.00     0.168 C  
BRANCH  12  15
HETATM   15  C   UNL     1      -7.096  15.763  69.038  1.00  0.00    -0.159 C  
HETATM   16  N   UNL     1      -6.451  16.185  70.102  1.00  0.00    -0.018 NA 
HETATM   17  C   UNL     1      -6.350  17.558  70.400  1.00  0.00     0.602 A  
HETATM   18  C   UNL     1      -6.876  18.519  69.555  1.00  0.00    -0.097 A  
HETATM   19  C   UNL     1      -6.631  19.890  69.800  1.00  0.00    -0.353 A  
HETATM   20  C   UNL     1      -7.803  18.097  68.433  1.00  0.00    -0.297 C  
HETATM   21  F   UNL     1      -5.162  17.106  72.420  1.00  0.00     0.173 F  
HETATM   22  C   UNL     1      -5.947  20.310  70.934  1.00  0.00    -0.316 A  
HETATM   23  N   UNL     1      -7.882  16.610  68.229  1.00  0.00    -0.175 NA 
HETATM   24  C   UNL     1      -5.658  17.995  71.546  1.00  0.00     0.380 A  
HETATM   25  C   UNL     1      -5.477  19.356  71.823  1.00  0.00    -0.342 A  
BRANCH  20  26
HETATM   26  C   UNL     1      -9.177  18.766  68.693  1.00  0.00    -0.386 C  
HETATM   27  O   UNL     1      -8.740  20.557  67.101  1.00  0.00    -0.336 OA 
HETATM   28  C   UNL     1      -9.665  19.782  67.693  1.00  0.00    -0.371 C  
HETATM   29  O   UNL     1     -10.863  19.965  67.503  1.00  0.00    -0.357 OA 
ENDBRANCH  20  26
BRANCH  23  30
HETATM   30  C   UNL     1      -8.959  16.200  67.356  1.00  0.00    -0.191 A  
HETATM   31  C   UNL     1     -10.879  14.706  66.978  1.00  0.00    -0.304 A  
HETATM   32  C   UNL     1      -9.884  15.240  67.808  1.00  0.00    -0.220 A  
HETATM   33  C   UNL     1     -11.524  13.380  67.297  1.00  0.00    -0.340 C  
HETATM   34  C   UNL     1     -11.180  15.360  65.793  1.00  0.00    -0.196 A  
HETATM   35  F   UNL     1     -10.951  12.739  68.349  1.00  0.00    -0.228 F  
HETATM   36  F   UNL     1     -12.849  13.487  67.581  1.00  0.00     0.071 F  
HETATM   37  F   UNL     1     -11.427  12.519  66.244  1.00  0.00    -0.324 F  
HETATM   38  C   UNL     1     -10.357  16.388  65.349  1.00  0.00    -0.287 A  
HETATM   39  C   UNL     1      -9.190  16.726  66.050  1.00  0.00    -0.201 A  
BRANCH  39  40
HETATM   40  O   UNL     1      -8.301  17.642  65.539  1.00  0.00    -0.251 OA 
HETATM   41  C   UNL     1      -6.911  17.343  65.636  1.00  0.00     0.279 C  
ENDBRANCH  39  40
ENDBRANCH  23  30
ENDBRANCH  12  15
ENDBRANCH   7   9
ENDBRANCH   2   3
TORSDOF 6
ENDMDL
MODEL       97
REMARK 921   NORMALIZED FREE ENERGY PREDICTED BY IDOCK:   -2.48 KCAL/MOL
REMARK 922        TOTAL FREE ENERGY PREDICTED BY IDOCK:   -4.59 KCAL/MOL
REMARK 923 INTER-LIGAND FREE ENERGY PREDICTED BY IDOCK:   -4.63 KCAL/MOL
REMARK 924 INTRA-LIGAND FREE ENERGY PREDICTED BY IDOCK:    0.05 KCAL/MOL
REMARK 927      BINDING AFFINITY PREDICTED BY RF-SCORE:    0.00 PKD
ROOT
HETATM    1  C   UNL     1      -8.576   7.158  64.271  1.00  0.00     0.417 C  
HETATM    2  O   UNL     1      -8.430   8.449  64.855  1.00  0.00    -0.167 OA 
ENDROOT
BRANCH   2   3
HETATM    3  C   UNL     1      -8.003   8.502  66.158  1.00  0.00    -0.102 A  
HETATM    4  C   UNL     1      -7.439   7.450  66.868  1.00  0.00    -0.097 A  
HETATM    5  C   UNL     1      -7.077   7.644  68.198  1.00  0.00    -0.081 A  
HETATM    6  C   UNL     1      -7.268   8.890  68.814  1.00  0.00    -0.075 A  
HETATM    7  C   UNL     1      -7.811   9.987  68.128  1.00  0.00    -0.089 A  
HETATM    8  C   UNL     1      -8.176   9.747  66.790  1.00  0.00    -0.120 A  
BRANCH   7   9
HETATM    9  N   UNL     1      -7.975  11.220  68.728  1.00  0.00    -0.147 NA 
HETATM   10  C   UNL     1      -6.879  11.957  69.378  1.00  0.00    -0.048 C  
HETATM   11  C   UNL     1      -6.688  13.323  68.703  1.00  0.00    -0.095 C  
HETATM   12  N   UNL     1      -7.928  14.128  68.603  1.00  0.00    -0.140 NA 
HETATM   13  C   UNL     1      -9.151  13.358  68.224  1.00  0.00    -0.181 C  
HETATM   14  C   UNL     1      -9.259  11.931  68.826  1.00  0.00     0.034 C  
BRANCH  12  15
HETATM   15  C   UNL     1      -7.969  15.526  68.603  1.00  0.00    -0.146 C  
HETATM   16  N   UNL     1      -7.052  16.125  69.330  1.00  0.00    -0.213 NA 
HETATM   17  C   UNL     1      -6.884  17.523  69.289  1.00  0.00    -0.196 A  
HETATM   18  C   UNL     1      -7.638  18.315  68.441  1.00  0.00    -0.302 A  
HETATM   19  C   UNL     1      -7.347  19.693  68.311  1.00  0.00    -0.351 A  
HETATM   20  C   UNL     1      -8.841  17.718  67.738  1.00  0.00    -0.249 C  
HETATM   21  F   UNL     1      -5.167  17.437  70.945  1.00  0.00    -0.225 F  
HETATM   22  C   UNL     1      -6.374  20.301  69.093  1.00  0.00    -0.339 A  
HETATM   23  N   UNL     1      -8.960  16.228  67.885  1.00  0.00    -0.187 NA 
HETATM   24  C   UNL     1      -5.900  18.151  70.076  1.00  0.00    -0.212 A  
HETATM   25  C   UNL     1      -5.660  19.529  69.996  1.00  0.00    -0.266 A  
BRANCH  20  26
HETATM   26  C   UNL     1     -10.091  18.496  68.224  1.00  0.00    -0.424 C  
HETATM   27  O   UNL     1     -10.003  20.047  66.348  1.00  0.00    -0.425 OA 
HETATM   28  C   UNL     1     -10.778  19.408  67.241  1.00  0.00    -0.490 C  
HETATM   29  O   UNL     1     -11.981  19.637  67.317  1.00  0.00     1.090 OA 
ENDBRANCH  20  26
BRANCH  23  30
HETATM   30  C   UNL     1     -10.236  15.702  67.455  1.00  0.00    -0.263 A  
HETATM   31  C   UNL     1     -11.648  14.926  65.593  1.00  0.00    -0.245 A  
HETATM   32  C   UNL     1     -10.408  15.328  66.109  1.00  0.00    -0.314 A  
HETATM   33  C   UNL     1     -11.930  15.000  64.113  1.00  0.00    -0.201 C  
HETATM   34  C   UNL     1     -12.654  14.569  66.477  1.00  0.00     0.129 A  
HETATM   35  F   UNL     1     -10.942  15.605  63.402  1.00  0.00     1.036 F  
HETATM   36  F   UNL     1     -12.126  13.779  63.546  1.00  0.00    -0.490 F  
HETATM   37  F   UNL     1     -13.059  15.723  63.862  1.00  0.00     0.105 F  
HETATM   38  C   UNL     1     -12.494  14.820  67.834  1.00  0.00     0.386 A  
HETATM   39  C   UNL     1     -11.358  15.492  68.311  1.00  0.00    -0.357 A  
BRANCH  39  40
HETATM   40  O   UNL     1     -11.263  15.869  69.630  1.00  0.00    -0.281 OA 
HETATM   41  C   UNL     1     -11.858  15.019  70.607  1.00  0.00    -0.313 C  
ENDBRANCH  39  40
ENDBRANCH  23  30
ENDBRANCH  12  15
ENDBRANCH   7   9
ENDBRANCH   2   3
TORSDOF 6
ENDMDL
MODEL       98
REMARK 921   NORMALIZED FREE ENERGY PREDICTED BY IDOCK:   -2.20 KCAL/MOL
REMARK 922        TOTAL FREE ENERGY PREDICTED BY IDOCK:   -4.20 KCAL/MOL
REMARK 923 INTER-LIGAND FREE ENERGY PREDICTED BY IDOCK:   -2.90 KCAL/MOL
REMARK 924 INTRA-LIGAND FREE ENERGY PREDICTED BY IDOCK:   -1.31 KCAL/MOL
REMARK 927      BINDING AFFINITY PREDICTED BY RF-SCORE:    0.00 PKD
ROOT
HETATM    1  C   UNL     1      -5.909   2.439  62.519  1.00  0.00    -0.009 C  
HETATM    2  O   UNL     1      -6.242   2.861  63.838  1.00  0.00    -0.017 OA 
ENDROOT
BRANCH   2   3
HETATM    3  C   UNL     1      -7.474   3.435  64.020  1.00  0.00    -0.067 A  
HETATM    4  C   UNL     1      -8.694   2.845  63.715  1.00  0.00    -0.089 A  
HETATM    5  C   UNL     1      -9.869   3.563  63.928  1.00  0.00    -0.171 A  
HETATM    6  C   UNL     1      -9.824   4.863  64.454  1.00  0.00     0.374 A  
HETATM    7  C   UNL     1      -8.616   5.488  64.799  1.00  0.00    -0.091 A  
HETATM    8  C   UNL     1      -7.451   4.735  64.558  1.00  0.00    -0.071 A  
BRANCH   7   9
HETATM    9  N   UNL     1      -8.576   6.757  65.341  1.00  0.00    -0.098 NA 
HETATM   10  C   UNL     1      -8.053   7.930  64.620  1.00  0.00    -0.125 C  
HETATM   11  C   UNL     1      -9.145   9.002  64.492  1.00  0.00     0.081 C  
HETATM   12  N   UNL     1      -9.786   9.369  65.777  1.00  0.00    -0.306 NA 
HETATM   13  C   UNL     1     -10.077   8.221  66.688  1.00  0.00    -0.281 C  
HETATM   14  C   UNL     1      -9.011   7.092  66.705  1.00  0.00    -0.137 C  
BRANCH  12  15
HETATM   15  C   UNL     1     -10.326  10.627  66.063  1.00  0.00    -0.225 C  
HETATM   16  N   UNL     1     -10.739  11.322  65.026  1.00  0.00    -0.281 NA 
HETATM   17  C   UNL     1     -11.445  12.529  65.189  1.00  0.00    -0.328 A  
HETATM   18  C   UNL     1     -11.780  13.005  66.444  1.00  0.00    -0.444 A  
HETATM   19  C   UNL     1     -12.616  14.138  66.574  1.00  0.00    -0.164 A  
HETATM   20  C   UNL     1     -11.160  12.368  67.672  1.00  0.00    -0.259 C  
HETATM   21  F   UNL     1     -11.547  12.871  62.829  1.00  0.00    -0.335 F  
HETATM   22  C   UNL     1     -13.037  14.855  65.462  1.00  0.00     0.614 A  
HETATM   23  N   UNL     1     -10.384  11.113  67.386  1.00  0.00    -0.189 NA 
HETATM   24  C   UNL     1     -11.878  13.264  64.069  1.00  0.00    -0.455 A  
HETATM   25  C   UNL     1     -12.648  14.428  64.202  1.00  0.00    -0.077 A  
BRANCH  20  26
HETATM   26  C   UNL     1     -10.332  13.464  68.392  1.00  0.00    -0.253 C  
HETATM   27  O   UNL     1     -12.056  13.828  70.074  1.00  0.00    -0.313 OA 
HETATM   28  C   UNL     1     -10.742  13.851  69.789  1.00  0.00     0.266 C  
HETATM   29  O   UNL     1      -9.923  14.267  70.601  1.00  0.00     1.444 OA 
ENDBRANCH  20  26
BRANCH  23  30
HETATM   30  C   UNL     1      -9.575  10.665  68.497  1.00  0.00    -0.175 A  
HETATM   31  C   UNL     1      -7.333  10.474  69.497  1.00  0.00    -0.148 A  
HETATM   32  C   UNL     1      -8.202  10.975  68.518  1.00  0.00    -0.146 A  
HETATM   33  C   UNL     1      -5.846  10.403  69.248  1.00  0.00    -0.037 C  
HETATM   34  C   UNL     1      -7.873   9.934  70.654  1.00  0.00     0.174 A  
HETATM   35  F   UNL     1      -5.493  10.732  67.978  1.00  0.00    -0.038 F  
HETATM   36  F   UNL     1      -5.129  11.211  70.074  1.00  0.00    -0.047 F  
HETATM   37  F   UNL     1      -5.374   9.139  69.446  1.00  0.00    -0.034 F  
HETATM   38  C   UNL     1      -9.241   9.702  70.729  1.00  0.00    -0.059 A  
HETATM   39  C   UNL     1     -10.071   9.944  69.623  1.00  0.00    -0.230 A  
BRANCH  39  40
HETATM   40  O   UNL     1     -11.397   9.582  69.645  1.00  0.00    -0.165 OA 
HETATM   41  C   UNL     1     -11.751   8.404  70.366  1.00  0.00     0.014 C  
ENDBRANCH  39  40
ENDBRANCH  23  30
ENDBRANCH  12  15
ENDBRANCH   7   9
ENDBRANCH   2   3
TORSDOF 6
ENDMDL
MODEL       99
REMARK 921   NORMALIZED FREE ENERGY PREDICTED BY IDOCK:   -1.66 KCAL/MOL
REMARK 922        TOTAL FREE ENERGY PREDICTED BY IDOCK:   -3.48 KCAL/MOL
REMARK 923 INTER-LIGAND FREE ENERGY PREDICTED BY IDOCK:   -3.39 KCAL/MOL
REMARK 924 INTRA-LIGAND FREE ENERGY PREDICTED BY IDOCK:   -0.09 KCAL/MOL
REMARK 927      BINDING AFFINITY PREDICTED BY RF-SCORE:    0.00 PKD
ROOT
HETATM    1  C   UNL     1      -6.984  13.942  69.856  1.00  0.00     0.205 C  
HETATM    2  O   UNL     1      -7.572  14.888  68.969  1.00  0.00    -0.131 OA 
ENDROOT
BRANCH   2   3
HETATM    3  C   UNL     1      -8.579  14.439  68.153  1.00  0.00    -0.166 A  
HETATM    4  C   UNL     1      -9.487  15.241  67.473  1.00  0.00    -0.202 A  
HETATM    5  C   UNL     1     -10.477  14.641  66.698  1.00  0.00    -0.278 A  
HETATM    6  C   UNL     1     -10.553  13.243  66.596  1.00  0.00    -0.283 A  
HETATM    7  C   UNL     1      -9.642  12.397  67.245  1.00  0.00    -0.199 A  
HETATM    8  C   UNL     1      -8.664  13.040  68.027  1.00  0.00    -0.187 A  
BRANCH   7   9
HETATM    9  N   UNL     1      -9.701  11.023  67.122  1.00  0.00    -0.172 NA 
HETATM   10  C   UNL     1      -9.753  10.326  65.826  1.00  0.00    -0.238 C  
HETATM   11  C   UNL     1      -8.552   9.378  65.687  1.00  0.00    -0.142 C  
HETATM   12  N   UNL     1      -8.385   8.443  66.824  1.00  0.00    -0.108 NA 
HETATM   13  C   UNL     1      -8.613   9.043  68.174  1.00  0.00    -0.130 C  
HETATM   14  C   UNL     1      -9.756  10.090  68.258  1.00  0.00    -0.141 C  
BRANCH  12  15
HETATM   15  C   UNL     1      -7.818   7.168  66.726  1.00  0.00    -0.103 C  
HETATM   16  N   UNL     1      -7.648   6.710  65.506  1.00  0.00    -0.083 NA 
HETATM   17  C   UNL     1      -6.945   5.514  65.264  1.00  0.00    -0.060 A  
HETATM   18  C   UNL     1      -6.358   4.803  66.296  1.00  0.00    -0.036 A  
HETATM   19  C   UNL     1      -5.533   3.689  66.011  1.00  0.00    -0.013 A  
HETATM   20  C   UNL     1      -6.691   5.160  67.730  1.00  0.00    -0.055 C  
HETATM   21  F   UNL     1      -7.355   5.662  62.918  1.00  0.00    -0.044 F  
HETATM   22  C   UNL     1      -5.372   3.225  64.712  1.00  0.00    -0.009 A  
HETATM   23  N   UNL     1      -7.488   6.425  67.879  1.00  0.00    -0.092 NA 
HETATM   24  C   UNL     1      -6.774   5.034  63.952  1.00  0.00    -0.042 A  
HETATM   25  C   UNL     1      -6.014   3.889  63.678  1.00  0.00    -0.014 A  
BRANCH  20  26
HETATM   26  C   UNL     1      -7.364   3.918  68.371  1.00  0.00    -0.055 C  
HETATM   27  O   UNL     1      -5.677   3.756  70.119  1.00  0.00    -0.015 OA 
HETATM   28  C   UNL     1      -6.957   3.541  69.771  1.00  0.00    -0.041 C  
HETATM   29  O   UNL     1      -7.734   2.968  70.528  1.00  0.00    -0.043 OA 
ENDBRANCH  20  26
BRANCH  23  30
HETATM   30  C   UNL     1      -8.033   6.616  69.204  1.00  0.00    -0.112 A  
HETATM   31  C   UNL     1      -7.606   7.082  71.584  1.00  0.00    -0.089 A  
HETATM   32  C   UNL     1      -7.174   6.996  70.253  1.00  0.00    -0.072 A  
HETATM   33  C   UNL     1      -6.621   7.006  72.724  1.00  0.00    -0.061 C  
HETATM   34  C   UNL     1      -8.968   7.119  71.841  1.00  0.00    -0.135 A  
HETATM   35  F   UNL     1      -5.354   6.717  72.326  1.00  0.00    -0.033 F  
HETATM   36  F   UNL     1      -6.550   8.158  73.443  1.00  0.00    -0.083 F  
HETATM   37  F   UNL     1      -6.962   6.025  73.606  1.00  0.00    -0.077 F  
HETATM   38  C   UNL     1      -9.867   6.854  70.816  1.00  0.00    -0.190 A  
HETATM   39  C   UNL     1      -9.412   6.483  69.541  1.00  0.00    -0.146 A  
BRANCH  39  40
HETATM   40  O   UNL     1     -10.296   6.082  68.567  1.00  0.00    -0.166 OA 
HETATM   41  C   UNL     1     -11.688   6.235  68.830  1.00  0.00     0.650 C  
ENDBRANCH  39  40
ENDBRANCH  23  30
ENDBRANCH  12  15
ENDBRANCH   7   9
ENDBRANCH   2   3
TORSDOF 6
ENDMDL
MODEL      100
REMARK 921   NORMALIZED FREE ENERGY PREDICTED BY IDOCK:   -1.46 KCAL/MOL
REMARK 922        TOTAL FREE ENERGY PREDICTED BY IDOCK:   -3.22 KCAL/MOL
REMARK 923 INTER-LIGAND FREE ENERGY PREDICTED BY IDOCK:   -2.72 KCAL/MOL
REMARK 924 INTRA-LIGAND FREE ENERGY PREDICTED BY IDOCK:   -0.49 KCAL/MOL
REMARK 927      BINDING AFFINITY PREDICTED BY RF-SCORE:    0.00 PKD
ROOT
HETATM    1  C   UNL     1     -10.062   4.620  66.152  1.00  0.00    -0.266 C  
HETATM    2  O   UNL     1      -9.616   5.887  66.625  1.00  0.00    -0.144 OA 
ENDROOT
BRANCH   2   3
HETATM    3  C   UNL     1     -10.312   6.446  67.668  1.00  0.00    -0.197 A  
HETATM    4  C   UNL     1     -10.823   5.756  68.760  1.00  0.00    -0.285 A  
HETATM    5  C   UNL     1     -11.535   6.455  69.732  1.00  0.00    -0.468 A  
HETATM    6  C   UNL     1     -11.727   7.840  69.618  1.00  0.00     0.535 A  
HETATM    7  C   UNL     1     -11.207   8.580  68.545  1.00  0.00     0.556 A  
HETATM    8  C   UNL     1     -10.504   7.837  67.578  1.00  0.00    -0.338 A  
BRANCH   7   9
HETATM    9  N   UNL     1     -11.374   9.947  68.447  1.00  0.00    -0.072 NA 
HETATM   10  C   UNL     1     -11.643  10.816  69.605  1.00  0.00    -0.316 C  
HETATM   11  C   UNL     1     -10.537  11.873  69.741  1.00  0.00     0.589 C  
HETATM   12  N   UNL     1     -10.284  12.646  68.502  1.00  0.00    -0.224 NA 
HETATM   13  C   UNL     1     -10.291  11.841  67.243  1.00  0.00    -0.206 C  
HETATM   14  C   UNL     1     -11.341  10.699  67.184  1.00  0.00     0.036 C  
BRANCH  12  15
HETATM   15  C   UNL     1      -9.822  13.966  68.472  1.00  0.00    -0.214 C  
HETATM   16  N   UNL     1     -10.721  14.881  68.186  1.00  0.00    -0.246 NA 
HETATM   17  C   UNL     1     -10.423  16.253  68.279  1.00  0.00    -0.284 A  
HETATM   18  C   UNL     1      -9.191  16.695  68.728  1.00  0.00    -0.253 A  
HETATM   19  C   UNL     1      -8.970  18.074  68.954  1.00  0.00    -0.139 A  
HETATM   20  C   UNL     1      -8.053  15.705  68.873  1.00  0.00    -0.197 C  
HETATM   21  F   UNL     1     -12.594  16.852  67.488  1.00  0.00     1.627 F  
HETATM   22  C   UNL     1      -9.937  19.020  68.642  1.00  0.00    -0.482 A  
HETATM   23  N   UNL     1      -8.464  14.269  68.705  1.00  0.00    -0.161 NA 
HETATM   24  C   UNL     1     -11.396  17.222  67.966  1.00  0.00     0.276 A  
HETATM   25  C   UNL     1     -11.150  18.593  68.124  1.00  0.00     0.348 A  
BRANCH  20  26
HETATM   26  C   UNL     1      -6.927  16.150  67.903  1.00  0.00    -0.150 C  
HETATM   27  O   UNL     1      -8.447  16.267  66.004  1.00  0.00    -0.324 OA 
HETATM   28  C   UNL     1      -7.334  16.749  66.582  1.00  0.00    -0.262 C  
HETATM   29  O   UNL     1      -6.624  17.569  66.009  1.00  0.00    -0.241 OA 
ENDBRANCH  20  26
BRANCH  23  30
HETATM   30  C   UNL     1      -7.350  13.358  68.571  1.00  0.00    -0.111 A  
HETATM   31  C   UNL     1      -6.239  11.608  67.241  1.00  0.00    -0.115 A  
HETATM   32  C   UNL     1      -7.221  12.596  67.393  1.00  0.00    -0.138 A  
HETATM   33  C   UNL     1      -6.404  10.503  66.227  1.00  0.00    -0.106 C  
HETATM   34  C   UNL     1      -5.167  11.593  68.119  1.00  0.00    -0.044 A  
HETATM   35  F   UNL     1      -7.618  10.505  65.617  1.00  0.00    -0.137 F  
HETATM   36  F   UNL     1      -5.472  10.544  65.238  1.00  0.00    -0.079 F  
HETATM   37  F   UNL     1      -6.288   9.276  66.811  1.00  0.00    -0.061 F  
HETATM   38  C   UNL     1      -5.193  12.404  69.247  1.00  0.00    -0.068 A  
HETATM   39  C   UNL     1      -6.321  13.186  69.543  1.00  0.00    -0.103 A  
BRANCH  39  40
HETATM   40  O   UNL     1      -6.408  13.876  70.728  1.00  0.00    -0.094 OA 
HETATM   41  C   UNL     1      -5.199  14.129  71.440  1.00  0.00    -0.165 C  
ENDBRANCH  39  40
ENDBRANCH  23  30
ENDBRANCH  12  15
ENDBRANCH   7   9
ENDBRANCH   2   3
TORSDOF 6
ENDMDL
MODEL      101
REMARK 921   NORMALIZED FREE ENERGY PREDICTED BY IDOCK:   -1.46 KCAL/MOL
REMARK 922        TOTAL FREE ENERGY PREDICTED BY IDOCK:   -3.21 KCAL/MOL
REMARK 923 INTER-LIGAND FREE ENERGY PREDICTED BY IDOCK:   -3.12 KCAL/MOL
REMARK 924 INTRA-LIGAND FREE ENERGY PREDICTED BY IDOCK:   -0.09 KCAL/MOL
REMARK 927      BINDING AFFINITY PREDICTED BY RF-SCORE:    0.00 PKD
ROOT
HETATM    1  C   UNL     1     -12.231   4.289  72.470  1.00  0.00     1.475 C  
HETATM    2  O   UNL     1     -12.043   5.322  73.432  1.00  0.00     0.216 OA 
ENDROOT
BRANCH   2   3
HETATM    3  C   UNL     1     -10.832   5.966  73.430  1.00  0.00    -0.245 A  
HETATM    4  C   UNL     1     -10.268   6.632  74.512  1.00  0.00    -0.197 A  
HETATM    5  C   UNL     1      -9.039   7.266  74.354  1.00  0.00    -0.204 A  
HETATM    6  C   UNL     1      -8.369   7.228  73.121  1.00  0.00    -0.140 A  
HETATM    7  C   UNL     1      -8.889   6.547  72.010  1.00  0.00    -0.133 A  
HETATM    8  C   UNL     1     -10.139   5.929  72.206  1.00  0.00    -0.210 A  
BRANCH   7   9
HETATM    9  N   UNL     1      -8.218   6.488  70.805  1.00  0.00    -0.123 NA 
HETATM   10  C   UNL     1      -7.408   5.333  70.384  1.00  0.00    -0.063 C  
HETATM   11  C   UNL     1      -7.956   4.753  69.072  1.00  0.00    -0.075 C  
HETATM   12  N   UNL     1      -8.118   5.752  67.990  1.00  0.00    -0.104 NA 
HETATM   13  C   UNL     1      -8.674   7.069  68.425  1.00  0.00    -0.125 C  
HETATM   14  C   UNL     1      -8.195   7.574  69.813  1.00  0.00    -0.128 C  
BRANCH  12  15
HETATM   15  C   UNL     1      -8.017   5.467  66.624  1.00  0.00    -0.105 C  
HETATM   16  N   UNL     1      -7.781   4.211  66.319  1.00  0.00    -0.089 NA 
HETATM   17  C   UNL     1      -7.815   3.763  64.984  1.00  0.00    -0.086 A  
HETATM   18  C   UNL     1      -8.153   4.615  63.947  1.00  0.00    -0.101 A  
HETATM   19  C   UNL     1      -8.325   4.107  62.638  1.00  0.00    -0.083 A  
HETATM   20  C   UNL     1      -8.231   6.107  64.204  1.00  0.00    -0.031 C  
HETATM   21  F   UNL     1      -7.187   1.554  65.632  1.00  0.00    -0.046 F  
HETATM   22  C   UNL     1      -8.068   2.775  62.342  1.00  0.00    -0.072 A  
HETATM   23  N   UNL     1      -8.132   6.485  65.655  1.00  0.00    -0.121 NA 
HETATM   24  C   UNL     1      -7.558   2.415  64.672  1.00  0.00    -0.072 A  
HETATM   25  C   UNL     1      -7.660   1.929  63.361  1.00  0.00    -0.055 A  
BRANCH  20  26
HETATM   26  C   UNL     1      -7.163   6.786  63.308  1.00  0.00    -0.061 C  
HETATM   27  O   UNL     1      -8.767   8.374  62.394  1.00  0.00    -0.153 OA 
HETATM   28  C   UNL     1      -7.487   8.138  62.729  1.00  0.00    -0.111 C  
HETATM   29  O   UNL     1      -6.605   8.953  62.480  1.00  0.00    -0.096 OA 
ENDBRANCH  20  26
BRANCH  23  30
HETATM   30  C   UNL     1      -7.932   7.900  65.874  1.00  0.00    -0.106 A  
HETATM   31  C   UNL     1      -8.916  10.156  65.945  1.00  0.00    -0.182 A  
HETATM   32  C   UNL     1      -9.044   8.763  65.861  1.00  0.00    -0.271 A  
HETATM   33  C   UNL     1     -10.015  11.065  65.453  1.00  0.00    -0.260 C  
HETATM   34  C   UNL     1      -7.712  10.689  66.379  1.00  0.00    -0.141 A  
HETATM   35  F   UNL     1     -11.023  10.405  64.825  1.00  0.00    -0.156 F  
HETATM   36  F   UNL     1     -10.587  11.794  66.448  1.00  0.00    -0.254 F  
HETATM   37  F   UNL     1      -9.541  11.964  64.544  1.00  0.00    -0.228 F  
HETATM   38  C   UNL     1      -6.603   9.862  66.510  1.00  0.00    -0.072 A  
HETATM   39  C   UNL     1      -6.671   8.508  66.145  1.00  0.00    -0.068 A  
BRANCH  39  40
HETATM   40  O   UNL     1      -5.542   7.724  66.138  1.00  0.00    -0.031 OA 
HETATM   41  C   UNL     1      -5.171   7.083  67.356  1.00  0.00    -0.012 C  
ENDBRANCH  39  40
ENDBRANCH  23  30
ENDBRANCH  12  15
ENDBRANCH   7   9
ENDBRANCH   2   3
TORSDOF 6
ENDMDL
MODEL      102
REMARK 921   NORMALIZED FREE ENERGY PREDICTED BY IDOCK:   -1.45 KCAL/MOL
REMARK 922        TOTAL FREE ENERGY PREDICTED BY IDOCK:   -3.20 KCAL/MOL
REMARK 923 INTER-LIGAND FREE ENERGY PREDICTED BY IDOCK:   -3.24 KCAL/MOL
REMARK 924 INTRA-LIGAND FREE ENERGY PREDICTED BY IDOCK:    0.04 KCAL/MOL
REMARK 927      BINDING AFFINITY PREDICTED BY RF-SCORE:    0.00 PKD
ROOT
HETATM    1  C   UNL     1     -10.037  20.959  69.412  1.00  0.00     0.997 C  
HETATM    2  O   UNL     1      -9.852  19.585  69.088  1.00  0.00    -0.433 OA 
ENDROOT
BRANCH   2   3
HETATM    3  C   UNL     1      -8.671  19.238  68.483  1.00  0.00    -0.367 A  
HETATM    4  C   UNL     1      -7.644  20.113  68.153  1.00  0.00    -0.240 A  
HETATM    5  C   UNL     1      -6.509  19.620  67.514  1.00  0.00    -0.231 A  
HETATM    6  C   UNL     1      -6.397  18.254  67.215  1.00  0.00    -0.190 A  
HETATM    7  C   UNL     1      -7.398  17.331  67.552  1.00  0.00    -0.166 A  
HETATM    8  C   UNL     1      -8.534  17.870  68.186  1.00  0.00    -0.268 A  
BRANCH   7   9
HETATM    9  N   UNL     1      -7.275  15.983  67.280  1.00  0.00    -0.186 NA 
HETATM   10  C   UNL     1      -6.191  15.143  67.815  1.00  0.00    -0.152 C  
HETATM   11  C   UNL     1      -6.775  13.996  68.653  1.00  0.00    -0.096 C  
HETATM   12  N   UNL     1      -7.810  13.200  67.951  1.00  0.00    -0.135 NA 
HETATM   13  C   UNL     1      -8.778  14.000  67.141  1.00  0.00    -0.221 C  
HETATM   14  C   UNL     1      -8.181  15.227  66.401  1.00  0.00     0.145 C  
BRANCH  12  15
HETATM   15  C   UNL     1      -8.065  11.846  68.189  1.00  0.00    -0.155 C  
HETATM   16  N   UNL     1      -7.114  11.013  67.832  1.00  0.00    -0.079 NA 
HETATM   17  C   UNL     1      -7.177   9.645  68.160  1.00  0.00    -0.080 A  
HETATM   18  C   UNL     1      -8.216   9.134  68.919  1.00  0.00    -0.112 A  
HETATM   19  C   UNL     1      -8.179   7.790  69.359  1.00  0.00    -0.131 A  
HETATM   20  C   UNL     1      -9.438   9.990  69.180  1.00  0.00    -0.207 C  
HETATM   21  F   UNL     1      -5.141   9.197  67.000  1.00  0.00    -0.033 F  
HETATM   22  C   UNL     1      -7.161   6.930  68.967  1.00  0.00    -0.091 A  
HETATM   23  N   UNL     1      -9.289  11.421  68.747  1.00  0.00    -0.151 NA 
HETATM   24  C   UNL     1      -6.151   8.764  67.769  1.00  0.00    -0.048 A  
HETATM   25  C   UNL     1      -6.153   7.415  68.149  1.00  0.00    -0.035 A  
BRANCH  20  26
HETATM   26  C   UNL     1     -10.653   9.267  68.542  1.00  0.00    -0.222 C  
HETATM   27  O   UNL     1      -9.545   9.056  66.384  1.00  0.00    -0.201 OA 
HETATM   28  C   UNL     1     -10.433   8.532  67.246  1.00  0.00    -0.296 C  
HETATM   29  O   UNL     1     -11.108   7.553  66.946  1.00  0.00    -0.184 OA 
ENDBRANCH  20  26
BRANCH  23  30
HETATM   30  C   UNL     1     -10.532  12.160  68.743  1.00  0.00    -0.176 A  
HETATM   31  C   UNL     1     -12.238  13.372  70.041  1.00  0.00    -0.367 A  
HETATM   32  C   UNL     1     -10.988  12.746  69.940  1.00  0.00     0.430 A  
HETATM   33  C   UNL     1     -12.905  13.552  71.382  1.00  0.00    -0.355 C  
HETATM   34  C   UNL     1     -12.907  13.717  68.877  1.00  0.00     1.133 A  
HETATM   35  F   UNL     1     -12.248  12.940  72.401  1.00  0.00     0.241 F  
HETATM   36  F   UNL     1     -13.044  14.858  71.736  1.00  0.00    -0.330 F  
HETATM   37  F   UNL     1     -14.161  13.021  71.383  1.00  0.00     0.173 F  
HETATM   38  C   UNL     1     -12.441  13.251  67.654  1.00  0.00     0.256 A  
HETATM   39  C   UNL     1     -11.342  12.380  67.590  1.00  0.00    -0.312 A  
BRANCH  39  40
HETATM   40  O   UNL     1     -10.968  11.804  66.399  1.00  0.00    -0.271 OA 
HETATM   41  C   UNL     1     -11.895  11.855  65.317  1.00  0.00    -0.093 C  
ENDBRANCH  39  40
ENDBRANCH  23  30
ENDBRANCH  12  15
ENDBRANCH   7   9
ENDBRANCH   2   3
TORSDOF 6
ENDMDL
MODEL      103
REMARK 921   NORMALIZED FREE ENERGY PREDICTED BY IDOCK:   -1.24 KCAL/MOL
REMARK 922        TOTAL FREE ENERGY PREDICTED BY IDOCK:   -2.91 KCAL/MOL
REMARK 923 INTER-LIGAND FREE ENERGY PREDICTED BY IDOCK:   -5.47 KCAL/MOL
REMARK 924 INTRA-LIGAND FREE ENERGY PREDICTED BY IDOCK:    2.56 KCAL/MOL
REMARK 927      BINDING AFFINITY PREDICTED BY RF-SCORE:    0.00 PKD
ROOT
HETATM    1  C   UNL     1     -10.831  18.047  65.839  1.00  0.00     0.036 C  
HETATM    2  O   UNL     1     -10.112  16.877  65.462  1.00  0.00    -0.575 OA 
ENDROOT
BRANCH   2   3
HETATM    3  C   UNL     1     -10.848  15.764  65.144  1.00  0.00    -0.428 A  
HETATM    4  C   UNL     1     -12.019  15.756  64.397  1.00  0.00    -0.082 A  
HETATM    5  C   UNL     1     -12.677  14.548  64.177  1.00  0.00     0.164 A  
HETATM    6  C   UNL     1     -12.161  13.351  64.695  1.00  0.00    -0.456 A  
HETATM    7  C   UNL     1     -10.969  13.309  65.434  1.00  0.00    -0.284 A  
HETATM    8  C   UNL     1     -10.340  14.552  65.645  1.00  0.00    -0.367 A  
BRANCH   7   9
HETATM    9  N   UNL     1     -10.448  12.127  65.921  1.00  0.00    -0.246 NA 
HETATM   10  C   UNL     1      -9.004  11.867  66.044  1.00  0.00    -0.066 C  
HETATM   11  C   UNL     1      -8.643  11.574  67.508  1.00  0.00    -0.143 C  
HETATM   12  N   UNL     1      -9.463  10.510  68.133  1.00  0.00    -0.148 NA 
HETATM   13  C   UNL     1     -10.919  10.556  67.798  1.00  0.00    -0.313 C  
HETATM   14  C   UNL     1     -11.259  10.974  66.342  1.00  0.00     0.033 C  
BRANCH  12  15
HETATM   15  C   UNL     1      -9.020   9.663  69.154  1.00  0.00    -0.154 C  
HETATM   16  N   UNL     1      -7.988   8.903  68.859  1.00  0.00    -0.102 NA 
HETATM   17  C   UNL     1      -7.347   8.126  69.843  1.00  0.00    -0.065 A  
HETATM   18  C   UNL     1      -7.742   8.173  71.168  1.00  0.00    -0.092 A  
HETATM   19  C   UNL     1      -6.988   7.499  72.158  1.00  0.00    -0.063 A  
HETATM   20  C   UNL     1      -9.041   8.860  71.534  1.00  0.00    -0.229 C  
HETATM   21  F   UNL     1      -5.845   7.200  68.236  1.00  0.00    -0.019 F  
HETATM   22  C   UNL     1      -5.902   6.702  71.819  1.00  0.00    -0.037 A  
HETATM   23  N   UNL     1      -9.674   9.620  70.402  1.00  0.00    -0.262 NA 
HETATM   24  C   UNL     1      -6.245   7.315  69.511  1.00  0.00    -0.031 A  
HETATM   25  C   UNL     1      -5.542   6.592  70.485  1.00  0.00    -0.019 A  
BRANCH  20  26
HETATM   26  C   UNL     1      -9.969   7.788  72.162  1.00  0.00    -0.249 C  
HETATM   27  O   UNL     1      -8.574   7.571  74.147  1.00  0.00    -0.194 OA 
HETATM   28  C   UNL     1      -9.813   7.496  73.632  1.00  0.00    -0.293 C  
HETATM   29  O   UNL     1     -10.760   7.108  74.309  1.00  0.00    -0.107 OA 
ENDBRANCH  20  26
BRANCH  23  30
HETATM   30  C   UNL     1     -11.031  10.039  70.671  1.00  0.00    -0.322 A  
HETATM   31  C   UNL     1     -12.584  11.890  71.147  1.00  0.00    -0.390 A  
HETATM   32  C   UNL     1     -11.320  11.413  70.771  1.00  0.00     0.610 A  
HETATM   33  C   UNL     1     -12.749  13.280  71.711  1.00  0.00    -0.192 C  
HETATM   34  C   UNL     1     -13.664  11.022  71.104  1.00  0.00     0.771 A  
HETATM   35  F   UNL     1     -11.571  13.920  71.929  1.00  0.00     0.104 F  
HETATM   36  F   UNL     1     -13.492  14.092  70.913  1.00  0.00    -0.379 F  
HETATM   37  F   UNL     1     -13.380  13.249  72.919  1.00  0.00    -0.580 F  
HETATM   38  C   UNL     1     -13.445   9.664  70.904  1.00  0.00    -0.133 A  
HETATM   39  C   UNL     1     -12.141   9.154  70.813  1.00  0.00    -0.149 A  
BRANCH  39  40
HETATM   40  O   UNL     1     -11.917   7.798  70.760  1.00  0.00    -0.256 OA 
HETATM   41  C   UNL     1     -13.050   6.936  70.821  1.00  0.00     0.230 C  
ENDBRANCH  39  40
ENDBRANCH  23  30
ENDBRANCH  12  15
ENDBRANCH   7   9
ENDBRANCH   2   3
TORSDOF 6
ENDMDL
MODEL      104
REMARK 921   NORMALIZED FREE ENERGY PREDICTED BY IDOCK:   -1.19 KCAL/MOL
REMARK 922        TOTAL FREE ENERGY PREDICTED BY IDOCK:   -2.84 KCAL/MOL
REMARK 923 INTER-LIGAND FREE ENERGY PREDICTED BY IDOCK:   -9.07 KCAL/MOL
REMARK 924 INTRA-LIGAND FREE ENERGY PREDICTED BY IDOCK:    6.23 KCAL/MOL
REMARK 927      BINDING AFFINITY PREDICTED BY RF-SCORE:    0.00 PKD
ROOT
HETATM    1  C   UNL     1      -7.441   4.810  65.441  1.00  0.00    -0.077 C  
HETATM    2  O   UNL     1      -8.778   5.187  65.124  1.00  0.00    -0.146 OA 
ENDROOT
BRANCH   2   3
HETATM    3  C   UNL     1      -9.459   5.926  66.057  1.00  0.00    -0.060 A  
HETATM    4  C   UNL     1     -10.175   5.411  67.131  1.00  0.00    -0.266 A  
HETATM    5  C   UNL     1     -10.841   6.285  67.985  1.00  0.00    -0.409 A  
HETATM    6  C   UNL     1     -10.785   7.672  67.773  1.00  0.00    -0.215 A  
HETATM    7  C   UNL     1     -10.055   8.236  66.716  1.00  0.00    -0.303 A  
HETATM    8  C   UNL     1      -9.404   7.319  65.868  1.00  0.00     0.060 A  
BRANCH   7   9
HETATM    9  N   UNL     1      -9.979   9.601  66.523  1.00  0.00    -0.230 NA 
HETATM   10  C   UNL     1     -10.883  10.563  67.176  1.00  0.00    -0.259 C  
HETATM   11  C   UNL     1     -10.075  11.553  68.028  1.00  0.00    -0.186 C  
HETATM   12  N   UNL     1      -8.971  12.220  67.299  1.00  0.00    -0.180 NA 
HETATM   13  C   UNL     1      -8.193  11.333  66.383  1.00  0.00    -0.150 C  
HETATM   14  C   UNL     1      -9.020  10.260  65.624  1.00  0.00    -0.172 C  
BRANCH  12  15
HETATM   15  C   UNL     1      -8.491  13.502  67.587  1.00  0.00    -0.184 C  
HETATM   16  N   UNL     1      -7.743  13.603  68.663  1.00  0.00    -0.128 NA 
HETATM   17  C   UNL     1      -7.068  14.799  68.975  1.00  0.00    -0.127 A  
HETATM   18  C   UNL     1      -7.121  15.897  68.134  1.00  0.00    -0.125 A  
HETATM   19  C   UNL     1      -6.317  17.031  68.395  1.00  0.00    -0.150 A  
HETATM   20  C   UNL     1      -8.123  15.916  66.997  1.00  0.00    -0.230 C  
HETATM   21  F   UNL     1      -6.216  13.875  71.004  1.00  0.00    -0.189 F  
HETATM   22  C   UNL     1      -5.536  17.113  69.540  1.00  0.00    -0.182 A  
HETATM   23  N   UNL     1      -8.828  14.607  66.778  1.00  0.00    -0.255 NA 
HETATM   24  C   UNL     1      -6.272  14.894  70.133  1.00  0.00    -0.165 A  
HETATM   25  C   UNL     1      -5.531  16.046  70.426  1.00  0.00    -0.163 A  
BRANCH  20  26
HETATM   26  C   UNL     1      -9.083  17.108  67.249  1.00  0.00    -0.227 C  
HETATM   27  O   UNL     1     -10.116  16.025  69.170  1.00  0.00    -0.214 OA 
HETATM   28  C   UNL     1      -9.773  17.186  68.586  1.00  0.00    -0.293 C  
HETATM   29  O   UNL     1     -10.099  18.263  69.073  1.00  0.00    -0.379 OA 
ENDBRANCH  20  26
BRANCH  23  30
HETATM   30  C   UNL     1      -9.963  14.700  65.889  1.00  0.00    -0.328 A  
HETATM   31  C   UNL     1     -11.679  13.523  64.572  1.00  0.00    -0.431 A  
HETATM   32  C   UNL     1     -10.648  13.526  65.522  1.00  0.00    -0.299 A  
HETATM   33  C   UNL     1     -12.059  12.257  63.846  1.00  0.00    -0.506 C  
HETATM   34  C   UNL     1     -12.268  14.729  64.224  1.00  0.00    -0.402 A  
HETATM   35  F   UNL     1     -11.229  11.213  64.108  1.00  0.00    -0.416 F  
HETATM   36  F   UNL     1     -13.319  11.834  64.135  1.00  0.00    -0.436 F  
HETATM   37  F   UNL     1     -12.015  12.431  62.494  1.00  0.00     0.147 F  
HETATM   38  C   UNL     1     -11.692  15.921  64.647  1.00  0.00    -0.117 A  
HETATM   39  C   UNL     1     -10.485  15.920  65.364  1.00  0.00    -0.405 A  
BRANCH  39  40
HETATM   40  O   UNL     1      -9.840  17.097  65.659  1.00  0.00    -0.552 OA 
HETATM   41  C   UNL     1     -10.521  18.316  65.375  1.00  0.00     0.274 C  
ENDBRANCH  39  40
ENDBRANCH  23  30
ENDBRANCH  12  15
ENDBRANCH   7   9
ENDBRANCH   2   3
TORSDOF 6
ENDMDL
MODEL      105
REMARK 921   NORMALIZED FREE ENERGY PREDICTED BY IDOCK:   -0.97 KCAL/MOL
REMARK 922        TOTAL FREE ENERGY PREDICTED BY IDOCK:   -2.55 KCAL/MOL
REMARK 923 INTER-LIGAND FREE ENERGY PREDICTED BY IDOCK:   -5.80 KCAL/MOL
REMARK 924 INTRA-LIGAND FREE ENERGY PREDICTED BY IDOCK:    3.25 KCAL/MOL
REMARK 927      BINDING AFFINITY PREDICTED BY RF-SCORE:    0.00 PKD
ROOT
HETATM    1  C   UNL     1     -10.155   4.826  67.232  1.00  0.00    -0.146 C  
HETATM    2  O   UNL     1      -9.822   6.103  67.766  1.00  0.00    -0.117 OA 
ENDROOT
BRANCH   2   3
HETATM    3  C   UNL     1      -9.028   6.916  66.997  1.00  0.00    -0.120 A  
HETATM    4  C   UNL     1      -8.645   6.665  65.686  1.00  0.00    -0.130 A  
HETATM    5  C   UNL     1      -7.811   7.572  65.036  1.00  0.00    -0.127 A  
HETATM    6  C   UNL     1      -7.368   8.730  65.693  1.00  0.00    -0.085 A  
HETATM    7  C   UNL     1      -7.750   9.035  67.008  1.00  0.00    -0.098 A  
HETATM    8  C   UNL     1      -8.584   8.089  67.634  1.00  0.00    -0.130 A  
BRANCH   7   9
HETATM    9  N   UNL     1      -7.334  10.187  67.644  1.00  0.00    -0.088 NA 
HETATM   10  C   UNL     1      -6.155  10.964  67.226  1.00  0.00    -0.062 C  
HETATM   11  C   UNL     1      -6.570  12.398  66.861  1.00  0.00     0.154 C  
HETATM   12  N   UNL     1      -7.356  13.087  67.910  1.00  0.00    -0.112 NA 
HETATM   13  C   UNL     1      -8.388  12.241  68.583  1.00  0.00    -0.002 C  
HETATM   14  C   UNL     1      -7.987  10.762  68.830  1.00  0.00    -0.143 C  
BRANCH  12  15
HETATM   15  C   UNL     1      -7.354  14.469  68.124  1.00  0.00    -0.128 C  
HETATM   16  N   UNL     1      -6.625  14.892  69.132  1.00  0.00    -0.109 NA 
HETATM   17  C   UNL     1      -6.411  16.265  69.355  1.00  0.00    -0.197 A  
HETATM   18  C   UNL     1      -6.913  17.223  68.491  1.00  0.00    -0.209 A  
HETATM   19  C   UNL     1      -6.559  18.582  68.655  1.00  0.00    -0.258 A  
HETATM   20  C   UNL     1      -7.926  16.818  67.439  1.00  0.00    -0.170 C  
HETATM   21  F   UNL     1      -5.151  15.822  71.333  1.00  0.00    -0.175 F  
HETATM   22  C   UNL     1      -5.788  19.002  69.730  1.00  0.00    -0.271 A  
HETATM   23  N   UNL     1      -8.121  15.333  67.314  1.00  0.00    -0.185 NA 
HETATM   24  C   UNL     1      -5.630  16.703  70.441  1.00  0.00    -0.161 A  
HETATM   25  C   UNL     1      -5.338  18.059  70.642  1.00  0.00    -0.261 A  
BRANCH  20  26
HETATM   26  C   UNL     1      -9.234  17.597  67.735  1.00  0.00    -0.251 C  
HETATM   27  O   UNL     1      -9.745  16.236  69.688  1.00  0.00    -0.187 OA 
HETATM   28  C   UNL     1      -9.855  17.438  69.098  1.00  0.00    -0.158 C  
HETATM   29  O   UNL     1     -10.521  18.336  69.604  1.00  0.00     0.206 OA 
ENDBRANCH  20  26
BRANCH  23  30
HETATM   30  C   UNL     1      -9.269  14.963  66.518  1.00  0.00    -0.285 A  
HETATM   31  C   UNL     1     -10.866  13.210  65.855  1.00  0.00    -0.288 A  
HETATM   32  C   UNL     1      -9.832  13.682  66.674  1.00  0.00    -0.284 A  
HETATM   33  C   UNL     1     -11.119  11.731  65.702  1.00  0.00    -0.285 C  
HETATM   34  C   UNL     1     -11.581  14.121  65.092  1.00  0.00    -0.344 A  
HETATM   35  F   UNL     1     -10.182  10.956  66.310  1.00  0.00    -0.254 F  
HETATM   36  F   UNL     1     -12.325  11.343  66.197  1.00  0.00     0.456 F  
HETATM   37  F   UNL     1     -11.107  11.361  64.390  1.00  0.00    -0.387 F  
HETATM   38  C   UNL     1     -11.128  15.430  64.986  1.00  0.00    -0.428 A  
HETATM   39  C   UNL     1      -9.921  15.823  65.585  1.00  0.00    -0.345 A  
BRANCH  39  40
HETATM   40  O   UNL     1      -9.399  17.075  65.362  1.00  0.00    -0.258 OA 
HETATM   41  C   UNL     1     -10.310  18.166  65.257  1.00  0.00     0.622 C  
ENDBRANCH  39  40
ENDBRANCH  23  30
ENDBRANCH  12  15
ENDBRANCH   7   9
ENDBRANCH   2   3
TORSDOF 6
ENDMDL
MODEL      106
REMARK 921   NORMALIZED FREE ENERGY PREDICTED BY IDOCK:   -0.83 KCAL/MOL
REMARK 922        TOTAL FREE ENERGY PREDICTED BY IDOCK:   -2.35 KCAL/MOL
REMARK 923 INTER-LIGAND FREE ENERGY PREDICTED BY IDOCK:   -8.57 KCAL/MOL
REMARK 924 INTRA-LIGAND FREE ENERGY PREDICTED BY IDOCK:    6.21 KCAL/MOL
REMARK 927      BINDING AFFINITY PREDICTED BY RF-SCORE:    0.00 PKD
ROOT
HETATM    1  C   UNL     1      -6.176   3.035  66.523  1.00  0.00    -0.025 C  
HETATM    2  O   UNL     1      -6.964   4.009  67.200  1.00  0.00    -0.060 OA 
ENDROOT
BRANCH   2   3
HETATM    3  C   UNL     1      -7.358   5.107  66.479  1.00  0.00    -0.086 A  
HETATM    4  C   UNL     1      -7.155   5.297  65.118  1.00  0.00    -0.065 A  
HETATM    5  C   UNL     1      -7.588   6.479  64.524  1.00  0.00    -0.101 A  
HETATM    6  C   UNL     1      -8.232   7.466  65.287  1.00  0.00    -0.128 A  
HETATM    7  C   UNL     1      -8.480   7.306  66.658  1.00  0.00    -0.124 A  
HETATM    8  C   UNL     1      -8.017   6.103  67.224  1.00  0.00    -0.102 A  
BRANCH   7   9
HETATM    9  N   UNL     1      -9.136   8.267  67.402  1.00  0.00    -0.139 NA 
HETATM   10  C   UNL     1      -8.500   9.021  68.494  1.00  0.00    -0.128 C  
HETATM   11  C   UNL     1      -8.541  10.526  68.192  1.00  0.00    -0.123 C  
HETATM   12  N   UNL     1      -9.890  11.041  67.863  1.00  0.00    -0.168 NA 
HETATM   13  C   UNL     1     -10.704  10.156  66.975  1.00  0.00    -0.196 C  
HETATM   14  C   UNL     1     -10.550   8.632  67.224  1.00  0.00    -0.238 C  
BRANCH  12  15
HETATM   15  C   UNL     1     -10.327  12.345  68.120  1.00  0.00    -0.226 C  
HETATM   16  N   UNL     1      -9.660  13.301  67.514  1.00  0.00    -0.212 NA 
HETATM   17  C   UNL     1     -10.094  14.640  67.561  1.00  0.00    -0.224 A  
HETATM   18  C   UNL     1     -11.270  14.993  68.200  1.00  0.00    -0.316 A  
HETATM   19  C   UNL     1     -11.759  16.317  68.105  1.00  0.00     0.060 A  
HETATM   20  C   UNL     1     -11.969  13.982  69.087  1.00  0.00    -0.360 C  
HETATM   21  F   UNL     1      -8.201  15.375  66.309  1.00  0.00    -0.268 F  
HETATM   22  C   UNL     1     -11.033  17.310  67.460  1.00  0.00    -0.102 A  
HETATM   23  N   UNL     1     -11.397  12.595  69.004  1.00  0.00    -0.277 NA 
HETATM   24  C   UNL     1      -9.368  15.654  66.909  1.00  0.00    -0.234 A  
HETATM   25  C   UNL     1      -9.819  16.980  66.877  1.00  0.00    -0.273 A  
BRANCH  20  26
HETATM   26  C   UNL     1     -11.989  14.565  70.524  1.00  0.00    -0.387 C  
HETATM   27  O   UNL     1      -9.730  15.454  70.323  1.00  0.00    -0.096 OA 
HETATM   28  C   UNL     1     -10.945  15.590  70.882  1.00  0.00    -0.292 C  
HETATM   29  O   UNL     1     -11.162  16.454  71.725  1.00  0.00    -0.097 OA 
ENDBRANCH  20  26
BRANCH  23  30
HETATM   30  C   UNL     1     -11.877  11.706  70.038  1.00  0.00    -0.355 A  
HETATM   31  C   UNL     1     -11.782   9.475  71.075  1.00  0.00    -0.419 A  
HETATM   32  C   UNL     1     -11.291  10.434  70.178  1.00  0.00    -0.397 A  
HETATM   33  C   UNL     1     -11.482   8.009  70.882  1.00  0.00    -0.276 C  
HETATM   34  C   UNL     1     -12.648   9.883  72.079  1.00  0.00    -0.410 A  
HETATM   35  F   UNL     1     -10.836   7.738  69.718  1.00  0.00    -0.242 F  
HETATM   36  F   UNL     1     -10.723   7.485  71.881  1.00  0.00    -0.219 F  
HETATM   37  F   UNL     1     -12.629   7.272  70.846  1.00  0.00    -0.358 F  
HETATM   38  C   UNL     1     -13.177  11.167  72.048  1.00  0.00    -0.428 A  
HETATM   39  C   UNL     1     -12.900  12.032  70.977  1.00  0.00    -0.187 A  
BRANCH  39  40
HETATM   40  O   UNL     1     -13.534  13.247  70.871  1.00  0.00     0.087 OA 
HETATM   41  C   UNL     1     -14.190  13.757  72.029  1.00  0.00    -0.374 C  
ENDBRANCH  39  40
ENDBRANCH  23  30
ENDBRANCH  12  15
ENDBRANCH   7   9
ENDBRANCH   2   3
TORSDOF 6
ENDMDL
MODEL      107
REMARK 921   NORMALIZED FREE ENERGY PREDICTED BY IDOCK:   -0.40 KCAL/MOL
REMARK 922        TOTAL FREE ENERGY PREDICTED BY IDOCK:   -1.77 KCAL/MOL
REMARK 923 INTER-LIGAND FREE ENERGY PREDICTED BY IDOCK:   -3.19 KCAL/MOL
REMARK 924 INTRA-LIGAND FREE ENERGY PREDICTED BY IDOCK:    1.41 KCAL/MOL
REMARK 927      BINDING AFFINITY PREDICTED BY RF-SCORE:    0.00 PKD
ROOT
HETATM    1  C   UNL     1     -11.043   8.861  69.582  1.00  0.00    -0.046 C  
HETATM    2  O   UNL     1      -9.956   8.770  70.497  1.00  0.00    -0.175 OA 
ENDROOT
BRANCH   2   3
HETATM    3  C   UNL     1      -8.691   8.899  69.982  1.00  0.00    -0.147 A  
HETATM    4  C   UNL     1      -7.758   7.876  69.863  1.00  0.00    -0.098 A  
HETATM    5  C   UNL     1      -6.498   8.163  69.343  1.00  0.00    -0.035 A  
HETATM    6  C   UNL     1      -6.175   9.466  68.934  1.00  0.00    -0.043 A  
HETATM    7  C   UNL     1      -7.094  10.523  69.014  1.00  0.00    -0.081 A  
HETATM    8  C   UNL     1      -8.352  10.196  69.555  1.00  0.00    -0.178 A  
BRANCH   7   9
HETATM    9  N   UNL     1      -6.783  11.798  68.587  1.00  0.00    -0.067 NA 
HETATM   10  C   UNL     1      -6.915  12.241  67.189  1.00  0.00    -0.102 C  
HETATM   11  C   UNL     1      -7.889  13.426  67.099  1.00  0.00    -0.019 C  
HETATM   12  N   UNL     1      -7.567  14.544  68.017  1.00  0.00    -0.120 NA 
HETATM   13  C   UNL     1      -7.136  14.132  69.387  1.00  0.00    -0.049 C  
HETATM   14  C   UNL     1      -6.251  12.858  69.458  1.00  0.00    -0.118 C  
BRANCH  12  15
HETATM   15  C   UNL     1      -7.863  15.888  67.764  1.00  0.00    -0.139 C  
HETATM   16  N   UNL     1      -6.972  16.758  68.182  1.00  0.00    -0.153 NA 
HETATM   17  C   UNL     1      -7.071  18.123  67.851  1.00  0.00    -0.218 A  
HETATM   18  C   UNL     1      -8.079  18.593  67.027  1.00  0.00    -0.259 A  
HETATM   19  C   UNL     1      -8.069  19.939  66.591  1.00  0.00    -0.351 A  
HETATM   20  C   UNL     1      -9.244  17.688  66.686  1.00  0.00    -0.271 C  
HETATM   21  F   UNL     1      -5.134  18.652  69.142  1.00  0.00    -0.177 F  
HETATM   22  C   UNL     1      -7.115  20.839  67.049  1.00  0.00    -0.383 A  
HETATM   23  N   UNL     1      -9.064  16.263  67.128  1.00  0.00    -0.199 NA 
HETATM   24  C   UNL     1      -6.110  19.045  68.309  1.00  0.00    -0.218 A  
HETATM   25  C   UNL     1      -6.143  20.394  67.931  1.00  0.00    -0.283 A  
BRANCH  20  26
HETATM   26  C   UNL     1     -10.527  18.357  67.244  1.00  0.00    -0.434 C  
HETATM   27  O   UNL     1     -10.178  20.386  65.944  1.00  0.00    -0.326 OA 
HETATM   28  C   UNL     1     -11.070  19.557  66.513  1.00  0.00    -0.060 C  
HETATM   29  O   UNL     1     -12.267  19.823  66.523  1.00  0.00     2.070 OA 
ENDBRANCH  20  26
BRANCH  23  30
HETATM   30  C   UNL     1     -10.273  15.473  67.050  1.00  0.00    -0.271 A  
HETATM   31  C   UNL     1     -11.823  13.923  68.170  1.00  0.00    -0.407 A  
HETATM   32  C   UNL     1     -10.731  14.801  68.199  1.00  0.00    -0.247 A  
HETATM   33  C   UNL     1     -11.998  12.872  69.238  1.00  0.00    -0.260 C  
HETATM   34  C   UNL     1     -12.678  13.958  67.080  1.00  0.00     0.310 A  
HETATM   35  F   UNL     1     -10.950  12.794  70.099  1.00  0.00     0.087 F  
HETATM   36  F   UNL     1     -13.111  13.063  69.996  1.00  0.00     0.133 F  
HETATM   37  F   UNL     1     -12.118  11.628  68.691  1.00  0.00    -0.365 F  
HETATM   38  C   UNL     1     -12.325  14.692  65.955  1.00  0.00    -0.127 A  
HETATM   39  C   UNL     1     -11.082  15.342  65.883  1.00  0.00    -0.247 A  
BRANCH  39  40
HETATM   40  O   UNL     1     -10.670  15.947  64.720  1.00  0.00    -0.559 OA 
HETATM   41  C   UNL     1     -11.654  16.615  63.934  1.00  0.00     1.443 C  
ENDBRANCH  39  40
ENDBRANCH  23  30
ENDBRANCH  12  15
ENDBRANCH   7   9
ENDBRANCH   2   3
TORSDOF 6
ENDMDL
MODEL      108
REMARK 921   NORMALIZED FREE ENERGY PREDICTED BY IDOCK:   -0.37 KCAL/MOL
REMARK 922        TOTAL FREE ENERGY PREDICTED BY IDOCK:   -1.73 KCAL/MOL
REMARK 923 INTER-LIGAND FREE ENERGY PREDICTED BY IDOCK:   -1.46 KCAL/MOL
REMARK 924 INTRA-LIGAND FREE ENERGY PREDICTED BY IDOCK:   -0.27 KCAL/MOL
REMARK 927      BINDING AFFINITY PREDICTED BY RF-SCORE:    0.00 PKD
ROOT
HETATM    1  C   UNL     1      -9.764   6.701  67.836  1.00  0.00    -0.122 C  
HETATM    2  O   UNL     1      -8.575   5.983  67.518  1.00  0.00    -0.108 OA 
ENDROOT
BRANCH   2   3
HETATM    3  C   UNL     1      -7.403   6.441  68.063  1.00  0.00    -0.089 A  
HETATM    4  C   UNL     1      -6.397   5.647  68.600  1.00  0.00    -0.041 A  
HETATM    5  C   UNL     1      -5.269   6.255  69.146  1.00  0.00    -0.011 A  
HETATM    6  C   UNL     1      -5.143   7.653  69.147  1.00  0.00    -0.015 A  
HETATM    7  C   UNL     1      -6.122   8.491  68.593  1.00  0.00    -0.045 A  
HETATM    8  C   UNL     1      -7.252   7.839  68.062  1.00  0.00    -0.087 A  
BRANCH   7   9
HETATM    9  N   UNL     1      -5.985   9.865  68.572  1.00  0.00    -0.042 NA 
HETATM   10  C   UNL     1      -5.698  10.631  67.348  1.00  0.00    -0.044 C  
HETATM   11  C   UNL     1      -6.820  11.647  67.086  1.00  0.00    -0.143 C  
HETATM   12  N   UNL     1      -7.126  12.523  68.241  1.00  0.00    -0.094 NA 
HETATM   13  C   UNL     1      -7.140  11.835  69.568  1.00  0.00     0.092 C  
HETATM   14  C   UNL     1      -6.071  10.727  69.760  1.00  0.00    -0.081 C  
BRANCH  12  15
HETATM   15  C   UNL     1      -7.614  13.830  68.139  1.00  0.00    -0.128 C  
HETATM   16  N   UNL     1      -6.837  14.771  68.626  1.00  0.00    -0.098 NA 
HETATM   17  C   UNL     1      -7.137  16.134  68.444  1.00  0.00    -0.130 A  
HETATM   18  C   UNL     1      -8.231  16.539  67.698  1.00  0.00    -0.169 A  
HETATM   19  C   UNL     1      -8.424  17.909  67.406  1.00  0.00    -0.236 A  
HETATM   20  C   UNL     1      -9.272  15.516  67.290  1.00  0.00    -0.209 C  
HETATM   21  F   UNL     1      -5.245  16.799  69.739  1.00  0.00    -0.137 F  
HETATM   22  C   UNL     1      -7.588  18.884  67.935  1.00  0.00    -0.283 A  
HETATM   23  N   UNL     1      -8.879  14.094  67.574  1.00  0.00    -0.190 NA 
HETATM   24  C   UNL     1      -6.297  17.132  68.974  1.00  0.00    -0.204 A  
HETATM   25  C   UNL     1      -6.531  18.494  68.742  1.00  0.00    -0.239 A  
BRANCH  20  26
HETATM   26  C   UNL     1     -10.613  15.937  67.945  1.00  0.00    -0.300 C  
HETATM   27  O   UNL     1      -9.647  15.974  70.180  1.00  0.00     0.134 OA 
HETATM   28  C   UNL     1     -10.569  16.485  69.347  1.00  0.00    -0.329 C  
HETATM   29  O   UNL     1     -11.405  17.291  69.743  1.00  0.00     0.615 OA 
ENDBRANCH  20  26
BRANCH  23  30
HETATM   30  C   UNL     1      -9.969  13.153  67.440  1.00  0.00    -0.229 A  
HETATM   31  C   UNL     1     -11.240  11.632  65.980  1.00  0.00    -0.299 A  
HETATM   32  C   UNL     1     -10.140  12.465  66.224  1.00  0.00    -0.257 A  
HETATM   33  C   UNL     1     -11.664  11.304  64.569  1.00  0.00     0.292 C  
HETATM   34  C   UNL     1     -12.006  11.207  67.055  1.00  0.00     0.795 A  
HETATM   35  F   UNL     1     -10.975  11.993  63.623  1.00  0.00    -0.349 F  
HETATM   36  F   UNL     1     -11.530   9.985  64.266  1.00  0.00     1.804 F  
HETATM   37  F   UNL     1     -12.977  11.611  64.366  1.00  0.00    -0.227 F  
HETATM   38  C   UNL     1     -11.808  11.779  68.305  1.00  0.00    -0.340 A  
HETATM   39  C   UNL     1     -10.891  12.827  68.479  1.00  0.00    -0.253 A  
BRANCH  39  40
HETATM   40  O   UNL     1     -10.797  13.490  69.679  1.00  0.00     0.004 OA 
HETATM   41  C   UNL     1     -11.695  13.110  70.719  1.00  0.00     0.332 C  
ENDBRANCH  39  40
ENDBRANCH  23  30
ENDBRANCH  12  15
ENDBRANCH   7   9
ENDBRANCH   2   3
TORSDOF 6
ENDMDL
MODEL      109
REMARK 921   NORMALIZED FREE ENERGY PREDICTED BY IDOCK:   -0.20 KCAL/MOL
REMARK 922        TOTAL FREE ENERGY PREDICTED BY IDOCK:   -1.51 KCAL/MOL
REMARK 923 INTER-LIGAND FREE ENERGY PREDICTED BY IDOCK:   -6.63 KCAL/MOL
REMARK 924 INTRA-LIGAND FREE ENERGY PREDICTED BY IDOCK:    5.12 KCAL/MOL
REMARK 927      BINDING AFFINITY PREDICTED BY RF-SCORE:    0.00 PKD
ROOT
HETATM    1  C   UNL     1     -10.183  20.473  69.743  1.00  0.00     0.567 C  
HETATM    2  O   UNL     1     -10.438  19.478  68.756  1.00  0.00    -0.292 OA 
ENDROOT
BRANCH   2   3
HETATM    3  C   UNL     1      -9.414  19.173  67.895  1.00  0.00    -0.320 A  
HETATM    4  C   UNL     1      -8.588  20.093  67.263  1.00  0.00    -0.414 A  
HETATM    5  C   UNL     1      -7.603  19.636  66.391  1.00  0.00    -0.302 A  
HETATM    6  C   UNL     1      -7.438  18.262  66.159  1.00  0.00    -0.291 A  
HETATM    7  C   UNL     1      -8.233  17.297  66.794  1.00  0.00    -0.247 A  
HETATM    8  C   UNL     1      -9.225  17.799  67.659  1.00  0.00    -0.249 A  
BRANCH   7   9
HETATM    9  N   UNL     1      -8.053  15.944  66.584  1.00  0.00    -0.266 NA 
HETATM   10  C   UNL     1      -6.793  15.240  66.873  1.00  0.00     0.510 C  
HETATM   11  C   UNL     1      -7.035  14.126  67.903  1.00  0.00    -0.165 C  
HETATM   12  N   UNL     1      -8.131  13.196  67.544  1.00  0.00    -0.170 NA 
HETATM   13  C   UNL     1      -9.344  13.846  66.962  1.00  0.00    -0.251 C  
HETATM   14  C   UNL     1      -9.074  15.049  66.018  1.00  0.00    -0.114 C  
BRANCH  12  15
HETATM   15  C   UNL     1      -8.187  11.851  67.923  1.00  0.00    -0.150 C  
HETATM   16  N   UNL     1      -7.581  11.548  69.049  1.00  0.00    -0.097 NA 
HETATM   17  C   UNL     1      -7.697  10.268  69.622  1.00  0.00    -0.160 A  
HETATM   18  C   UNL     1      -8.500   9.294  69.053  1.00  0.00    -0.132 A  
HETATM   19  C   UNL     1      -8.717   8.070  69.727  1.00  0.00    -0.136 A  
HETATM   20  C   UNL     1      -9.054   9.508  67.659  1.00  0.00    -0.120 C  
HETATM   21  F   UNL     1      -6.218  10.849  71.402  1.00  0.00     0.148 F  
HETATM   22  C   UNL     1      -8.062   7.775  70.915  1.00  0.00    -0.102 A  
HETATM   23  N   UNL     1      -8.832  10.891  67.116  1.00  0.00    -0.135 NA 
HETATM   24  C   UNL     1      -7.040   9.957  70.827  1.00  0.00     0.037 A  
HETATM   25  C   UNL     1      -7.201   8.716  71.458  1.00  0.00    -0.112 A  
BRANCH  20  26
HETATM   26  C   UNL     1      -8.480   8.383  66.757  1.00  0.00    -0.114 C  
HETATM   27  O   UNL     1      -6.239   9.336  66.791  1.00  0.00    -0.063 OA 
HETATM   28  C   UNL     1      -6.984   8.221  66.702  1.00  0.00    -0.069 C  
HETATM   29  O   UNL     1      -6.469   7.129  66.484  1.00  0.00    -0.048 OA 
ENDBRANCH  20  26
BRANCH  23  30
HETATM   30  C   UNL     1      -9.111  11.012  65.702  1.00  0.00    -0.206 A  
HETATM   31  C   UNL     1     -10.667  11.751  63.942  1.00  0.00    -0.457 A  
HETATM   32  C   UNL     1     -10.268  11.697  65.285  1.00  0.00    -0.316 A  
HETATM   33  C   UNL     1     -12.099  12.045  63.572  1.00  0.00    -0.526 C  
HETATM   34  C   UNL     1      -9.748  11.412  62.960  1.00  0.00    -0.393 A  
HETATM   35  F   UNL     1     -12.934  12.106  64.642  1.00  0.00    -0.515 F  
HETATM   36  F   UNL     1     -12.245  13.217  62.898  1.00  0.00    -0.592 F  
HETATM   37  F   UNL     1     -12.609  11.073  62.763  1.00  0.00     0.028 F  
HETATM   38  C   UNL     1      -8.542  10.826  63.323  1.00  0.00    -0.107 A  
HETATM   39  C   UNL     1      -8.271  10.511  64.664  1.00  0.00    -0.088 A  
BRANCH  39  40
HETATM   40  O   UNL     1      -7.144   9.803  65.007  1.00  0.00    -0.107 OA 
HETATM   41  C   UNL     1      -6.247   9.436  63.963  1.00  0.00    -0.092 C  
ENDBRANCH  39  40
ENDBRANCH  23  30
ENDBRANCH  12  15
ENDBRANCH   7   9
ENDBRANCH   2   3
TORSDOF 6
ENDMDL
MODEL      110
REMARK 921   NORMALIZED FREE ENERGY PREDICTED BY IDOCK:   -0.18 KCAL/MOL
REMARK 922        TOTAL FREE ENERGY PREDICTED BY IDOCK:   -1.48 KCAL/MOL
REMARK 923 INTER-LIGAND FREE ENERGY PREDICTED BY IDOCK:   -3.00 KCAL/MOL
REMARK 924 INTRA-LIGAND FREE ENERGY PREDICTED BY IDOCK:    1.52 KCAL/MOL
REMARK 927      BINDING AFFINITY PREDICTED BY RF-SCORE:    0.00 PKD
ROOT
HETATM    1  C   UNL     1     -10.684  20.703  65.254  1.00  0.00     0.880 C  
HETATM    2  O   UNL     1     -10.123  20.947  66.540  1.00  0.00    -0.002 OA 
ENDROOT
BRANCH   2   3
HETATM    3  C   UNL     1      -9.207  20.038  67.006  1.00  0.00    -0.376 A  
HETATM    4  C   UNL     1      -7.943  20.342  67.495  1.00  0.00    -0.346 A  
HETATM    5  C   UNL     1      -7.108  19.308  67.910  1.00  0.00    -0.273 A  
HETATM    6  C   UNL     1      -7.539  17.974  67.846  1.00  0.00    -0.231 A  
HETATM    7  C   UNL     1      -8.816  17.623  67.383  1.00  0.00    -0.235 A  
HETATM    8  C   UNL     1      -9.626  18.696  66.962  1.00  0.00    -0.319 A  
BRANCH   7   9
HETATM    9  N   UNL     1      -9.249  16.313  67.345  1.00  0.00    -0.210 NA 
HETATM   10  C   UNL     1      -9.996  15.738  66.214  1.00  0.00    -0.295 C  
HETATM   11  C   UNL     1      -9.225  14.549  65.621  1.00  0.00     0.318 C  
HETATM   12  N   UNL     1      -8.833  13.524  66.617  1.00  0.00    -0.129 NA 
HETATM   13  C   UNL     1      -8.334  14.066  67.917  1.00  0.00    -0.168 C  
HETATM   14  C   UNL     1      -9.053  15.342  68.433  1.00  0.00    -0.189 C  
BRANCH  12  15
HETATM   15  C   UNL     1      -8.682  12.162  66.336  1.00  0.00    -0.052 C  
HETATM   16  N   UNL     1      -8.302  11.869  65.113  1.00  0.00     0.916 NA 
HETATM   17  C   UNL     1      -7.960  10.553  64.749  1.00  0.00    -0.046 A  
HETATM   18  C   UNL     1      -7.957   9.526  65.677  1.00  0.00    -0.108 A  
HETATM   19  C   UNL     1      -7.467   8.248  65.320  1.00  0.00    -0.083 A  
HETATM   20  C   UNL     1      -8.579   9.752  67.040  1.00  0.00    -0.124 C  
HETATM   21  F   UNL     1      -7.580  11.201  62.484  1.00  0.00    -0.126 F  
HETATM   22  C   UNL     1      -7.072   7.965  64.019  1.00  0.00    -0.076 A  
HETATM   23  N   UNL     1      -8.957  11.181  67.312  1.00  0.00    -0.146 NA 
HETATM   24  C   UNL     1      -7.557  10.253  63.433  1.00  0.00    -0.112 A  
HETATM   25  C   UNL     1      -7.139   8.968  63.064  1.00  0.00    -0.088 A  
BRANCH  20  26
HETATM   26  C   UNL     1      -9.760   8.757  67.179  1.00  0.00    -0.248 C  
HETATM   27  O   UNL     1      -8.281   6.889  67.684  1.00  0.00    -0.115 OA 
HETATM   28  C   UNL     1      -9.493   7.441  67.862  1.00  0.00    -0.140 C  
HETATM   29  O   UNL     1     -10.378   6.848  68.471  1.00  0.00    -0.169 OA 
ENDBRANCH  20  26
BRANCH  23  30
HETATM   30  C   UNL     1      -9.789  11.349  68.482  1.00  0.00    -0.198 A  
HETATM   31  C   UNL     1     -11.579  12.618  69.600  1.00  0.00    -0.321 A  
HETATM   32  C   UNL     1     -10.813  12.316  68.466  1.00  0.00    -0.267 A  
HETATM   33  C   UNL     1     -12.303  13.937  69.714  1.00  0.00    -0.275 C  
HETATM   34  C   UNL     1     -11.565  11.735  70.668  1.00  0.00     0.204 A  
HETATM   35  F   UNL     1     -12.020  14.800  68.704  1.00  0.00    -0.330 F  
HETATM   36  F   UNL     1     -13.656  13.800  69.742  1.00  0.00     0.688 F  
HETATM   37  F   UNL     1     -11.962  14.588  70.862  1.00  0.00    -0.320 F  
HETATM   38  C   UNL     1     -10.642  10.697  70.688  1.00  0.00     0.543 A  
HETATM   39  C   UNL     1      -9.680  10.573  69.673  1.00  0.00    -0.056 A  
BRANCH  39  40
HETATM   40  O   UNL     1      -8.678   9.636  69.764  1.00  0.00    -0.173 OA 
HETATM   41  C   UNL     1      -8.543   8.925  70.991  1.00  0.00    -0.206 C  
ENDBRANCH  39  40
ENDBRANCH  23  30
ENDBRANCH  12  15
ENDBRANCH   7   9
ENDBRANCH   2   3
TORSDOF 6
ENDMDL
MODEL      111
REMARK 921   NORMALIZED FREE ENERGY PREDICTED BY IDOCK:   -0.02 KCAL/MOL
REMARK 922        TOTAL FREE ENERGY PREDICTED BY IDOCK:   -1.26 KCAL/MOL
REMARK 923 INTER-LIGAND FREE ENERGY PREDICTED BY IDOCK:   -1.74 KCAL/MOL
REMARK 924 INTRA-LIGAND FREE ENERGY PREDICTED BY IDOCK:    0.48 KCAL/MOL
REMARK 927      BINDING AFFINITY PREDICTED BY RF-SCORE:    0.00 PKD
ROOT
HETATM    1  C   UNL     1      -9.652   1.470  66.162  1.00  0.00     0.403 C  
HETATM    2  O   UNL     1     -10.368   1.568  64.935  1.00  0.00     0.518 OA 
ENDROOT
BRANCH   2   3
HETATM    3  C   UNL     1     -10.203   2.717  64.204  1.00  0.00    -0.049 A  
HETATM    4  C   UNL     1     -10.806   2.993  62.983  1.00  0.00    -0.192 A  
HETATM    5  C   UNL     1     -10.523   4.195  62.341  1.00  0.00    -0.153 A  
HETATM    6  C   UNL     1      -9.645   5.124  62.921  1.00  0.00     0.483 A  
HETATM    7  C   UNL     1      -9.033   4.898  64.163  1.00  0.00    -0.048 A  
HETATM    8  C   UNL     1      -9.336   3.667  64.775  1.00  0.00    -0.153 A  
BRANCH   7   9
HETATM    9  N   UNL     1      -8.190   5.824  64.745  1.00  0.00    -0.135 NA 
HETATM   10  C   UNL     1      -8.216   7.260  64.422  1.00  0.00     0.010 C  
HETATM   11  C   UNL     1      -8.510   8.081  65.686  1.00  0.00    -0.149 C  
HETATM   12  N   UNL     1      -7.616   7.776  66.828  1.00  0.00    -0.096 NA 
HETATM   13  C   UNL     1      -7.317   6.325  67.025  1.00  0.00    -0.083 C  
HETATM   14  C   UNL     1      -7.144   5.493  65.725  1.00  0.00    -0.067 C  
BRANCH  12  15
HETATM   15  C   UNL     1      -7.257   8.693  67.821  1.00  0.00    -0.088 C  
HETATM   16  N   UNL     1      -6.676   9.794  67.400  1.00  0.00    -0.073 NA 
HETATM   17  C   UNL     1      -6.410  10.862  68.277  1.00  0.00    -0.056 A  
HETATM   18  C   UNL     1      -6.800  10.819  69.604  1.00  0.00    -0.133 A  
HETATM   19  C   UNL     1      -6.655  11.962  70.424  1.00  0.00     0.593 A  
HETATM   20  C   UNL     1      -7.281   9.510  70.197  1.00  0.00    -0.114 C  
HETATM   21  F   UNL     1      -5.350  12.116  66.545  1.00  0.00    -0.079 F  
HETATM   22  C   UNL     1      -6.036  13.113  69.954  1.00  0.00    -0.128 A  
HETATM   23  N   UNL     1      -7.484   8.417  69.185  1.00  0.00    -0.087 NA 
HETATM   24  C   UNL     1      -5.785  12.035  67.812  1.00  0.00    -0.070 A  
HETATM   25  C   UNL     1      -5.579  13.142  68.646  1.00  0.00    -0.074 A  
BRANCH  20  26
HETATM   26  C   UNL     1      -6.300   9.132  71.337  1.00  0.00    -0.077 C  
HETATM   27  O   UNL     1      -8.106   8.739  72.922  1.00  0.00    -0.404 OA 
HETATM   28  C   UNL     1      -6.860   8.415  72.538  1.00  0.00    -0.088 C  
HETATM   29  O   UNL     1      -6.172   7.643  73.198  1.00  0.00    -0.058 OA 
ENDBRANCH  20  26
BRANCH  23  30
HETATM   30  C   UNL     1      -7.674   7.110  69.773  1.00  0.00    -0.108 A  
HETATM   31  C   UNL     1      -6.839   4.810  70.050  1.00  0.00    -0.044 A  
HETATM   32  C   UNL     1      -6.673   6.132  69.614  1.00  0.00    -0.052 A  
HETATM   33  C   UNL     1      -6.010   3.693  69.465  1.00  0.00    -0.023 C  
HETATM   34  C   UNL     1      -7.859   4.526  70.945  1.00  0.00    -0.068 A  
HETATM   35  F   UNL     1      -5.232   4.085  68.422  1.00  0.00    -0.009 F  
HETATM   36  F   UNL     1      -5.181   3.113  70.373  1.00  0.00    -0.003 F  
HETATM   37  F   UNL     1      -6.802   2.695  68.978  1.00  0.00    -0.035 F  
HETATM   38  C   UNL     1      -8.819   5.492  71.220  1.00  0.00    -0.142 A  
HETATM   39  C   UNL     1      -8.806   6.727  70.552  1.00  0.00    -0.151 A  
BRANCH  39  40
HETATM   40  O   UNL     1      -9.832   7.627  70.715  1.00  0.00    -0.178 OA 
HETATM   41  C   UNL     1     -11.167   7.138  70.608  1.00  0.00    -0.280 C  
ENDBRANCH  39  40
ENDBRANCH  23  30
ENDBRANCH  12  15
ENDBRANCH   7   9
ENDBRANCH   2   3
TORSDOF 6
ENDMDL
MODEL      112
REMARK 921   NORMALIZED FREE ENERGY PREDICTED BY IDOCK:    0.41 KCAL/MOL
REMARK 922        TOTAL FREE ENERGY PREDICTED BY IDOCK:   -0.68 KCAL/MOL
REMARK 923 INTER-LIGAND FREE ENERGY PREDICTED BY IDOCK:   -2.33 KCAL/MOL
REMARK 924 INTRA-LIGAND FREE ENERGY PREDICTED BY IDOCK:    1.65 KCAL/MOL
REMARK 927      BINDING AFFINITY PREDICTED BY RF-SCORE:    0.00 PKD
ROOT
HETATM    1  C   UNL     1      -6.531   4.392  68.356  1.00  0.00    -0.038 C  
HETATM    2  O   UNL     1      -6.864   3.705  67.154  1.00  0.00    -0.049 OA 
ENDROOT
BRANCH   2   3
HETATM    3  C   UNL     1      -6.576   4.337  65.971  1.00  0.00    -0.041 A  
HETATM    4  C   UNL     1      -5.765   3.833  64.962  1.00  0.00    -0.021 A  
HETATM    5  C   UNL     1      -5.539   4.602  63.823  1.00  0.00    -0.013 A  
HETATM    6  C   UNL     1      -6.130   5.868  63.689  1.00  0.00    -0.025 A  
HETATM    7  C   UNL     1      -6.975   6.405  64.672  1.00  0.00    -0.051 A  
HETATM    8  C   UNL     1      -7.169   5.603  65.812  1.00  0.00    -0.072 A  
BRANCH   7   9
HETATM    9  N   UNL     1      -7.576   7.640  64.527  1.00  0.00    -0.105 NA 
HETATM   10  C   UNL     1      -9.028   7.820  64.368  1.00  0.00     0.868 C  
HETATM   11  C   UNL     1      -9.580   8.695  65.503  1.00  0.00     0.148 C  
HETATM   12  N   UNL     1      -8.868   9.982  65.677  1.00  0.00    -0.153 NA 
HETATM   13  C   UNL     1      -7.380   9.902  65.555  1.00  0.00    -0.122 C  
HETATM   14  C   UNL     1      -6.848   8.917  64.479  1.00  0.00    -0.081 C  
BRANCH  12  15
HETATM   15  C   UNL     1      -9.455  11.155  66.164  1.00  0.00    -0.204 C  
HETATM   16  N   UNL     1      -9.681  12.094  65.274  1.00  0.00    -0.194 NA 
HETATM   17  C   UNL     1     -10.409  13.254  65.602  1.00  0.00    -0.287 A  
HETATM   18  C   UNL     1     -10.963  13.425  66.858  1.00  0.00    -0.295 A  
HETATM   19  C   UNL     1     -11.813  14.526  67.115  1.00  0.00    -0.412 A  
HETATM   20  C   UNL     1     -10.567  12.488  67.981  1.00  0.00    -0.223 C  
HETATM   21  F   UNL     1     -10.094  14.158  63.416  1.00  0.00     1.898 F  
HETATM   22  C   UNL     1     -12.034  15.506  66.156  1.00  0.00     0.624 A  
HETATM   23  N   UNL     1      -9.747  11.309  67.535  1.00  0.00    -0.176 NA 
HETATM   24  C   UNL     1     -10.641  14.253  64.637  1.00  0.00    -0.340 A  
HETATM   25  C   UNL     1     -11.426  15.380  64.916  1.00  0.00    -0.311 A  
BRANCH  20  26
HETATM   26  C   UNL     1      -9.884  13.344  69.078  1.00  0.00     0.209 C  
HETATM   27  O   UNL     1      -9.291  15.105  67.503  1.00  0.00    -0.194 OA 
HETATM   28  C   UNL     1      -9.611  14.794  68.771  1.00  0.00    -0.215 C  
HETATM   29  O   UNL     1      -9.581  15.639  69.659  1.00  0.00    -0.277 OA 
ENDBRANCH  20  26
BRANCH  23  30
HETATM   30  C   UNL     1      -9.146  10.575  68.625  1.00  0.00    -0.158 A  
HETATM   31  C   UNL     1      -9.394   8.841  70.356  1.00  0.00    -0.205 A  
HETATM   32  C   UNL     1      -9.860   9.517  69.220  1.00  0.00    -0.184 A  
HETATM   33  C   UNL     1     -10.344   8.079  71.247  1.00  0.00    -0.193 C  
HETATM   34  C   UNL     1      -8.062   8.980  70.715  1.00  0.00    -0.194 A  
HETATM   35  F   UNL     1     -11.651   8.242  70.910  1.00  0.00    -0.271 F  
HETATM   36  F   UNL     1     -10.108   6.740  71.255  1.00  0.00    -0.188 F  
HETATM   37  F   UNL     1     -10.245   8.493  72.542  1.00  0.00    -0.348 F  
HETATM   38  C   UNL     1      -7.279   9.940  70.086  1.00  0.00    -0.159 A  
HETATM   39  C   UNL     1      -7.838  10.815  69.142  1.00  0.00    -0.142 A  
BRANCH  39  40
HETATM   40  O   UNL     1      -7.104  11.856  68.626  1.00  0.00    -0.089 OA 
HETATM   41  C   UNL     1      -5.736  11.960  69.012  1.00  0.00    -0.053 C  
ENDBRANCH  39  40
ENDBRANCH  23  30
ENDBRANCH  12  15
ENDBRANCH   7   9
ENDBRANCH   2   3
TORSDOF 6
ENDMDL
MODEL      113
REMARK 921   NORMALIZED FREE ENERGY PREDICTED BY IDOCK:    0.59 KCAL/MOL
REMARK 922        TOTAL FREE ENERGY PREDICTED BY IDOCK:   -0.44 KCAL/MOL
REMARK 923 INTER-LIGAND FREE ENERGY PREDICTED BY IDOCK:   -2.29 KCAL/MOL
REMARK 924 INTRA-LIGAND FREE ENERGY PREDICTED BY IDOCK:    1.85 KCAL/MOL
REMARK 927      BINDING AFFINITY PREDICTED BY RF-SCORE:    0.00 PKD
ROOT
HETATM    1  C   UNL     1     -10.846   4.608  74.078  1.00  0.00    -0.263 C  
HETATM    2  O   UNL     1     -11.191   5.489  73.014  1.00  0.00    -0.285 OA 
ENDROOT
BRANCH   2   3
HETATM    3  C   UNL     1     -10.343   5.531  71.936  1.00  0.00    -0.216 A  
HETATM    4  C   UNL     1      -9.141   4.843  71.826  1.00  0.00    -0.166 A  
HETATM    5  C   UNL     1      -8.369   5.004  70.679  1.00  0.00    -0.106 A  
HETATM    6  C   UNL     1      -8.801   5.843  69.640  1.00  0.00    -0.131 A  
HETATM    7  C   UNL     1     -10.019   6.537  69.699  1.00  0.00    -0.164 A  
HETATM    8  C   UNL     1     -10.765   6.358  70.879  1.00  0.00    -0.301 A  
BRANCH   7   9
HETATM    9  N   UNL     1     -10.455   7.342  68.665  1.00  0.00    -0.198 NA 
HETATM   10  C   UNL     1     -11.730   8.079  68.694  1.00  0.00     1.723 C  
HETATM   11  C   UNL     1     -11.472   9.586  68.552  1.00  0.00     0.417 C  
HETATM   12  N   UNL     1     -10.637   9.951  67.384  1.00  0.00    -0.271 NA 
HETATM   13  C   UNL     1      -9.475   9.045  67.133  1.00  0.00    -0.152 C  
HETATM   14  C   UNL     1      -9.729   7.538  67.402  1.00  0.00    -0.159 C  
BRANCH  12  15
HETATM   15  C   UNL     1     -10.726  11.163  66.692  1.00  0.00    -0.269 C  
HETATM   16  N   UNL     1     -11.432  11.138  65.584  1.00  0.00     0.077 NA 
HETATM   17  C   UNL     1     -11.731  12.321  64.881  1.00  0.00    -0.352 A  
HETATM   18  C   UNL     1     -11.343  13.561  65.357  1.00  0.00    -0.302 A  
HETATM   19  C   UNL     1     -11.784  14.739  64.712  1.00  0.00    -0.422 A  
HETATM   20  C   UNL     1     -10.358  13.641  66.506  1.00  0.00    -0.282 C  
HETATM   21  F   UNL     1     -12.855  11.102  63.164  1.00  0.00    -0.212 F  
HETATM   22  C   UNL     1     -12.529  14.685  63.541  1.00  0.00     0.708 A  
HETATM   23  N   UNL     1     -10.065  12.319  67.157  1.00  0.00    -0.207 NA 
HETATM   24  C   UNL     1     -12.486  12.278  63.693  1.00  0.00    -0.541 A  
HETATM   25  C   UNL     1     -12.863  13.446  63.016  1.00  0.00     0.869 A  
BRANCH  20  26
HETATM   26  C   UNL     1      -9.096  14.373  65.981  1.00  0.00     0.063 C  
HETATM   27  O   UNL     1      -9.974  16.566  66.574  1.00  0.00    -0.258 OA 
HETATM   28  C   UNL     1      -8.881  15.801  66.410  1.00  0.00    -0.336 C  
HETATM   29  O   UNL     1      -7.754  16.275  66.506  1.00  0.00    -0.256 OA 
ENDBRANCH  20  26
BRANCH  23  30
HETATM   30  C   UNL     1      -8.935  12.353  68.057  1.00  0.00    -0.194 A  
HETATM   31  C   UNL     1      -7.049  11.143  69.080  1.00  0.00    -0.113 A  
HETATM   32  C   UNL     1      -8.089  11.230  68.144  1.00  0.00    -0.134 A  
HETATM   33  C   UNL     1      -6.486   9.804  69.489  1.00  0.00    -0.046 C  
HETATM   34  C   UNL     1      -6.623  12.301  69.712  1.00  0.00     0.032 A  
HETATM   35  F   UNL     1      -7.172   8.749  68.976  1.00  0.00    -0.066 F  
HETATM   36  F   UNL     1      -5.187   9.639  69.125  1.00  0.00    -0.036 F  
HETATM   37  F   UNL     1      -6.527   9.646  70.843  1.00  0.00    -0.076 F  
HETATM   38  C   UNL     1      -7.364  13.469  69.577  1.00  0.00     0.361 A  
HETATM   39  C   UNL     1      -8.573  13.473  68.864  1.00  0.00     0.212 A  
BRANCH  39  40
HETATM   40  O   UNL     1      -9.378  14.586  68.848  1.00  0.00    -0.199 OA 
HETATM   41  C   UNL     1      -9.069  15.641  69.756  1.00  0.00    -0.040 C  
ENDBRANCH  39  40
ENDBRANCH  23  30
ENDBRANCH  12  15
ENDBRANCH   7   9
ENDBRANCH   2   3
TORSDOF 6
ENDMDL
MODEL      114
REMARK 921   NORMALIZED FREE ENERGY PREDICTED BY IDOCK:    0.75 KCAL/MOL
REMARK 922        TOTAL FREE ENERGY PREDICTED BY IDOCK:   -0.22 KCAL/MOL
REMARK 923 INTER-LIGAND FREE ENERGY PREDICTED BY IDOCK:   -1.98 KCAL/MOL
REMARK 924 INTRA-LIGAND FREE ENERGY PREDICTED BY IDOCK:    1.75 KCAL/MOL
REMARK 927      BINDING AFFINITY PREDICTED BY RF-SCORE:    0.00 PKD
ROOT
HETATM    1  C   UNL     1      -9.668   4.955  68.616  1.00  0.00    -0.160 C  
HETATM    2  O   UNL     1     -10.208   6.228  68.276  1.00  0.00    -0.141 OA 
ENDROOT
BRANCH   2   3
HETATM    3  C   UNL     1     -10.846   6.924  69.272  1.00  0.00    -0.237 A  
HETATM    4  C   UNL     1     -11.660   6.369  70.252  1.00  0.00    -0.451 A  
HETATM    5  C   UNL     1     -12.266   7.205  71.186  1.00  0.00    -0.405 A  
HETATM    6  C   UNL     1     -12.052   8.592  71.147  1.00  0.00    -0.283 A  
HETATM    7  C   UNL     1     -11.219   9.192  70.190  1.00  0.00    -0.187 A  
HETATM    8  C   UNL     1     -10.634   8.314  69.257  1.00  0.00    -0.191 A  
BRANCH   7   9
HETATM    9  N   UNL     1     -10.988  10.552  70.168  1.00  0.00    -0.290 NA 
HETATM   10  C   UNL     1      -9.660  11.153  70.372  1.00  0.00     2.513 C  
HETATM   11  C   UNL     1      -9.261  11.982  69.142  1.00  0.00     0.523 C  
HETATM   12  N   UNL     1     -10.274  12.982  68.731  1.00  0.00    -0.150 NA 
HETATM   13  C   UNL     1     -11.690  12.505  68.788  1.00  0.00    -0.327 C  
HETATM   14  C   UNL     1     -12.034  11.569  69.977  1.00  0.00    -0.357 C  
BRANCH  12  15
HETATM   15  C   UNL     1      -9.982  14.193  68.095  1.00  0.00    -0.232 C  
HETATM   16  N   UNL     1      -9.949  15.253  68.871  1.00  0.00    -0.215 NA 
HETATM   17  C   UNL     1      -9.512  16.501  68.387  1.00  0.00    -0.223 A  
HETATM   18  C   UNL     1      -9.047  16.649  67.092  1.00  0.00    -0.227 A  
HETATM   19  C   UNL     1      -8.476  17.875  66.679  1.00  0.00    -0.281 A  
HETATM   20  C   UNL     1      -9.252  15.527  66.095  1.00  0.00    -0.344 C  
HETATM   21  F   UNL     1      -9.962  17.552  70.482  1.00  0.00     0.970 F  
HETATM   22  C   UNL     1      -8.456  18.981  67.519  1.00  0.00    -0.307 A  
HETATM   23  N   UNL     1      -9.771  14.253  66.702  1.00  0.00    -0.276 NA 
HETATM   24  C   UNL     1      -9.486  17.629  69.230  1.00  0.00     0.110 A  
HETATM   25  C   UNL     1      -8.984  18.863  68.795  1.00  0.00    -0.335 A  
BRANCH  20  26
HETATM   26  C   UNL     1     -10.142  16.082  64.952  1.00  0.00     0.359 C  
HETATM   27  O   UNL     1     -11.491  17.409  66.486  1.00  0.00     0.790 OA 
HETATM   28  C   UNL     1     -10.988  17.294  65.245  1.00  0.00     0.091 C  
HETATM   29  O   UNL     1     -11.290  18.089  64.361  1.00  0.00     0.114 OA 
ENDBRANCH  20  26
BRANCH  23  30
HETATM   30  C   UNL     1     -10.221  13.286  65.726  1.00  0.00    -0.292 A  
HETATM   31  C   UNL     1      -9.694  11.306  64.360  1.00  0.00    -0.293 A  
HETATM   32  C   UNL     1      -9.378  12.212  65.382  1.00  0.00     0.058 A  
HETATM   33  C   UNL     1      -8.617  10.492  63.687  1.00  0.00    -0.156 C  
HETATM   34  C   UNL     1     -10.999  11.255  63.895  1.00  0.00    -0.382 A  
HETATM   35  F   UNL     1      -7.360  10.833  64.074  1.00  0.00    -0.007 F  
HETATM   36  F   UNL     1      -8.743   9.156  63.907  1.00  0.00    -0.192 F  
HETATM   37  F   UNL     1      -8.644  10.662  62.334  1.00  0.00    -0.173 F  
HETATM   38  C   UNL     1     -11.905  12.233  64.286  1.00  0.00    -0.482 A  
HETATM   39  C   UNL     1     -11.497  13.309  65.090  1.00  0.00    -0.295 A  
BRANCH  39  40
HETATM   40  O   UNL     1     -12.352  14.351  65.359  1.00  0.00    -0.396 OA 
HETATM   41  C   UNL     1     -12.856  14.471  66.687  1.00  0.00     0.782 C  
ENDBRANCH  39  40
ENDBRANCH  23  30
ENDBRANCH  12  15
ENDBRANCH   7   9
ENDBRANCH   2   3
TORSDOF 6
ENDMDL
MODEL      115
REMARK 921   NORMALIZED FREE ENERGY PREDICTED BY IDOCK:    1.23 KCAL/MOL
REMARK 922        TOTAL FREE ENERGY PREDICTED BY IDOCK:    0.43 KCAL/MOL
REMARK 923 INTER-LIGAND FREE ENERGY PREDICTED BY IDOCK:   -6.12 KCAL/MOL
REMARK 924 INTRA-LIGAND FREE ENERGY PREDICTED BY IDOCK:    6.55 KCAL/MOL
REMARK 927      BINDING AFFINITY PREDICTED BY RF-SCORE:    0.00 PKD
ROOT
HETATM    1  C   UNL     1     -10.935  16.106  66.021  1.00  0.00    -0.056 C  
HETATM    2  O   UNL     1     -10.283  15.493  64.914  1.00  0.00    -0.374 OA 
ENDROOT
BRANCH   2   3
HETATM    3  C   UNL     1     -10.710  14.241  64.550  1.00  0.00    -0.259 A  
HETATM    4  C   UNL     1     -11.835  13.961  63.785  1.00  0.00    -0.234 A  
HETATM    5  C   UNL     1     -12.162  12.634  63.517  1.00  0.00    -0.638 A  
HETATM    6  C   UNL     1     -11.361  11.590  64.005  1.00  0.00    -0.380 A  
HETATM    7  C   UNL     1     -10.203  11.828  64.760  1.00  0.00    -0.282 A  
HETATM    8  C   UNL     1      -9.913  13.181  65.020  1.00  0.00    -0.163 A  
BRANCH   7   9
HETATM    9  N   UNL     1      -9.402  10.801  65.218  1.00  0.00    -0.199 NA 
HETATM   10  C   UNL     1      -9.633  10.097  66.490  1.00  0.00    -0.187 C  
HETATM   11  C   UNL     1      -9.851   8.599  66.234  1.00  0.00    -0.249 C  
HETATM   12  N   UNL     1      -8.787   7.962  65.423  1.00  0.00    -0.050 NA 
HETATM   13  C   UNL     1      -8.302   8.777  64.268  1.00  0.00    -0.151 C  
HETATM   14  C   UNL     1      -8.207  10.306  64.518  1.00  0.00    -0.158 C  
BRANCH  12  15
HETATM   15  C   UNL     1      -8.407   6.620  65.526  1.00  0.00    -0.144 C  
HETATM   16  N   UNL     1      -8.694   5.863  64.491  1.00  0.00     0.072 NA 
HETATM   17  C   UNL     1      -8.227   4.539  64.400  1.00  0.00    -0.108 A  
HETATM   18  C   UNL     1      -7.400   3.998  65.370  1.00  0.00    -0.076 A  
HETATM   19  C   UNL     1      -6.825   2.720  65.181  1.00  0.00    -0.044 A  
HETATM   20  C   UNL     1      -7.204   4.739  66.677  1.00  0.00    -0.080 C  
HETATM   21  F   UNL     1      -9.375   4.197  62.336  1.00  0.00    -0.098 F  
HETATM   22  C   UNL     1      -7.147   1.940  64.078  1.00  0.00    -0.043 A  
HETATM   23  N   UNL     1      -7.784   6.125  66.691  1.00  0.00    -0.101 NA 
HETATM   24  C   UNL     1      -8.545   3.739  63.286  1.00  0.00    -0.093 A  
HETATM   25  C   UNL     1      -8.030   2.444  63.135  1.00  0.00    -0.068 A  
BRANCH  20  26
HETATM   26  C   UNL     1      -7.741   3.826  67.810  1.00  0.00    -0.070 C  
HETATM   27  O   UNL     1     -10.063   4.239  67.204  1.00  0.00    -0.158 OA 
HETATM   28  C   UNL     1      -9.176   3.377  67.730  1.00  0.00    -0.190 C  
HETATM   29  O   UNL     1      -9.539   2.311  68.217  1.00  0.00    -0.211 OA 
ENDBRANCH  20  26
BRANCH  23  30
HETATM   30  C   UNL     1      -7.839   6.719  68.007  1.00  0.00    -0.113 A  
HETATM   31  C   UNL     1      -8.847   8.407  69.490  1.00  0.00    -0.145 A  
HETATM   32  C   UNL     1      -8.810   7.702  68.279  1.00  0.00    -0.125 A  
HETATM   33  C   UNL     1      -9.543   9.742  69.587  1.00  0.00    -0.221 C  
HETATM   34  C   UNL     1      -8.133   7.913  70.571  1.00  0.00    -0.109 A  
HETATM   35  F   UNL     1      -9.978  10.214  68.389  1.00  0.00    -0.150 F  
HETATM   36  F   UNL     1     -10.623   9.722  70.413  1.00  0.00    -0.265 F  
HETATM   37  F   UNL     1      -8.705  10.700  70.077  1.00  0.00    -0.018 F  
HETATM   38  C   UNL     1      -7.234   6.871  70.380  1.00  0.00    -0.076 A  
HETATM   39  C   UNL     1      -6.992   6.359  69.096  1.00  0.00    -0.068 A  
BRANCH  39  40
HETATM   40  O   UNL     1      -6.001   5.429  68.884  1.00  0.00    -0.021 OA 
HETATM   41  C   UNL     1      -5.729   4.499  69.930  1.00  0.00    -0.016 C  
ENDBRANCH  39  40
ENDBRANCH  23  30
ENDBRANCH  12  15
ENDBRANCH   7   9
ENDBRANCH   2   3
TORSDOF 6
ENDMDL
MODEL      116
REMARK 921   NORMALIZED FREE ENERGY PREDICTED BY IDOCK:    1.43 KCAL/MOL
REMARK 922        TOTAL FREE ENERGY PREDICTED BY IDOCK:    0.70 KCAL/MOL
REMARK 923 INTER-LIGAND FREE ENERGY PREDICTED BY IDOCK:   -4.36 KCAL/MOL
REMARK 924 INTRA-LIGAND FREE ENERGY PREDICTED BY IDOCK:    5.06 KCAL/MOL
REMARK 927      BINDING AFFINITY PREDICTED BY RF-SCORE:    0.00 PKD
ROOT
HETATM    1  C   UNL     1      -7.055   4.568  63.253  1.00  0.00    -0.044 C  
HETATM    2  O   UNL     1      -6.108   4.694  64.309  1.00  0.00    -0.021 OA 
ENDROOT
BRANCH   2   3
HETATM    3  C   UNL     1      -6.576   4.549  65.590  1.00  0.00    -0.041 A  
HETATM    4  C   UNL     1      -6.305   3.479  66.434  1.00  0.00    -0.032 A  
HETATM    5  C   UNL     1      -6.874   3.453  67.704  1.00  0.00    -0.050 A  
HETATM    6  C   UNL     1      -7.705   4.499  68.134  1.00  0.00    -0.080 A  
HETATM    7  C   UNL     1      -7.986   5.610  67.326  1.00  0.00    -0.102 A  
HETATM    8  C   UNL     1      -7.402   5.593  66.045  1.00  0.00    -0.077 A  
BRANCH   7   9
HETATM    9  N   UNL     1      -8.783   6.650  67.760  1.00  0.00    -0.117 NA 
HETATM   10  C   UNL     1      -8.315   7.701  68.678  1.00  0.00    -0.129 C  
HETATM   11  C   UNL     1      -8.442   9.080  68.013  1.00  0.00    -0.125 C  
HETATM   12  N   UNL     1      -9.790   9.367  67.468  1.00  0.00    -0.164 NA 
HETATM   13  C   UNL     1     -10.443   8.221  66.766  1.00  0.00    -0.243 C  
HETATM   14  C   UNL     1     -10.197   6.822  67.393  1.00  0.00    -0.197 C  
BRANCH  12  15
HETATM   15  C   UNL     1     -10.348  10.645  67.364  1.00  0.00    -0.219 C  
HETATM   16  N   UNL     1      -9.929  11.372  66.353  1.00  0.00    -0.208 NA 
HETATM   17  C   UNL     1     -10.525  12.609  66.044  1.00  0.00    -0.268 A  
HETATM   18  C   UNL     1     -11.612  13.083  66.758  1.00  0.00    -0.420 A  
HETATM   19  C   UNL     1     -12.284  14.254  66.334  1.00  0.00    -0.426 A  
HETATM   20  C   UNL     1     -12.007  12.402  68.052  1.00  0.00    -0.203 C  
HETATM   21  F   UNL     1      -8.989  12.987  64.257  1.00  0.00     0.878 F  
HETATM   22  C   UNL     1     -11.819  15.004  65.262  1.00  0.00    -0.148 A  
HETATM   23  N   UNL     1     -11.276  11.116  68.316  1.00  0.00    -0.254 NA 
HETATM   24  C   UNL     1     -10.064  13.378  64.959  1.00  0.00    -0.239 A  
HETATM   25  C   UNL     1     -10.689  14.575  64.583  1.00  0.00    -0.332 A  
BRANCH  20  26
HETATM   26  C   UNL     1     -11.861  13.448  69.188  1.00  0.00    -0.383 C  
HETATM   27  O   UNL     1      -9.430  13.314  69.160  1.00  0.00     0.282 OA 
HETATM   28  C   UNL     1     -10.509  14.080  69.392  1.00  0.00     0.071 C  
HETATM   29  O   UNL     1     -10.398  15.213  69.847  1.00  0.00    -0.246 OA 
ENDBRANCH  20  26
BRANCH  23  30
HETATM   30  C   UNL     1     -11.449  10.615  69.661  1.00  0.00    -0.291 A  
HETATM   31  C   UNL     1     -10.806   8.958  71.365  1.00  0.00    -0.378 A  
HETATM   32  C   UNL     1     -10.619   9.575  70.120  1.00  0.00    -0.298 A  
HETATM   33  C   UNL     1     -10.258   7.578  71.635  1.00  0.00    -0.184 C  
HETATM   34  C   UNL     1     -11.605   9.587  72.307  1.00  0.00     0.320 A  
HETATM   35  F   UNL     1      -9.717   6.986  70.538  1.00  0.00    -0.173 F  
HETATM   36  F   UNL     1      -9.297   7.566  72.597  1.00  0.00    -0.157 F  
HETATM   37  F   UNL     1     -11.239   6.733  72.063  1.00  0.00    -0.252 F  
HETATM   38  C   UNL     1     -12.369  10.685  71.934  1.00  0.00    -0.043 A  
HETATM   39  C   UNL     1     -12.394  11.123  70.601  1.00  0.00    -0.388 A  
BRANCH  39  40
HETATM   40  O   UNL     1     -13.256  12.116  70.202  1.00  0.00     0.667 OA 
HETATM   41  C   UNL     1     -13.610  13.113  71.158  1.00  0.00     0.356 C  
ENDBRANCH  39  40
ENDBRANCH  23  30
ENDBRANCH  12  15
ENDBRANCH   7   9
ENDBRANCH   2   3
TORSDOF 6
ENDMDL
MODEL      117
REMARK 921   NORMALIZED FREE ENERGY PREDICTED BY IDOCK:    1.46 KCAL/MOL
REMARK 922        TOTAL FREE ENERGY PREDICTED BY IDOCK:    0.74 KCAL/MOL
REMARK 923 INTER-LIGAND FREE ENERGY PREDICTED BY IDOCK:    0.54 KCAL/MOL
REMARK 924 INTRA-LIGAND FREE ENERGY PREDICTED BY IDOCK:    0.20 KCAL/MOL
REMARK 927      BINDING AFFINITY PREDICTED BY RF-SCORE:    0.00 PKD
ROOT
HETATM    1  C   UNL     1     -10.698  18.890  65.086  1.00  0.00     0.855 C  
HETATM    2  O   UNL     1     -11.381  18.425  66.246  1.00  0.00     0.629 OA 
ENDROOT
BRANCH   2   3
HETATM    3  C   UNL     1     -10.640  18.276  67.391  1.00  0.00    -0.401 A  
HETATM    4  C   UNL     1      -9.942  19.286  68.040  1.00  0.00    -0.473 A  
HETATM    5  C   UNL     1      -9.207  18.980  69.183  1.00  0.00    -0.156 A  
HETATM    6  C   UNL     1      -9.178  17.668  69.681  1.00  0.00     0.814 A  
HETATM    7  C   UNL     1      -9.888  16.622  69.072  1.00  0.00    -0.267 A  
HETATM    8  C   UNL     1     -10.608  16.970  67.913  1.00  0.00    -0.365 A  
BRANCH   7   9
HETATM    9  N   UNL     1      -9.879  15.338  69.578  1.00  0.00    -0.239 NA 
HETATM   10  C   UNL     1     -11.045  14.713  70.223  1.00  0.00    -0.095 C  
HETATM   11  C   UNL     1     -11.451  13.440  69.465  1.00  0.00    -0.244 C  
HETATM   12  N   UNL     1     -10.342  12.481  69.255  1.00  0.00     0.194 NA 
HETATM   13  C   UNL     1      -9.035  13.100  68.876  1.00  0.00     0.310 C  
HETATM   14  C   UNL     1      -8.707  14.450  69.569  1.00  0.00     0.445 C  
BRANCH  12  15
HETATM   15  C   UNL     1     -10.499  11.095  69.157  1.00  0.00    -0.182 C  
HETATM   16  N   UNL     1     -10.847  10.478  70.264  1.00  0.00    -0.245 NA 
HETATM   17  C   UNL     1     -11.192   9.114  70.265  1.00  0.00    -0.218 A  
HETATM   18  C   UNL     1     -11.233   8.380  69.092  1.00  0.00     0.328 A  
HETATM   19  C   UNL     1     -11.726   7.054  69.100  1.00  0.00     0.340 A  
HETATM   20  C   UNL     1     -10.648   8.970  67.824  1.00  0.00    -0.214 C  
HETATM   21  F   UNL     1     -11.500   9.117  72.631  1.00  0.00    -0.240 F  
HETATM   22  C   UNL     1     -12.085   6.426  70.285  1.00  0.00     0.019 A  
HETATM   23  N   UNL     1     -10.263  10.418  67.942  1.00  0.00    -0.170 NA 
HETATM   24  C   UNL     1     -11.560   8.466  71.460  1.00  0.00    -0.284 A  
HETATM   25  C   UNL     1     -11.981   7.130  71.475  1.00  0.00    -0.361 A  
BRANCH  20  26
HETATM   26  C   UNL     1      -9.482   8.047  67.382  1.00  0.00    -0.187 C  
HETATM   27  O   UNL     1      -8.501   8.019  69.610  1.00  0.00    -0.128 OA 
HETATM   28  C   UNL     1      -8.686   7.355  68.457  1.00  0.00    -0.127 C  
HETATM   29  O   UNL     1      -8.144   6.274  68.253  1.00  0.00    -0.110 OA 
ENDBRANCH  20  26
BRANCH  23  30
HETATM   30  C   UNL     1      -9.464  10.898  66.838  1.00  0.00    -0.176 A  
HETATM   31  C   UNL     1      -7.251  11.009  65.762  1.00  0.00     0.097 A  
HETATM   32  C   UNL     1      -8.119  10.491  66.733  1.00  0.00    -0.123 A  
HETATM   33  C   UNL     1      -5.755  10.951  65.952  1.00  0.00    -0.142 C  
HETATM   34  C   UNL     1      -7.790  11.681  64.677  1.00  0.00     1.768 A  
HETATM   35  F   UNL     1      -5.382  10.492  67.175  1.00  0.00    -0.039 F  
HETATM   36  F   UNL     1      -5.132  10.164  65.034  1.00  0.00    -0.042 F  
HETATM   37  F   UNL     1      -5.196  12.189  65.838  1.00  0.00     0.359 F  
HETATM   38  C   UNL     1      -9.138  12.018  64.679  1.00  0.00     0.525 A  
HETATM   39  C   UNL     1      -9.944  11.745  65.795  1.00  0.00    -0.238 A  
BRANCH  39  40
HETATM   40  O   UNL     1     -11.238  12.203  65.859  1.00  0.00    -0.312 OA 
HETATM   41  C   UNL     1     -11.964  12.313  64.637  1.00  0.00    -0.366 C  
ENDBRANCH  39  40
ENDBRANCH  23  30
ENDBRANCH  12  15
ENDBRANCH   7   9
ENDBRANCH   2   3
TORSDOF 6
ENDMDL
MODEL      118
REMARK 921   NORMALIZED FREE ENERGY PREDICTED BY IDOCK:    1.58 KCAL/MOL
REMARK 922        TOTAL FREE ENERGY PREDICTED BY IDOCK:    0.90 KCAL/MOL
REMARK 923 INTER-LIGAND FREE ENERGY PREDICTED BY IDOCK:    2.20 KCAL/MOL
REMARK 924 INTRA-LIGAND FREE ENERGY PREDICTED BY IDOCK:   -1.30 KCAL/MOL
REMARK 927      BINDING AFFINITY PREDICTED BY RF-SCORE:    0.00 PKD
ROOT
HETATM    1  C   UNL     1     -11.850  18.625  65.938  1.00  0.00     3.554 C  
HETATM    2  O   UNL     1     -11.152  17.760  65.048  1.00  0.00    -0.717 OA 
ENDROOT
BRANCH   2   3
HETATM    3  C   UNL     1     -11.518  16.438  65.044  1.00  0.00     0.118 A  
HETATM    4  C   UNL     1     -12.309  15.820  64.083  1.00  0.00     0.245 A  
HETATM    5  C   UNL     1     -12.622  14.471  64.224  1.00  0.00    -0.137 A  
HETATM    6  C   UNL     1     -12.139  13.738  65.319  1.00  0.00    -0.425 A  
HETATM    7  C   UNL     1     -11.317  14.315  66.299  1.00  0.00    -0.346 A  
HETATM    8  C   UNL     1     -11.033  15.683  66.127  1.00  0.00    -0.206 A  
BRANCH   7   9
HETATM    9  N   UNL     1     -10.821  13.586  67.362  1.00  0.00    -0.266 NA 
HETATM   10  C   UNL     1     -11.453  12.356  67.867  1.00  0.00    -0.328 C  
HETATM   11  C   UNL     1     -10.469  11.180  67.775  1.00  0.00    -0.193 C  
HETATM   12  N   UNL     1      -9.155  11.439  68.408  1.00  0.00    -0.175 NA 
HETATM   13  C   UNL     1      -8.595  12.803  68.163  1.00  0.00    -0.185 C  
HETATM   14  C   UNL     1      -9.631  13.959  68.141  1.00  0.00    -0.218 C  
BRANCH  12  15
HETATM   15  C   UNL     1      -8.343  10.456  68.982  1.00  0.00    -0.150 C  
HETATM   16  N   UNL     1      -7.507  10.872  69.907  1.00  0.00     0.017 NA 
HETATM   17  C   UNL     1      -6.751   9.964  70.672  1.00  0.00    -0.094 A  
HETATM   18  C   UNL     1      -6.898   8.597  70.521  1.00  0.00    -0.042 A  
HETATM   19  C   UNL     1      -6.239   7.709  71.403  1.00  0.00    -0.035 A  
HETATM   20  C   UNL     1      -7.682   8.059  69.341  1.00  0.00    -0.104 C  
HETATM   21  F   UNL     1      -5.644  11.740  71.820  1.00  0.00     0.064 F  
HETATM   22  C   UNL     1      -5.359   8.176  72.371  1.00  0.00    -0.037 A  
HETATM   23  N   UNL     1      -8.412   9.113  68.557  1.00  0.00    -0.127 NA 
HETATM   24  C   UNL     1      -5.857  10.425  71.657  1.00  0.00     0.321 A  
HETATM   25  C   UNL     1      -5.150   9.542  72.484  1.00  0.00    -0.077 A  
BRANCH  20  26
HETATM   26  C   UNL     1      -6.706   7.209  68.487  1.00  0.00    -0.060 C  
HETATM   27  O   UNL     1      -7.657   5.109  69.273  1.00  0.00    -0.067 OA 
HETATM   28  C   UNL     1      -7.044   5.757  68.268  1.00  0.00    -0.074 C  
HETATM   29  O   UNL     1      -6.684   5.165  67.256  1.00  0.00    -0.052 OA 
ENDBRANCH  20  26
BRANCH  23  30
HETATM   30  C   UNL     1      -8.927   8.643  67.291  1.00  0.00    -0.133 A  
HETATM   31  C   UNL     1      -8.849   8.775  64.833  1.00  0.00    -0.119 A  
HETATM   32  C   UNL     1      -8.330   9.090  66.096  1.00  0.00    -0.124 A  
HETATM   33  C   UNL     1      -8.519   9.621  63.628  1.00  0.00    -0.188 C  
HETATM   34  C   UNL     1      -9.765   7.740  64.729  1.00  0.00     2.375 A  
HETATM   35  F   UNL     1      -7.816  10.743  63.931  1.00  0.00    -0.081 F  
HETATM   36  F   UNL     1      -7.800   8.952  62.688  1.00  0.00    -0.114 F  
HETATM   37  F   UNL     1      -9.653  10.054  63.006  1.00  0.00    -0.313 F  
HETATM   38  C   UNL     1     -10.311   7.188  65.881  1.00  0.00     1.163 A  
HETATM   39  C   UNL     1      -9.996   7.711  67.145  1.00  0.00    -0.229 A  
BRANCH  39  40
HETATM   40  O   UNL     1     -10.642   7.263  68.273  1.00  0.00    -0.202 OA 
HETATM   41  C   UNL     1     -11.076   5.905  68.295  1.00  0.00    -0.043 C  
ENDBRANCH  39  40
ENDBRANCH  23  30
ENDBRANCH  12  15
ENDBRANCH   7   9
ENDBRANCH   2   3
TORSDOF 6
ENDMDL
MODEL      119
REMARK 921   NORMALIZED FREE ENERGY PREDICTED BY IDOCK:    1.68 KCAL/MOL
REMARK 922        TOTAL FREE ENERGY PREDICTED BY IDOCK:    1.03 KCAL/MOL
REMARK 923 INTER-LIGAND FREE ENERGY PREDICTED BY IDOCK:    1.93 KCAL/MOL
REMARK 924 INTRA-LIGAND FREE ENERGY PREDICTED BY IDOCK:   -0.90 KCAL/MOL
REMARK 927      BINDING AFFINITY PREDICTED BY RF-SCORE:    0.00 PKD
ROOT
HETATM    1  C   UNL     1     -12.824   1.537  74.034  1.00  0.00     0.440 C  
HETATM    2  O   UNL     1     -12.358   2.391  72.993  1.00  0.00     0.404 OA 
ENDROOT
BRANCH   2   3
HETATM    3  C   UNL     1     -11.029   2.307  72.663  1.00  0.00     0.119 A  
HETATM    4  C   UNL     1     -10.084   1.519  73.308  1.00  0.00    -0.151 A  
HETATM    5  C   UNL     1      -8.760   1.557  72.877  1.00  0.00    -0.061 A  
HETATM    6  C   UNL     1      -8.384   2.373  71.799  1.00  0.00    -0.068 A  
HETATM    7  C   UNL     1      -9.309   3.165  71.104  1.00  0.00    -0.141 A  
HETATM    8  C   UNL     1     -10.635   3.109  71.576  1.00  0.00     0.796 A  
BRANCH   7   9
HETATM    9  N   UNL     1      -8.943   3.947  70.027  1.00  0.00    -0.090 NA 
HETATM   10  C   UNL     1      -9.813   4.184  68.863  1.00  0.00    -0.022 C  
HETATM   11  C   UNL     1     -10.086   5.687  68.703  1.00  0.00    -0.183 C  
HETATM   12  N   UNL     1      -8.864   6.524  68.673  1.00  0.00    -0.122 NA 
HETATM   13  C   UNL     1      -7.808   6.135  69.656  1.00  0.00    -0.103 C  
HETATM   14  C   UNL     1      -7.637   4.610  69.888  1.00  0.00    -0.054 C  
BRANCH  12  15
HETATM   15  C   UNL     1      -8.751   7.738  67.987  1.00  0.00    -0.125 C  
HETATM   16  N   UNL     1      -7.935   7.739  66.957  1.00  0.00    -0.114 NA 
HETATM   17  C   UNL     1      -7.852   8.845  66.090  1.00  0.00    -0.102 A  
HETATM   18  C   UNL     1      -8.667   9.952  66.254  1.00  0.00    -0.152 A  
HETATM   19  C   UNL     1      -8.669  10.982  65.285  1.00  0.00    -0.099 A  
HETATM   20  C   UNL     1      -9.471  10.101  67.529  1.00  0.00    -0.152 C  
HETATM   21  F   UNL     1      -6.131   7.803  64.807  1.00  0.00    -0.040 F  
HETATM   22  C   UNL     1      -7.795  10.958  64.206  1.00  0.00     0.392 A  
HETATM   23  N   UNL     1      -9.454   8.884  68.412  1.00  0.00    -0.140 NA 
HETATM   24  C   UNL     1      -6.971   8.832  64.992  1.00  0.00    -0.076 A  
HETATM   25  C   UNL     1      -6.925   9.887  64.071  1.00  0.00    -0.125 A  
BRANCH  20  26
HETATM   26  C   UNL     1      -8.982  11.392  68.235  1.00  0.00    -0.175 C  
HETATM   27  O   UNL     1      -6.910  10.347  68.973  1.00  0.00    -0.057 OA 
HETATM   28  C   UNL     1      -7.525  11.483  68.603  1.00  0.00    -0.116 C  
HETATM   29  O   UNL     1      -6.948  12.565  68.662  1.00  0.00    -0.081 OA 
ENDBRANCH  20  26
BRANCH  23  30
HETATM   30  C   UNL     1      -9.985   9.120  69.735  1.00  0.00    -0.193 A  
HETATM   31  C   UNL     1      -9.680   8.908  72.170  1.00  0.00    -0.232 A  
HETATM   32  C   UNL     1      -9.191   8.821  70.859  1.00  0.00    -0.261 A  
HETATM   33  C   UNL     1      -9.020   8.148  73.294  1.00  0.00    -0.261 C  
HETATM   34  C   UNL     1     -10.853   9.611  72.398  1.00  0.00     1.634 A  
HETATM   35  F   UNL     1      -8.039   7.306  72.875  1.00  0.00    -0.104 F  
HETATM   36  F   UNL     1      -8.462   8.961  74.231  1.00  0.00    -0.073 F  
HETATM   37  F   UNL     1      -9.920   7.365  73.954  1.00  0.00    -0.308 F  
HETATM   38  C   UNL     1     -11.626  10.023  71.320  1.00  0.00    -0.430 A  
HETATM   39  C   UNL     1     -11.270   9.677  70.007  1.00  0.00    -0.231 A  
BRANCH  39  40
HETATM   40  O   UNL     1     -12.106   9.958  68.953  1.00  0.00     0.328 OA 
HETATM   41  C   UNL     1     -13.365  10.558  69.246  1.00  0.00     2.457 C  
ENDBRANCH  39  40
ENDBRANCH  23  30
ENDBRANCH  12  15
ENDBRANCH   7   9
ENDBRANCH   2   3
TORSDOF 6
ENDMDL
MODEL      120
REMARK 921   NORMALIZED FREE ENERGY PREDICTED BY IDOCK:    1.89 KCAL/MOL
REMARK 922        TOTAL FREE ENERGY PREDICTED BY IDOCK:    1.32 KCAL/MOL
REMARK 923 INTER-LIGAND FREE ENERGY PREDICTED BY IDOCK:    0.58 KCAL/MOL
REMARK 924 INTRA-LIGAND FREE ENERGY PREDICTED BY IDOCK:    0.74 KCAL/MOL
REMARK 927      BINDING AFFINITY PREDICTED BY RF-SCORE:    0.00 PKD
ROOT
HETATM    1  C   UNL     1      -7.559   5.993  69.204  1.00  0.00    -0.090 C  
HETATM    2  O   UNL     1      -8.898   5.679  68.831  1.00  0.00    -0.109 OA 
ENDROOT
BRANCH   2   3
HETATM    3  C   UNL     1      -9.890   6.496  69.311  1.00  0.00    -0.148 A  
HETATM    4  C   UNL     1     -11.170   6.090  69.667  1.00  0.00    -0.428 A  
HETATM    5  C   UNL     1     -12.084   7.040  70.115  1.00  0.00    -0.054 A  
HETATM    6  C   UNL     1     -11.717   8.391  70.217  1.00  0.00     0.108 A  
HETATM    7  C   UNL     1     -10.429   8.841  69.892  1.00  0.00    -0.221 A  
HETATM    8  C   UNL     1      -9.537   7.853  69.432  1.00  0.00    -0.160 A  
BRANCH   7   9
HETATM    9  N   UNL     1     -10.061  10.166  70.017  1.00  0.00    -0.233 NA 
HETATM   10  C   UNL     1      -8.661  10.622  70.023  1.00  0.00     0.685 C  
HETATM   11  C   UNL     1      -8.421  11.605  68.868  1.00  0.00     0.058 C  
HETATM   12  N   UNL     1      -9.381  12.733  68.823  1.00  0.00     0.051 NA 
HETATM   13  C   UNL     1     -10.801  12.364  69.105  1.00  0.00    -0.097 C  
HETATM   14  C   UNL     1     -11.008  11.277  70.194  1.00  0.00     0.197 C  
BRANCH  12  15
HETATM   15  C   UNL     1      -9.088  14.005  68.320  1.00  0.00    -0.191 C  
HETATM   16  N   UNL     1      -7.843  14.200  67.948  1.00  0.00    -0.138 NA 
HETATM   17  C   UNL     1      -7.455  15.377  67.280  1.00  0.00    -0.207 A  
HETATM   18  C   UNL     1      -8.379  16.350  66.939  1.00  0.00    -0.263 A  
HETATM   19  C   UNL     1      -7.989  17.450  66.139  1.00  0.00    -0.275 A  
HETATM   20  C   UNL     1      -9.777  16.284  67.518  1.00  0.00    -0.234 C  
HETATM   21  F   UNL     1      -5.173  14.682  67.227  1.00  0.00     0.071 F  
HETATM   22  C   UNL     1      -6.666  17.633  65.760  1.00  0.00    -0.164 A  
HETATM   23  N   UNL     1     -10.076  15.010  68.257  1.00  0.00    -0.219 NA 
HETATM   24  C   UNL     1      -6.117  15.573  66.889  1.00  0.00     0.747 A  
HETATM   25  C   UNL     1      -5.720  16.700  66.156  1.00  0.00     0.904 A  
BRANCH  20  26
HETATM   26  C   UNL     1      -9.986  17.563  68.369  1.00  0.00    -0.335 C  
HETATM   27  O   UNL     1     -10.496  18.924  66.415  1.00  0.00    -0.404 OA 
HETATM   28  C   UNL     1     -10.699  18.726  67.729  1.00  0.00    -0.343 C  
HETATM   29  O   UNL     1     -11.354  19.518  68.397  1.00  0.00     0.770 OA 
ENDBRANCH  20  26
BRANCH  23  30
HETATM   30  C   UNL     1     -11.295  15.060  69.032  1.00  0.00    -0.290 A  
HETATM   31  C   UNL     1     -12.346  15.289  71.247  1.00  0.00    -0.424 A  
HETATM   32  C   UNL     1     -11.223  15.342  70.410  1.00  0.00    -0.325 A  
HETATM   33  C   UNL     1     -12.192  15.111  72.737  1.00  0.00    -0.382 C  
HETATM   34  C   UNL     1     -13.607  15.283  70.671  1.00  0.00    -0.187 A  
HETATM   35  F   UNL     1     -10.910  14.879  73.125  1.00  0.00     0.013 F  
HETATM   36  F   UNL     1     -12.626  16.186  73.449  1.00  0.00    -0.468 F  
HETATM   37  F   UNL     1     -12.910  14.042  73.184  1.00  0.00    -0.513 F  
HETATM   38  C   UNL     1     -13.733  15.112  69.299  1.00  0.00     3.153 A  
HETATM   39  C   UNL     1     -12.605  14.877  68.498  1.00  0.00     0.487 A  
BRANCH  39  40
HETATM   40  O   UNL     1     -12.738  14.565  67.166  1.00  0.00     0.169 OA 
HETATM   41  C   UNL     1     -12.493  13.217  66.772  1.00  0.00     0.074 C  
ENDBRANCH  39  40
ENDBRANCH  23  30
ENDBRANCH  12  15
ENDBRANCH   7   9
ENDBRANCH   2   3
TORSDOF 6
ENDMDL
MODEL      121
REMARK 921   NORMALIZED FREE ENERGY PREDICTED BY IDOCK:    2.93 KCAL/MOL
REMARK 922        TOTAL FREE ENERGY PREDICTED BY IDOCK:    2.72 KCAL/MOL
REMARK 923 INTER-LIGAND FREE ENERGY PREDICTED BY IDOCK:    1.28 KCAL/MOL
REMARK 924 INTRA-LIGAND FREE ENERGY PREDICTED BY IDOCK:    1.45 KCAL/MOL
REMARK 927      BINDING AFFINITY PREDICTED BY RF-SCORE:    0.00 PKD
ROOT
HETATM    1  C   UNL     1     -11.770  16.641  65.932  1.00  0.00     1.454 C  
HETATM    2  O   UNL     1     -10.830  15.819  65.247  1.00  0.00    -0.378 OA 
ENDROOT
BRANCH   2   3
HETATM    3  C   UNL     1     -11.315  14.690  64.637  1.00  0.00    -0.369 A  
HETATM    4  C   UNL     1     -12.229  14.664  63.592  1.00  0.00     0.307 A  
HETATM    5  C   UNL     1     -12.653  13.436  63.089  1.00  0.00     0.175 A  
HETATM    6  C   UNL     1     -12.156  12.237  63.623  1.00  0.00    -0.648 A  
HETATM    7  C   UNL     1     -11.214  12.217  64.662  1.00  0.00    -0.323 A  
HETATM    8  C   UNL     1     -10.819  13.477  65.151  1.00  0.00    -0.336 A  
BRANCH   7   9
HETATM    9  N   UNL     1     -10.706  11.037  65.169  1.00  0.00    -0.230 NA 
HETATM   10  C   UNL     1      -9.268  10.791  65.364  1.00  0.00    -0.205 C  
HETATM   11  C   UNL     1      -8.979  10.494  66.843  1.00  0.00    -0.140 C  
HETATM   12  N   UNL     1      -9.819   9.418  67.421  1.00  0.00    -0.162 NA 
HETATM   13  C   UNL     1     -11.256   9.452  67.012  1.00  0.00     0.660 C  
HETATM   14  C   UNL     1     -11.526   9.874  65.543  1.00  0.00     3.073 C  
BRANCH  12  15
HETATM   15  C   UNL     1      -9.419   8.570  68.458  1.00  0.00    -0.142 C  
HETATM   16  N   UNL     1      -9.616   9.023  69.676  1.00  0.00    -0.167 NA 
HETATM   17  C   UNL     1      -9.406   8.207  70.804  1.00  0.00    -0.158 A  
HETATM   18  C   UNL     1      -9.038   6.879  70.674  1.00  0.00    -0.155 A  
HETATM   19  C   UNL     1      -8.980   6.044  71.814  1.00  0.00    -0.138 A  
HETATM   20  C   UNL     1      -8.597   6.358  69.321  1.00  0.00    -0.125 C  
HETATM   21  F   UNL     1      -9.937   9.998  72.290  1.00  0.00     1.377 F  
HETATM   22  C   UNL     1      -9.192   6.549  73.090  1.00  0.00    -0.138 A  
HETATM   23  N   UNL     1      -8.814   7.324  68.191  1.00  0.00    -0.127 NA 
HETATM   24  C   UNL     1      -9.619   8.708  72.102  1.00  0.00    -0.307 A  
HETATM   25  C   UNL     1      -9.492   7.895  73.237  1.00  0.00    -0.350 A  
BRANCH  20  26
HETATM   26  C   UNL     1      -7.126   5.887  69.466  1.00  0.00    -0.065 C  
HETATM   27  O   UNL     1      -6.295   8.164  69.707  1.00  0.00    -0.035 OA 
HETATM   28  C   UNL     1      -6.125   6.867  70.019  1.00  0.00    -0.024 C  
HETATM   29  O   UNL     1      -5.138   6.488  70.641  1.00  0.00    -0.014 OA 
ENDBRANCH  20  26
BRANCH  23  30
HETATM   30  C   UNL     1      -8.150   6.942  66.965  1.00  0.00    -0.117 A  
HETATM   31  C   UNL     1      -6.984   7.659  64.917  1.00  0.00    -0.055 A  
HETATM   32  C   UNL     1      -7.540   7.935  66.174  1.00  0.00    -0.083 A  
HETATM   33  C   UNL     1      -6.785   8.756  63.902  1.00  0.00    -0.087 C  
HETATM   34  C   UNL     1      -6.729   6.339  64.577  1.00  0.00    -0.042 A  
HETATM   35  F   UNL     1      -7.312   9.949  64.283  1.00  0.00    -0.113 F  
HETATM   36  F   UNL     1      -5.475   8.984  63.614  1.00  0.00    -0.060 F  
HETATM   37  F   UNL     1      -7.388   8.448  62.718  1.00  0.00    -0.092 F  
HETATM   38  C   UNL     1      -7.220   5.317  65.379  1.00  0.00    -0.068 A  
HETATM   39  C   UNL     1      -8.028   5.602  66.491  1.00  0.00    -0.101 A  
BRANCH  39  40
HETATM   40  O   UNL     1      -8.632   4.592  67.201  1.00  0.00    -0.105 OA 
HETATM   41  C   UNL     1      -8.507   3.263  66.702  1.00  0.00    -0.107 C  
ENDBRANCH  39  40
ENDBRANCH  23  30
ENDBRANCH  12  15
ENDBRANCH   7   9
ENDBRANCH   2   3
TORSDOF 6
ENDMDL
MODEL      122
REMARK 921   NORMALIZED FREE ENERGY PREDICTED BY IDOCK:    4.05 KCAL/MOL
REMARK 922        TOTAL FREE ENERGY PREDICTED BY IDOCK:    4.24 KCAL/MOL
REMARK 923 INTER-LIGAND FREE ENERGY PREDICTED BY IDOCK:    4.65 KCAL/MOL
REMARK 924 INTRA-LIGAND FREE ENERGY PREDICTED BY IDOCK:   -0.41 KCAL/MOL
REMARK 927      BINDING AFFINITY PREDICTED BY RF-SCORE:    0.00 PKD
ROOT
HETATM    1  C   UNL     1     -14.186   5.643  71.690  1.00  0.00     2.542 C  
HETATM    2  O   UNL     1     -12.935   5.457  71.034  1.00  0.00     3.259 OA 
ENDROOT
BRANCH   2   3
HETATM    3  C   UNL     1     -11.870   6.186  71.498  1.00  0.00    -0.139 A  
HETATM    4  C   UNL     1     -10.984   5.782  72.489  1.00  0.00    -0.309 A  
HETATM    5  C   UNL     1      -9.961   6.643  72.878  1.00  0.00    -0.187 A  
HETATM    6  C   UNL     1      -9.819   7.901  72.273  1.00  0.00    -0.276 A  
HETATM    7  C   UNL     1     -10.675   8.339  71.252  1.00  0.00    -0.227 A  
HETATM    8  C   UNL     1     -11.703   7.446  70.895  1.00  0.00    -0.325 A  
BRANCH   7   9
HETATM    9  N   UNL     1     -10.519   9.566  70.639  1.00  0.00    -0.286 NA 
HETATM   10  C   UNL     1      -9.320   9.942  69.871  1.00  0.00    -0.216 C  
HETATM   11  C   UNL     1      -9.704  10.284  68.424  1.00  0.00    -0.156 C  
HETATM   12  N   UNL     1     -10.786  11.290  68.307  1.00  0.00    -0.190 NA 
HETATM   13  C   UNL     1     -11.910  11.123  69.278  1.00  0.00    -0.352 C  
HETATM   14  C   UNL     1     -11.502  10.658  70.702  1.00  0.00    -0.281 C  
BRANCH  12  15
HETATM   15  C   UNL     1     -10.926  12.185  67.241  1.00  0.00    -0.260 C  
HETATM   16  N   UNL     1     -11.048  11.642  66.051  1.00  0.00    -0.295 NA 
HETATM   17  C   UNL     1     -11.354  12.422  64.919  1.00  0.00    -0.317 A  
HETATM   18  C   UNL     1     -11.592  13.781  65.024  1.00  0.00    -0.350 A  
HETATM   19  C   UNL     1     -12.043  14.511  63.899  1.00  0.00    -0.135 A  
HETATM   20  C   UNL     1     -11.266  14.497  66.319  1.00  0.00    -0.342 C  
HETATM   21  F   UNL     1     -11.219  10.521  63.482  1.00  0.00     0.227 F  
HETATM   22  C   UNL     1     -12.162  13.913  62.652  1.00  0.00     1.934 A  
HETATM   23  N   UNL     1     -10.901  13.579  67.452  1.00  0.00    -0.266 NA 
HETATM   24  C   UNL     1     -11.479  11.827  63.649  1.00  0.00    -0.431 A  
HETATM   25  C   UNL     1     -11.857  12.567  62.521  1.00  0.00     1.738 A  
BRANCH  20  26
HETATM   26  C   UNL     1     -10.180  15.557  65.999  1.00  0.00    -0.349 C  
HETATM   27  O   UNL     1     -11.817  17.348  65.800  1.00  0.00     1.801 OA 
HETATM   28  C   UNL     1     -10.557  17.010  66.122  1.00  0.00    -0.194 C  
HETATM   29  O   UNL     1      -9.723  17.863  66.407  1.00  0.00    -0.310 OA 
ENDBRANCH  20  26
BRANCH  23  30
HETATM   30  C   UNL     1     -10.331  14.262  68.591  1.00  0.00    -0.246 A  
HETATM   31  C   UNL     1     -10.684  15.242  70.823  1.00  0.00    -0.174 A  
HETATM   32  C   UNL     1     -11.128  14.484  69.731  1.00  0.00    -0.239 A  
HETATM   33  C   UNL     1     -11.667  15.867  71.781  1.00  0.00    -0.491 C  
HETATM   34  C   UNL     1      -9.328  15.507  70.943  1.00  0.00     1.942 A  
HETATM   35  F   UNL     1     -12.962  15.732  71.393  1.00  0.00    -0.452 F  
HETATM   36  F   UNL     1     -11.582  15.358  73.039  1.00  0.00    -0.512 F  
HETATM   37  F   UNL     1     -11.456  17.210  71.897  1.00  0.00    -0.243 F  
HETATM   38  C   UNL     1      -8.476  15.212  69.886  1.00  0.00     0.198 A  
HETATM   39  C   UNL     1      -8.980  14.712  68.675  1.00  0.00    -0.184 A  
BRANCH  39  40
HETATM   40  O   UNL     1      -8.161  14.555  67.582  1.00  0.00    -0.151 OA 
HETATM   41  C   UNL     1      -7.793  13.229  67.213  1.00  0.00    -0.108 C  
ENDBRANCH  39  40
ENDBRANCH  23  30
ENDBRANCH  12  15
ENDBRANCH   7   9
ENDBRANCH   2   3
TORSDOF 6
ENDMDL
MODEL      123
REMARK 921   NORMALIZED FREE ENERGY PREDICTED BY IDOCK:    5.03 KCAL/MOL
REMARK 922        TOTAL FREE ENERGY PREDICTED BY IDOCK:    5.55 KCAL/MOL
REMARK 923 INTER-LIGAND FREE ENERGY PREDICTED BY IDOCK:   -3.96 KCAL/MOL
REMARK 924 INTRA-LIGAND FREE ENERGY PREDICTED BY IDOCK:    9.51 KCAL/MOL
REMARK 927      BINDING AFFINITY PREDICTED BY RF-SCORE:    0.00 PKD
ROOT
HETATM    1  C   UNL     1      -6.369   1.690  67.923  1.00  0.00    -0.025 C  
HETATM    2  O   UNL     1      -7.234   2.817  67.828  1.00  0.00    -0.052 OA 
ENDROOT
BRANCH   2   3
HETATM    3  C   UNL     1      -6.745   3.931  67.193  1.00  0.00    -0.047 A  
HETATM    4  C   UNL     1      -5.519   4.019  66.544  1.00  0.00    -0.013 A  
HETATM    5  C   UNL     1      -5.142   5.228  65.966  1.00  0.00    -0.005 A  
HETATM    6  C   UNL     1      -5.991   6.343  66.027  1.00  0.00    -0.025 A  
HETATM    7  C   UNL     1      -7.246   6.293  66.650  1.00  0.00    -0.074 A  
HETATM    8  C   UNL     1      -7.587   5.057  67.233  1.00  0.00    -0.091 A  
BRANCH   7   9
HETATM    9  N   UNL     1      -8.091   7.384  66.688  1.00  0.00    -0.120 NA 
HETATM   10  C   UNL     1      -8.876   7.762  67.875  1.00  0.00    -0.123 C  
HETATM   11  C   UNL     1      -8.500   9.180  68.327  1.00  0.00    -0.125 C  
HETATM   12  N   UNL     1      -8.577  10.199  67.254  1.00  0.00    -0.125 NA 
HETATM   13  C   UNL     1      -8.051   9.757  65.926  1.00  0.00    -0.114 C  
HETATM   14  C   UNL     1      -8.342   8.279  65.548  1.00  0.00    -0.155 C  
BRANCH  12  15
HETATM   15  C   UNL     1      -8.869  11.550  67.462  1.00  0.00    -0.155 C  
HETATM   16  N   UNL     1      -9.525  12.150  66.494  1.00  0.00    -0.226 NA 
HETATM   17  C   UNL     1     -10.018  13.459  66.645  1.00  0.00    -0.277 A  
HETATM   18  C   UNL     1      -9.881  14.148  67.838  1.00  0.00    -0.224 A  
HETATM   19  C   UNL     1     -10.514  15.401  68.012  1.00  0.00    -0.257 A  
HETATM   20  C   UNL     1      -8.962  13.600  68.911  1.00  0.00     0.195 C  
HETATM   21  F   UNL     1     -10.846  13.485  64.407  1.00  0.00    -0.352 F  
HETATM   22  C   UNL     1     -11.201  16.012  66.971  1.00  0.00     0.033 A  
HETATM   23  N   UNL     1      -8.448  12.216  68.631  1.00  0.00    -0.067 NA 
HETATM   24  C   UNL     1     -10.717  14.090  65.598  1.00  0.00    -0.303 A  
HETATM   25  C   UNL     1     -11.284  15.362  65.750  1.00  0.00    -0.196 A  
BRANCH  20  26
HETATM   26  C   UNL     1      -7.842  14.649  69.139  1.00  0.00    -0.107 C  
HETATM   27  O   UNL     1      -7.403  14.873  66.754  1.00  0.00     0.035 OA 
HETATM   28  C   UNL     1      -7.398  15.471  67.958  1.00  0.00    -0.129 C  
HETATM   29  O   UNL     1      -6.954  16.606  68.102  1.00  0.00    -0.145 OA 
ENDBRANCH  20  26
BRANCH  23  30
HETATM   30  C   UNL     1      -7.370  11.810  69.505  1.00  0.00     0.238 A  
HETATM   31  C   UNL     1      -6.369  10.037  70.891  1.00  0.00    -0.030 A  
HETATM   32  C   UNL     1      -7.311  10.475  69.949  1.00  0.00    -0.116 A  
HETATM   33  C   UNL     1      -6.609   8.787  71.700  1.00  0.00    -0.075 C  
HETATM   34  C   UNL     1      -5.266  10.835  71.151  1.00  0.00    -0.096 A  
HETATM   35  F   UNL     1      -7.844   8.251  71.516  1.00  0.00    -0.082 F  
HETATM   36  F   UNL     1      -5.712   7.800  71.434  1.00  0.00    -0.034 F  
HETATM   37  F   UNL     1      -6.513   9.040  73.037  1.00  0.00    -0.077 F  
HETATM   38  C   UNL     1      -5.224  12.130  70.650  1.00  0.00    -0.138 A  
HETATM   39  C   UNL     1      -6.313  12.662  69.941  1.00  0.00    -0.031 A  
BRANCH  39  40
HETATM   40  O   UNL     1      -6.333  13.985  69.569  1.00  0.00    -0.109 OA 
HETATM   41  C   UNL     1      -5.614  14.913  70.378  1.00  0.00    -0.139 C  
ENDBRANCH  39  40
ENDBRANCH  23  30
ENDBRANCH  12  15
ENDBRANCH   7   9
ENDBRANCH   2   3
TORSDOF 6
ENDMDL
MODEL      124
REMARK 921   NORMALIZED FREE ENERGY PREDICTED BY IDOCK:    5.15 KCAL/MOL
REMARK 922        TOTAL FREE ENERGY PREDICTED BY IDOCK:    5.72 KCAL/MOL
REMARK 923 INTER-LIGAND FREE ENERGY PREDICTED BY IDOCK:    6.08 KCAL/MOL
REMARK 924 INTRA-LIGAND FREE ENERGY PREDICTED BY IDOCK:   -0.36 KCAL/MOL
REMARK 927      BINDING AFFINITY PREDICTED BY RF-SCORE:    0.00 PKD
ROOT
HETATM    1  C   UNL     1     -11.706   3.237  71.421  1.00  0.00     5.350 C  
HETATM    2  O   UNL     1     -12.177   4.050  72.492  1.00  0.00     1.141 OA 
ENDROOT
BRANCH   2   3
HETATM    3  C   UNL     1     -11.520   5.233  72.716  1.00  0.00    -0.247 A  
HETATM    4  C   UNL     1     -11.754   6.100  73.776  1.00  0.00     1.573 A  
HETATM    5  C   UNL     1     -11.026   7.283  73.861  1.00  0.00     0.507 A  
HETATM    6  C   UNL     1     -10.058   7.595  72.894  1.00  0.00    -0.343 A  
HETATM    7  C   UNL     1      -9.771   6.738  71.821  1.00  0.00    -0.160 A  
HETATM    8  C   UNL     1     -10.537   5.558  71.764  1.00  0.00    -0.296 A  
BRANCH   7   9
HETATM    9  N   UNL     1      -8.801   7.034  70.884  1.00  0.00    -0.147 NA 
HETATM   10  C   UNL     1      -7.737   6.094  70.494  1.00  0.00    -0.101 C  
HETATM   11  C   UNL     1      -7.816   5.802  68.988  1.00  0.00    -0.094 C  
HETATM   12  N   UNL     1      -7.837   7.014  68.137  1.00  0.00    -0.116 NA 
HETATM   13  C   UNL     1      -8.689   8.130  68.649  1.00  0.00    -0.134 C  
HETATM   14  C   UNL     1      -8.685   8.325  70.189  1.00  0.00    -0.133 C  
BRANCH  12  15
HETATM   15  C   UNL     1      -7.331   7.078  66.834  1.00  0.00    -0.078 C  
HETATM   16  N   UNL     1      -6.718   5.997  66.405  1.00  0.00    -0.058 NA 
HETATM   17  C   UNL     1      -6.305   5.874  65.065  1.00  0.00    -0.037 A  
HETATM   18  C   UNL     1      -6.577   6.860  64.133  1.00  0.00    -0.042 A  
HETATM   19  C   UNL     1      -6.284   6.645  62.766  1.00  0.00    -0.035 A  
HETATM   20  C   UNL     1      -7.089   8.207  64.603  1.00  0.00    -0.080 C  
HETATM   21  F   UNL     1      -5.322   3.740  65.488  1.00  0.00    -0.008 F  
HETATM   22  C   UNL     1      -5.634   5.495  62.340  1.00  0.00    -0.014 A  
HETATM   23  N   UNL     1      -7.454   8.250  66.060  1.00  0.00    -0.076 NA 
HETATM   24  C   UNL     1      -5.647   4.711  64.621  1.00  0.00    -0.014 A  
HETATM   25  C   UNL     1      -5.294   4.531  63.276  1.00  0.00    -0.009 A  
BRANCH  20  26
HETATM   26  C   UNL     1      -6.038   9.270  64.190  1.00  0.00    -0.077 C  
HETATM   27  O   UNL     1      -7.667  10.559  62.919  1.00  0.00    -0.147 OA 
HETATM   28  C   UNL     1      -6.541  10.584  63.652  1.00  0.00     0.058 C  
HETATM   29  O   UNL     1      -5.897  11.618  63.792  1.00  0.00     1.265 OA 
ENDBRANCH  20  26
BRANCH  23  30
HETATM   30  C   UNL     1      -7.677   9.587  66.563  1.00  0.00    -0.097 A  
HETATM   31  C   UNL     1      -6.863  11.454  67.947  1.00  0.00    -0.072 A  
HETATM   32  C   UNL     1      -6.672  10.212  67.326  1.00  0.00    -0.073 A  
HETATM   33  C   UNL     1      -6.009  11.873  69.118  1.00  0.00    -0.072 C  
HETATM   34  C   UNL     1      -7.929  12.244  67.544  1.00  0.00    -0.166 A  
HETATM   35  F   UNL     1      -5.177  10.894  69.559  1.00  0.00    -0.039 F  
HETATM   36  F   UNL     1      -5.229  12.954  68.847  1.00  0.00    -0.065 F  
HETATM   37  F   UNL     1      -6.777  12.215  70.191  1.00  0.00    -0.048 F  
HETATM   38  C   UNL     1      -8.899  11.710  66.705  1.00  0.00    -0.187 A  
HETATM   39  C   UNL     1      -8.849  10.362  66.316  1.00  0.00    -0.152 A  
BRANCH  39  40
HETATM   40  O   UNL     1      -9.880   9.794  65.606  1.00  0.00    -0.277 OA 
HETATM   41  C   UNL     1     -10.612  10.632  64.715  1.00  0.00    -0.114 C  
ENDBRANCH  39  40
ENDBRANCH  23  30
ENDBRANCH  12  15
ENDBRANCH   7   9
ENDBRANCH   2   3
TORSDOF 6
ENDMDL
MODEL      125
REMARK 921   NORMALIZED FREE ENERGY PREDICTED BY IDOCK:    5.82 KCAL/MOL
REMARK 922        TOTAL FREE ENERGY PREDICTED BY IDOCK:    6.63 KCAL/MOL
REMARK 923 INTER-LIGAND FREE ENERGY PREDICTED BY IDOCK:    1.52 KCAL/MOL
REMARK 924 INTRA-LIGAND FREE ENERGY PREDICTED BY IDOCK:    5.10 KCAL/MOL
REMARK 927      BINDING AFFINITY PREDICTED BY RF-SCORE:    0.00 PKD
ROOT
HETATM    1  C   UNL     1     -11.907  16.440  66.161  1.00  0.00     1.504 C  
HETATM    2  O   UNL     1     -10.999  15.603  65.451  1.00  0.00    -0.350 OA 
ENDROOT
BRANCH   2   3
HETATM    3  C   UNL     1     -11.508  14.459  64.892  1.00  0.00    -0.386 A  
HETATM    4  C   UNL     1     -12.456  14.407  63.877  1.00  0.00    -0.004 A  
HETATM    5  C   UNL     1     -12.901  13.167  63.426  1.00  0.00     0.254 A  
HETATM    6  C   UNL     1     -12.395  11.982  63.982  1.00  0.00    -0.504 A  
HETATM    7  C   UNL     1     -11.420  11.987  64.991  1.00  0.00    -0.286 A  
HETATM    8  C   UNL     1     -11.004  13.260  65.427  1.00  0.00    -0.299 A  
BRANCH   7   9
HETATM    9  N   UNL     1     -10.904  10.821  65.519  1.00  0.00    -0.069 NA 
HETATM   10  C   UNL     1      -9.462  10.568  65.670  1.00  0.00    -0.210 C  
HETATM   11  C   UNL     1      -9.121  10.318  67.146  1.00  0.00    -0.142 C  
HETATM   12  N   UNL     1      -9.947   9.270  67.790  1.00  0.00    -0.179 NA 
HETATM   13  C   UNL     1     -11.398   9.303  67.433  1.00  0.00     0.894 C  
HETATM   14  C   UNL     1     -11.718   9.678  65.961  1.00  0.00     4.240 C  
BRANCH  12  15
HETATM   15  C   UNL     1      -9.516   8.453  68.840  1.00  0.00    -0.147 C  
HETATM   16  N   UNL     1     -10.407   7.609  69.311  1.00  0.00    -0.214 NA 
HETATM   17  C   UNL     1     -10.055   6.626  70.256  1.00  0.00    -0.179 A  
HETATM   18  C   UNL     1      -8.748   6.473  70.684  1.00  0.00    -0.144 A  
HETATM   19  C   UNL     1      -8.397   5.385  71.517  1.00  0.00    -0.122 A  
HETATM   20  C   UNL     1      -7.724   7.536  70.343  1.00  0.00    -0.091 C  
HETATM   21  F   UNL     1     -12.310   5.858  70.404  1.00  0.00     0.223 F  
HETATM   22  C   UNL     1      -9.359   4.508  72.002  1.00  0.00    -0.184 A  
HETATM   23  N   UNL     1      -8.213   8.568  69.367  1.00  0.00    -0.112 NA 
HETATM   24  C   UNL     1     -11.021   5.731  70.754  1.00  0.00    -0.242 A  
HETATM   25  C   UNL     1     -10.682   4.695  71.636  1.00  0.00     0.051 A  
BRANCH  20  26
HETATM   26  C   UNL     1      -7.214   8.132  71.680  1.00  0.00    -0.083 C  
HETATM   27  O   UNL     1      -9.468   8.360  72.575  1.00  0.00    -0.267 OA 
HETATM   28  C   UNL     1      -8.167   8.159  72.847  1.00  0.00    -0.175 C  
HETATM   29  O   UNL     1      -7.761   8.102  74.003  1.00  0.00    -0.175 OA 
ENDBRANCH  20  26
BRANCH  23  30
HETATM   30  C   UNL     1      -7.344   9.719  69.254  1.00  0.00    -0.082 A  
HETATM   31  C   UNL     1      -7.142  12.152  68.933  1.00  0.00    -0.098 A  
HETATM   32  C   UNL     1      -7.913  11.004  69.164  1.00  0.00    -0.081 A  
HETATM   33  C   UNL     1      -7.768  13.402  68.367  1.00  0.00    -0.138 C  
HETATM   34  C   UNL     1      -5.770  12.082  69.121  1.00  0.00    -0.064 A  
HETATM   35  F   UNL     1      -9.066  13.239  67.998  1.00  0.00    -0.172 F  
HETATM   36  F   UNL     1      -7.738  14.451  69.233  1.00  0.00    -0.135 F  
HETATM   37  F   UNL     1      -7.115  13.816  67.244  1.00  0.00    -0.181 F  
HETATM   38  C   UNL     1      -5.167  10.847  69.318  1.00  0.00    -0.041 A  
HETATM   39  C   UNL     1      -5.919   9.663  69.262  1.00  0.00    -0.034 A  
BRANCH  39  40
HETATM   40  O   UNL     1      -5.305   8.435  69.313  1.00  0.00    -0.030 OA 
HETATM   41  C   UNL     1      -5.848   7.387  68.513  1.00  0.00    -0.023 C  
ENDBRANCH  39  40
ENDBRANCH  23  30
ENDBRANCH  12  15
ENDBRANCH   7   9
ENDBRANCH   2   3
TORSDOF 6
ENDMDL
MODEL      126
REMARK 921   NORMALIZED FREE ENERGY PREDICTED BY IDOCK:    6.53 KCAL/MOL
REMARK 922        TOTAL FREE ENERGY PREDICTED BY IDOCK:    7.58 KCAL/MOL
REMARK 923 INTER-LIGAND FREE ENERGY PREDICTED BY IDOCK:    8.90 KCAL/MOL
REMARK 924 INTRA-LIGAND FREE ENERGY PREDICTED BY IDOCK:   -1.33 KCAL/MOL
REMARK 927      BINDING AFFINITY PREDICTED BY RF-SCORE:    0.00 PKD
ROOT
HETATM    1  C   UNL     1     -10.936  18.795  67.909  1.00  0.00    -0.054 C  
HETATM    2  O   UNL     1     -12.224  18.214  67.729  1.00  0.00     2.334 OA 
ENDROOT
BRANCH   2   3
HETATM    3  C   UNL     1     -12.498  17.069  68.434  1.00  0.00     2.821 A  
HETATM    4  C   UNL     1     -13.627  16.850  69.213  1.00  0.00     7.252 A  
HETATM    5  C   UNL     1     -13.758  15.644  69.895  1.00  0.00     1.642 A  
HETATM    6  C   UNL     1     -12.767  14.655  69.793  1.00  0.00    -0.053 A  
HETATM    7  C   UNL     1     -11.623  14.824  68.999  1.00  0.00    -0.297 A  
HETATM    8  C   UNL     1     -11.522  16.061  68.334  1.00  0.00    -0.331 A  
BRANCH   7   9
HETATM    9  N   UNL     1     -10.662  13.841  68.878  1.00  0.00    -0.246 NA 
HETATM   10  C   UNL     1     -10.861  12.453  69.328  1.00  0.00    -0.019 C  
HETATM   11  C   UNL     1     -10.701  11.486  68.146  1.00  0.00    -0.205 C  
HETATM   12  N   UNL     1      -9.439  11.658  67.389  1.00  0.00    -0.166 NA 
HETATM   13  C   UNL     1      -9.033  13.076  67.154  1.00  0.00    -0.223 C  
HETATM   14  C   UNL     1      -9.317  14.058  68.322  1.00  0.00    -0.208 C  
BRANCH  12  15
HETATM   15  C   UNL     1      -8.776  10.631  66.709  1.00  0.00    -0.130 C  
HETATM   16  N   UNL     1      -8.886  10.646  65.400  1.00  0.00    -0.185 NA 
HETATM   17  C   UNL     1      -8.140   9.768  64.592  1.00  0.00    -0.148 A  
HETATM   18  C   UNL     1      -7.220   8.891  65.140  1.00  0.00    -0.087 A  
HETATM   19  C   UNL     1      -6.378   8.127  64.297  1.00  0.00    -0.065 A  
HETATM   20  C   UNL     1      -7.196   8.679  66.640  1.00  0.00    -0.081 C  
HETATM   21  F   UNL     1      -9.177  10.595  62.608  1.00  0.00    -0.201 F  
HETATM   22  C   UNL     1      -6.517   8.162  62.916  1.00  0.00    -0.086 A  
HETATM   23  N   UNL     1      -8.065   9.633  67.409  1.00  0.00    -0.110 NA 
HETATM   24  C   UNL     1      -8.271   9.794  63.190  1.00  0.00    -0.153 A  
HETATM   25  C   UNL     1      -7.485   8.984  62.360  1.00  0.00    -0.101 A  
BRANCH  20  26
HETATM   26  C   UNL     1      -7.525   7.186  66.900  1.00  0.00    -0.100 C  
HETATM   27  O   UNL     1      -5.175   6.547  66.920  1.00  0.00    -0.011 OA 
HETATM   28  C   UNL     1      -6.411   6.293  67.382  1.00  0.00    -0.046 C  
HETATM   29  O   UNL     1      -6.638   5.314  68.085  1.00  0.00    -0.046 OA 
ENDBRANCH  20  26
BRANCH  23  30
HETATM   30  C   UNL     1      -8.254   9.260  68.792  1.00  0.00    -0.112 A  
HETATM   31  C   UNL     1      -9.762   8.361  70.520  1.00  0.00    -0.192 A  
HETATM   32  C   UNL     1      -9.458   8.640  69.180  1.00  0.00    -0.157 A  
HETATM   33  C   UNL     1     -11.190   8.161  70.963  1.00  0.00    -0.258 C  
HETATM   34  C   UNL     1      -8.738   8.387  71.454  1.00  0.00    -0.218 A  
HETATM   35  F   UNL     1     -12.100   8.414  69.987  1.00  0.00     0.141 F  
HETATM   36  F   UNL     1     -11.437   6.901  71.410  1.00  0.00    -0.268 F  
HETATM   37  F   UNL     1     -11.508   9.000  71.990  1.00  0.00    -0.394 F  
HETATM   38  C   UNL     1      -7.495   8.894  71.097  1.00  0.00    -0.125 A  
HETATM   39  C   UNL     1      -7.284   9.441  69.822  1.00  0.00    -0.076 A  
BRANCH  39  40
HETATM   40  O   UNL     1      -6.102  10.072  69.513  1.00  0.00    -0.040 OA 
HETATM   41  C   UNL     1      -5.437  10.782  70.555  1.00  0.00    -0.092 C  
ENDBRANCH  39  40
ENDBRANCH  23  30
ENDBRANCH  12  15
ENDBRANCH   7   9
ENDBRANCH   2   3
TORSDOF 6
ENDMDL
MODEL      127
REMARK 921   NORMALIZED FREE ENERGY PREDICTED BY IDOCK:    6.81 KCAL/MOL
REMARK 922        TOTAL FREE ENERGY PREDICTED BY IDOCK:    7.96 KCAL/MOL
REMARK 923 INTER-LIGAND FREE ENERGY PREDICTED BY IDOCK:    2.15 KCAL/MOL
REMARK 924 INTRA-LIGAND FREE ENERGY PREDICTED BY IDOCK:    5.81 KCAL/MOL
REMARK 927      BINDING AFFINITY PREDICTED BY RF-SCORE:    0.00 PKD
ROOT
HETATM    1  C   UNL     1     -10.721  21.261  69.615  1.00  0.00     1.688 C  
HETATM    2  O   UNL     1     -10.899  20.197  68.686  1.00  0.00     0.062 OA 
ENDROOT
BRANCH   2   3
HETATM    3  C   UNL     1      -9.890  19.977  67.784  1.00  0.00    -0.411 A  
HETATM    4  C   UNL     1      -9.057  20.952  67.248  1.00  0.00    -0.236 A  
HETATM    5  C   UNL     1      -8.089  20.584  66.318  1.00  0.00    -0.014 A  
HETATM    6  C   UNL     1      -7.947  19.242  65.930  1.00  0.00    -0.159 A  
HETATM    7  C   UNL     1      -8.749  18.222  66.463  1.00  0.00    -0.274 A  
HETATM    8  C   UNL     1      -9.723  18.636  67.392  1.00  0.00    -0.330 A  
BRANCH   7   9
HETATM    9  N   UNL     1      -8.590  16.899  66.101  1.00  0.00    -0.457 NA 
HETATM   10  C   UNL     1      -7.309  16.180  66.196  1.00  0.00     0.745 C  
HETATM   11  C   UNL     1      -7.452  14.966  67.125  1.00  0.00    -0.076 C  
HETATM   12  N   UNL     1      -8.578  14.067  66.778  1.00  0.00    -0.124 NA 
HETATM   13  C   UNL     1      -9.841  14.762  66.384  1.00  0.00    -0.280 C  
HETATM   14  C   UNL     1      -9.661  16.057  65.546  1.00  0.00    -0.075 C  
BRANCH  12  15
HETATM   15  C   UNL     1      -8.599  12.690  67.022  1.00  0.00    -0.181 C  
HETATM   16  N   UNL     1      -8.220  11.926  66.022  1.00  0.00     0.222 NA 
HETATM   17  C   UNL     1      -8.044  10.539  66.187  1.00  0.00    -0.145 A  
HETATM   18  C   UNL     1      -8.207   9.934  67.421  1.00  0.00    -0.118 A  
HETATM   19  C   UNL     1      -7.879   8.568  67.591  1.00  0.00    -0.103 A  
HETATM   20  C   UNL     1      -8.839  10.714  68.555  1.00  0.00    -0.148 C  
HETATM   21  F   UNL     1      -7.506  10.259  63.879  1.00  0.00    -0.143 F  
HETATM   22  C   UNL     1      -7.482   7.783  66.516  1.00  0.00    -0.088 A  
HETATM   23  N   UNL     1      -9.033  12.175  68.261  1.00  0.00    -0.193 NA 
HETATM   24  C   UNL     1      -7.640   9.733  65.106  1.00  0.00    -0.125 A  
HETATM   25  C   UNL     1      -7.384   8.364  65.262  1.00  0.00    -0.084 A  
BRANCH  20  26
HETATM   26  C   UNL     1     -10.145   9.978  68.951  1.00  0.00    -0.200 C  
HETATM   27  O   UNL     1     -10.552   9.225  66.671  1.00  0.00    -0.197 OA 
HETATM   28  C   UNL     1     -10.705   8.970  67.982  1.00  0.00    -0.125 C  
HETATM   29  O   UNL     1     -11.363   8.010  68.369  1.00  0.00     0.467 OA 
ENDBRANCH  20  26
BRANCH  23  30
HETATM   30  C   UNL     1      -9.875  12.854  69.221  1.00  0.00     0.670 A  
HETATM   31  C   UNL     1     -11.861  12.772  70.675  1.00  0.00    -0.026 A  
HETATM   32  C   UNL     1     -10.932  12.150  69.829  1.00  0.00     0.176 A  
HETATM   33  C   UNL     1     -13.217  12.159  70.918  1.00  0.00     0.358 C  
HETATM   34  C   UNL     1     -11.558  14.022  71.193  1.00  0.00     0.229 A  
HETATM   35  F   UNL     1     -13.464  11.068  70.147  1.00  0.00     0.019 F  
HETATM   36  F   UNL     1     -13.404  11.774  72.209  1.00  0.00    -0.610 F  
HETATM   37  F   UNL     1     -14.216  13.043  70.635  1.00  0.00     1.245 F  
HETATM   38  C   UNL     1     -10.461  14.720  70.702  1.00  0.00     0.380 A  
HETATM   39  C   UNL     1      -9.698  14.205  69.643  1.00  0.00     0.674 A  
BRANCH  39  40
HETATM   40  O   UNL     1      -8.704  14.956  69.061  1.00  0.00    -0.191 OA 
HETATM   41  C   UNL     1      -8.164  16.040  69.813  1.00  0.00     0.325 C  
ENDBRANCH  39  40
ENDBRANCH  23  30
ENDBRANCH  12  15
ENDBRANCH   7   9
ENDBRANCH   2   3
TORSDOF 6
ENDMDL
MODEL      128
REMARK 921   NORMALIZED FREE ENERGY PREDICTED BY IDOCK:    6.99 KCAL/MOL
REMARK 922        TOTAL FREE ENERGY PREDICTED BY IDOCK:    8.20 KCAL/MOL
REMARK 923 INTER-LIGAND FREE ENERGY PREDICTED BY IDOCK:    5.22 KCAL/MOL
REMARK 924 INTRA-LIGAND FREE ENERGY PREDICTED BY IDOCK:    2.98 KCAL/MOL
REMARK 927      BINDING AFFINITY PREDICTED BY RF-SCORE:    0.00 PKD
ROOT
HETATM    1  C   UNL     1      -5.602   7.924  71.328  1.00  0.00    -0.034 C  
HETATM    2  O   UNL     1      -6.461   6.798  71.474  1.00  0.00    -0.041 OA 
ENDROOT
BRANCH   2   3
HETATM    3  C   UNL     1      -7.296   6.507  70.425  1.00  0.00    -0.085 A  
HETATM    4  C   UNL     1      -7.324   5.310  69.722  1.00  0.00    -0.064 A  
HETATM    5  C   UNL     1      -8.211   5.167  68.658  1.00  0.00    -0.085 A  
HETATM    6  C   UNL     1      -9.075   6.215  68.304  1.00  0.00    -0.112 A  
HETATM    7  C   UNL     1      -9.098   7.432  69.001  1.00  0.00    -0.133 A  
HETATM    8  C   UNL     1      -8.179   7.541  70.063  1.00  0.00    -0.130 A  
BRANCH   7   9
HETATM    9  N   UNL     1      -9.966   8.452  68.669  1.00  0.00    -0.179 NA 
HETATM   10  C   UNL     1     -10.182   9.640  69.511  1.00  0.00    -0.218 C  
HETATM   11  C   UNL     1      -9.822  10.914  68.732  1.00  0.00    -0.196 C  
HETATM   12  N   UNL     1     -10.492  11.027  67.415  1.00  0.00    -0.206 NA 
HETATM   13  C   UNL     1     -10.559   9.757  66.630  1.00  0.00    -0.108 C  
HETATM   14  C   UNL     1     -10.803   8.468  67.460  1.00  0.00    -0.016 C  
BRANCH  12  15
HETATM   15  C   UNL     1     -10.826  12.236  66.796  1.00  0.00    -0.253 C  
HETATM   16  N   UNL     1     -11.269  12.145  65.563  1.00  0.00    -0.324 NA 
HETATM   17  C   UNL     1     -11.787  13.265  64.886  1.00  0.00    -0.362 A  
HETATM   18  C   UNL     1     -11.902  14.495  65.511  1.00  0.00    -0.330 A  
HETATM   19  C   UNL     1     -12.562  15.563  64.860  1.00  0.00     0.567 A  
HETATM   20  C   UNL     1     -11.224  14.717  66.848  1.00  0.00    -0.343 C  
HETATM   21  F   UNL     1     -12.133  11.995  62.896  1.00  0.00    -0.397 F  
HETATM   22  C   UNL     1     -13.020  15.440  63.555  1.00  0.00     1.969 A  
HETATM   23  N   UNL     1     -10.657  13.468  67.463  1.00  0.00    -0.243 NA 
HETATM   24  C   UNL     1     -12.256  13.152  63.564  1.00  0.00    -0.476 A  
HETATM   25  C   UNL     1     -12.847  14.233  62.895  1.00  0.00     2.265 A  
BRANCH  20  26
HETATM   26  C   UNL     1     -10.179  15.846  66.653  1.00  0.00    -0.293 C  
HETATM   27  O   UNL     1      -8.346  14.267  66.376  1.00  0.00     0.223 OA 
HETATM   28  C   UNL     1      -8.844  15.475  66.063  1.00  0.00    -0.125 C  
HETATM   29  O   UNL     1      -8.190  16.280  65.408  1.00  0.00     0.668 OA 
ENDBRANCH  20  26
BRANCH  23  30
HETATM   30  C   UNL     1      -9.783  13.719  68.587  1.00  0.00    -0.140 A  
HETATM   31  C   UNL     1      -7.525  13.533  69.550  1.00  0.00     0.454 A  
HETATM   32  C   UNL     1      -8.410  13.430  68.469  1.00  0.00    -0.085 A  
HETATM   33  C   UNL     1      -6.215  12.784  69.552  1.00  0.00    -0.120 C  
HETATM   34  C   UNL     1      -7.923  14.242  70.673  1.00  0.00     2.312 A  
HETATM   35  F   UNL     1      -6.076  11.934  68.501  1.00  0.00    -0.050 F  
HETATM   36  F   UNL     1      -5.132  13.605  69.535  1.00  0.00    -0.082 F  
HETATM   37  F   UNL     1      -6.092  12.010  70.668  1.00  0.00    -0.171 F  
HETATM   38  C   UNL     1      -9.248  14.645  70.795  1.00  0.00     2.397 A  
HETATM   39  C   UNL     1     -10.199  14.283  69.829  1.00  0.00     0.401 A  
BRANCH  39  40
HETATM   40  O   UNL     1     -11.533  14.555  70.018  1.00  0.00    -0.261 OA 
HETATM   41  C   UNL     1     -12.299  13.626  70.780  1.00  0.00    -0.371 C  
ENDBRANCH  39  40
ENDBRANCH  23  30
ENDBRANCH  12  15
ENDBRANCH   7   9
ENDBRANCH   2   3
TORSDOF 6
ENDMDL
MODEL      129
REMARK 921   NORMALIZED FREE ENERGY PREDICTED BY IDOCK:    7.22 KCAL/MOL
REMARK 922        TOTAL FREE ENERGY PREDICTED BY IDOCK:    8.52 KCAL/MOL
REMARK 923 INTER-LIGAND FREE ENERGY PREDICTED BY IDOCK:    4.09 KCAL/MOL
REMARK 924 INTRA-LIGAND FREE ENERGY PREDICTED BY IDOCK:    4.43 KCAL/MOL
REMARK 927      BINDING AFFINITY PREDICTED BY RF-SCORE:    0.00 PKD
ROOT
HETATM    1  C   UNL     1      -5.130   8.319  68.804  1.00  0.00    -0.028 C  
HETATM    2  O   UNL     1      -5.416   7.873  70.126  1.00  0.00    -0.023 OA 
ENDROOT
BRANCH   2   3
HETATM    3  C   UNL     1      -6.709   7.503  70.396  1.00  0.00    -0.047 A  
HETATM    4  C   UNL     1      -7.095   6.463  71.233  1.00  0.00    -0.077 A  
HETATM    5  C   UNL     1      -8.450   6.185  71.391  1.00  0.00    -0.128 A  
HETATM    6  C   UNL     1      -9.418   6.950  70.722  1.00  0.00    -0.165 A  
HETATM    7  C   UNL     1      -9.075   8.023  69.887  1.00  0.00    -0.145 A  
HETATM    8  C   UNL     1      -7.695   8.266  69.743  1.00  0.00    -0.098 A  
BRANCH   7   9
HETATM    9  N   UNL     1     -10.029   8.791  69.249  1.00  0.00    -0.188 NA 
HETATM   10  C   UNL     1     -10.631   9.995  69.845  1.00  0.00    -0.282 C  
HETATM   11  C   UNL     1     -10.360  11.217  68.954  1.00  0.00    -0.195 C  
HETATM   12  N   UNL     1     -10.752  11.032  67.537  1.00  0.00    -0.227 NA 
HETATM   13  C   UNL     1     -10.419   9.695  66.960  1.00  0.00    -0.232 C  
HETATM   14  C   UNL     1     -10.587   8.488  67.922  1.00  0.00    -0.156 C  
BRANCH  12  15
HETATM   15  C   UNL     1     -11.168  12.063  66.688  1.00  0.00    -0.327 C  
HETATM   16  N   UNL     1     -11.499  11.702  65.469  1.00  0.00    -0.179 NA 
HETATM   17  C   UNL     1     -12.084  12.613  64.569  1.00  0.00    -0.417 A  
HETATM   18  C   UNL     1     -12.385  13.909  64.949  1.00  0.00    -0.445 A  
HETATM   19  C   UNL     1     -13.106  14.756  64.076  1.00  0.00     1.338 A  
HETATM   20  C   UNL     1     -11.844  14.445  66.260  1.00  0.00    -0.379 C  
HETATM   21  F   UNL     1     -12.127  10.980  62.829  1.00  0.00     0.112 F  
HETATM   22  C   UNL     1     -13.442  14.350  62.791  1.00  0.00     4.969 A  
HETATM   23  N   UNL     1     -11.192  13.404  67.126  1.00  0.00    -0.293 NA 
HETATM   24  C   UNL     1     -12.431  12.212  63.265  1.00  0.00    -0.411 A  
HETATM   25  C   UNL     1     -13.083  13.077  62.376  1.00  0.00     3.122 A  
BRANCH  20  26
HETATM   26  C   UNL     1     -10.920  15.644  65.922  1.00  0.00    -0.231 C  
HETATM   27  O   UNL     1     -12.362  16.399  64.110  1.00  0.00    -0.584 OA 
HETATM   28  C   UNL     1     -11.485  16.748  65.067  1.00  0.00     0.403 C  
HETATM   29  O   UNL     1     -11.085  17.903  65.170  1.00  0.00    -0.547 OA 
ENDBRANCH  20  26
BRANCH  23  30
HETATM   30  C   UNL     1     -10.444  13.955  68.233  1.00  0.00    -0.250 A  
HETATM   31  C   UNL     1     -10.489  15.008  70.458  1.00  0.00     0.045 A  
HETATM   32  C   UNL     1     -11.129  14.356  69.396  1.00  0.00    -0.294 A  
HETATM   33  C   UNL     1     -11.275  15.843  71.440  1.00  0.00    -0.228 C  
HETATM   34  C   UNL     1      -9.105  14.971  70.526  1.00  0.00     1.299 A  
HETATM   35  F   UNL     1     -12.582  15.991  71.100  1.00  0.00    -0.468 F  
HETATM   36  F   UNL     1     -11.255  15.339  72.702  1.00  0.00    -0.530 F  
HETATM   37  F   UNL     1     -10.771  17.107  71.525  1.00  0.00     0.691 F  
HETATM   38  C   UNL     1      -8.378  14.487  69.445  1.00  0.00     0.164 A  
HETATM   39  C   UNL     1      -9.025  14.099  68.262  1.00  0.00    -0.188 A  
BRANCH  39  40
HETATM   40  O   UNL     1      -8.303  13.757  67.144  1.00  0.00    -0.185 OA 
HETATM   41  C   UNL     1      -7.026  13.154  67.337  1.00  0.00    -0.107 C  
ENDBRANCH  39  40
ENDBRANCH  23  30
ENDBRANCH  12  15
ENDBRANCH   7   9
ENDBRANCH   2   3
TORSDOF 6
ENDMDL
MODEL      130
REMARK 921   NORMALIZED FREE ENERGY PREDICTED BY IDOCK:    9.49 KCAL/MOL
REMARK 922        TOTAL FREE ENERGY PREDICTED BY IDOCK:   11.58 KCAL/MOL
REMARK 923 INTER-LIGAND FREE ENERGY PREDICTED BY IDOCK:    7.10 KCAL/MOL
REMARK 924 INTRA-LIGAND FREE ENERGY PREDICTED BY IDOCK:    4.48 KCAL/MOL
REMARK 927      BINDING AFFINITY PREDICTED BY RF-SCORE:    0.00 PKD
ROOT
HETATM    1  C   UNL     1      -6.103  16.682  68.825  1.00  0.00    -0.144 C  
HETATM    2  O   UNL     1      -7.137  15.770  68.469  1.00  0.00    -0.113 OA 
ENDROOT
BRANCH   2   3
HETATM    3  C   UNL     1      -7.266  14.639  69.236  1.00  0.00    -0.156 A  
HETATM    4  C   UNL     1      -7.705  14.602  70.554  1.00  0.00     1.167 A  
HETATM    5  C   UNL     1      -7.759  13.379  71.217  1.00  0.00     6.361 A  
HETATM    6  C   UNL     1      -7.385  12.195  70.563  1.00  0.00     2.948 A  
HETATM    7  C   UNL     1      -6.959  12.183  69.226  1.00  0.00    -0.010 A  
HETATM    8  C   UNL     1      -6.907  13.440  68.594  1.00  0.00    -0.098 A  
BRANCH   7   9
HETATM    9  N   UNL     1      -6.616  11.015  68.576  1.00  0.00    -0.057 NA 
HETATM   10  C   UNL     1      -6.348   9.747  69.274  1.00  0.00    -0.047 C  
HETATM   11  C   UNL     1      -7.322   8.662  68.792  1.00  0.00    -0.083 C  
HETATM   12  N   UNL     1      -7.364   8.497  67.319  1.00  0.00    -0.087 NA 
HETATM   13  C   UNL     1      -7.342   9.773  66.541  1.00  0.00    -0.095 C  
HETATM   14  C   UNL     1      -6.441  10.896  67.120  1.00  0.00    -0.078 C  
BRANCH  12  15
HETATM   15  C   UNL     1      -7.655   7.296  66.663  1.00  0.00    -0.093 C  
HETATM   16  N   UNL     1      -8.012   7.405  65.404  1.00  0.00    -0.118 NA 
HETATM   17  C   UNL     1      -8.176   6.268  64.589  1.00  0.00    -0.080 A  
HETATM   18  C   UNL     1      -7.914   4.996  65.066  1.00  0.00    -0.101 A  
HETATM   19  C   UNL     1      -7.942   3.888  64.187  1.00  0.00    -0.086 A  
HETATM   20  C   UNL     1      -7.703   4.787  66.552  1.00  0.00    -0.091 C  
HETATM   21  F   UNL     1      -8.867   7.605  62.737  1.00  0.00     0.083 F  
HETATM   22  C   UNL     1      -8.324   4.030  62.860  1.00  0.00    -0.084 A  
HETATM   23  N   UNL     1      -7.593   6.061  67.341  1.00  0.00    -0.092 NA 
HETATM   24  C   UNL     1      -8.562   6.399  63.241  1.00  0.00     0.376 A  
HETATM   25  C   UNL     1      -8.657   5.291  62.390  1.00  0.00    -0.106 A  
BRANCH  20  26
HETATM   26  C   UNL     1      -8.827   3.840  67.049  1.00  0.00    -0.137 C  
HETATM   27  O   UNL     1      -7.316   1.935  67.203  1.00  0.00    -0.057 OA 
HETATM   28  C   UNL     1      -8.418   2.537  67.684  1.00  0.00    -0.089 C  
HETATM   29  O   UNL     1      -9.116   1.995  68.535  1.00  0.00    -0.116 OA 
ENDBRANCH  20  26
BRANCH  23  30
HETATM   30  C   UNL     1      -7.668   5.867  68.772  1.00  0.00    -0.091 A  
HETATM   31  C   UNL     1      -9.077   5.426  70.743  1.00  0.00    -0.168 A  
HETATM   32  C   UNL     1      -8.900   5.513  69.355  1.00  0.00    -0.114 A  
HETATM   33  C   UNL     1     -10.452   5.530  71.355  1.00  0.00    -0.240 C  
HETATM   34  C   UNL     1      -7.955   5.361  71.555  1.00  0.00    -0.115 A  
HETATM   35  F   UNL     1     -11.422   5.844  70.457  1.00  0.00    -0.379 F  
HETATM   36  F   UNL     1     -10.848   4.385  71.972  1.00  0.00    -0.178 F  
HETATM   37  F   UNL     1     -10.497   6.510  72.303  1.00  0.00    -0.203 F  
HETATM   38  C   UNL     1      -6.700   5.599  71.010  1.00  0.00    -0.052 A  
HETATM   39  C   UNL     1      -6.560   5.972  69.664  1.00  0.00    -0.044 A  
BRANCH  39  40
HETATM   40  O   UNL     1      -5.338   6.347  69.160  1.00  0.00    -0.011 OA 
HETATM   41  C   UNL     1      -5.128   7.731  68.889  1.00  0.00    -0.022 C  
ENDBRANCH  39  40
ENDBRANCH  23  30
ENDBRANCH  12  15
ENDBRANCH   7   9
ENDBRANCH   2   3
TORSDOF 6
ENDMDL
MODEL      131
REMARK 921   NORMALIZED FREE ENERGY PREDICTED BY IDOCK:    9.84 KCAL/MOL
REMARK 922        TOTAL FREE ENERGY PREDICTED BY IDOCK:   12.05 KCAL/MOL
REMARK 923 INTER-LIGAND FREE ENERGY PREDICTED BY IDOCK:   13.00 KCAL/MOL
REMARK 924 INTRA-LIGAND FREE ENERGY PREDICTED BY IDOCK:   -0.95 KCAL/MOL
REMARK 927      BINDING AFFINITY PREDICTED BY RF-SCORE:    0.00 PKD
ROOT
HETATM    1  C   UNL     1     -13.959   5.311  71.947  1.00  0.00     3.189 C  
HETATM    2  O   UNL     1     -12.674   4.991  71.421  1.00  0.00     3.201 OA 
ENDROOT
BRANCH   2   3
HETATM    3  C   UNL     1     -11.589   5.580  72.018  1.00  0.00     0.012 A  
HETATM    4  C   UNL     1     -10.998   5.169  73.207  1.00  0.00    -0.375 A  
HETATM    5  C   UNL     1      -9.914   5.884  73.709  1.00  0.00    -0.203 A  
HETATM    6  C   UNL     1      -9.415   7.001  73.022  1.00  0.00    -0.177 A  
HETATM    7  C   UNL     1      -9.965   7.436  71.807  1.00  0.00    -0.171 A  
HETATM    8  C   UNL     1     -11.067   6.695  71.337  1.00  0.00    -0.306 A  
BRANCH   7   9
HETATM    9  N   UNL     1      -9.457   8.519  71.118  1.00  0.00    -0.178 NA 
HETATM   10  C   UNL     1      -8.703   8.399  69.859  1.00  0.00    -0.136 C  
HETATM   11  C   UNL     1      -9.415   9.172  68.740  1.00  0.00    -0.147 C  
HETATM   12  N   UNL     1      -9.724  10.581  69.079  1.00  0.00    -0.202 NA 
HETATM   13  C   UNL     1     -10.227  10.799  70.469  1.00  0.00     1.107 C  
HETATM   14  C   UNL     1      -9.573   9.916  71.565  1.00  0.00     1.627 C  
BRANCH  12  15
HETATM   15  C   UNL     1      -9.802  11.622  68.148  1.00  0.00    -0.191 C  
HETATM   16  N   UNL     1     -10.675  11.460  67.179  1.00  0.00    -0.236 NA 
HETATM   17  C   UNL     1     -10.964  12.498  66.273  1.00  0.00    -0.277 A  
HETATM   18  C   UNL     1     -10.382  13.747  66.399  1.00  0.00    -0.290 A  
HETATM   19  C   UNL     1     -10.801  14.812  65.569  1.00  0.00    -0.359 A  
HETATM   20  C   UNL     1      -9.223  13.935  67.357  1.00  0.00    -0.224 C  
HETATM   21  F   UNL     1     -12.464  11.106  65.044  1.00  0.00     0.716 F  
HETATM   22  C   UNL     1     -11.725  14.613  64.551  1.00  0.00    -0.410 A  
HETATM   23  N   UNL     1      -8.962  12.751  68.245  1.00  0.00    -0.194 NA 
HETATM   24  C   UNL     1     -11.900  12.308  65.238  1.00  0.00    -0.355 A  
HETATM   25  C   UNL     1     -12.261  13.348  64.371  1.00  0.00    -0.444 A  
BRANCH  20  26
HETATM   26  C   UNL     1      -7.994  14.367  66.515  1.00  0.00     0.747 C  
HETATM   27  O   UNL     1      -8.072  16.652  67.354  1.00  0.00    -0.159 OA 
HETATM   28  C   UNL     1      -7.304  15.653  66.886  1.00  0.00    -0.092 C  
HETATM   29  O   UNL     1      -6.107  15.818  66.676  1.00  0.00    -0.056 OA 
ENDBRANCH  20  26
BRANCH  23  30
HETATM   30  C   UNL     1      -7.705  12.823  68.954  1.00  0.00     0.096 A  
HETATM   31  C   UNL     1      -6.517  13.394  71.035  1.00  0.00     0.936 A  
HETATM   32  C   UNL     1      -7.702  13.186  70.315  1.00  0.00     2.729 A  
HETATM   33  C   UNL     1      -6.513  14.226  72.293  1.00  0.00     1.417 C  
HETATM   34  C   UNL     1      -5.326  12.920  70.508  1.00  0.00    -0.138 A  
HETATM   35  F   UNL     1      -7.703  14.831  72.546  1.00  0.00     2.463 F  
HETATM   36  F   UNL     1      -6.196  13.509  73.405  1.00  0.00     0.375 F  
HETATM   37  F   UNL     1      -5.597  15.233  72.215  1.00  0.00     0.079 F  
HETATM   38  C   UNL     1      -5.292  12.451  69.201  1.00  0.00    -0.068 A  
HETATM   39  C   UNL     1      -6.434  12.515  68.386  1.00  0.00    -0.066 A  
BRANCH  39  40
HETATM   40  O   UNL     1      -6.367  12.187  67.053  1.00  0.00    -0.155 OA 
HETATM   41  C   UNL     1      -6.394  10.805  66.707  1.00  0.00    -0.088 C  
ENDBRANCH  39  40
ENDBRANCH  23  30
ENDBRANCH  12  15
ENDBRANCH   7   9
ENDBRANCH   2   3
TORSDOF 6
ENDMDL
MODEL      132
REMARK 921   NORMALIZED FREE ENERGY PREDICTED BY IDOCK:   10.46 KCAL/MOL
REMARK 922        TOTAL FREE ENERGY PREDICTED BY IDOCK:   12.89 KCAL/MOL
REMARK 923 INTER-LIGAND FREE ENERGY PREDICTED BY IDOCK:    6.94 KCAL/MOL
REMARK 924 INTRA-LIGAND FREE ENERGY PREDICTED BY IDOCK:    5.95 KCAL/MOL
REMARK 927      BINDING AFFINITY PREDICTED BY RF-SCORE:    0.00 PKD
ROOT
HETATM    1  C   UNL     1      -7.318   7.824  73.225  1.00  0.00    -0.109 C  
HETATM    2  O   UNL     1      -8.571   7.419  72.683  1.00  0.00    -0.108 OA 
ENDROOT
BRANCH   2   3
HETATM    3  C   UNL     1      -8.760   7.606  71.337  1.00  0.00    -0.124 A  
HETATM    4  C   UNL     1      -8.444   6.691  70.340  1.00  0.00    -0.135 A  
HETATM    5  C   UNL     1      -8.668   7.032  69.009  1.00  0.00    -0.128 A  
HETATM    6  C   UNL     1      -9.215   8.280  68.675  1.00  0.00    -0.143 A  
HETATM    7  C   UNL     1      -9.572   9.224  69.649  1.00  0.00    -0.183 A  
HETATM    8  C   UNL     1      -9.319   8.848  70.982  1.00  0.00    -0.313 A  
BRANCH   7   9
HETATM    9  N   UNL     1     -10.134  10.442  69.320  1.00  0.00    -0.220 NA 
HETATM   10  C   UNL     1     -10.195  11.583  70.248  1.00  0.00     1.971 C  
HETATM   11  C   UNL     1      -9.454  12.789  69.652  1.00  0.00     1.894 C  
HETATM   12  N   UNL     1      -9.889  13.151  68.282  1.00  0.00    -0.227 NA 
HETATM   13  C   UNL     1     -10.128  11.993  67.369  1.00  0.00    -0.194 C  
HETATM   14  C   UNL     1     -10.768  10.741  68.027  1.00  0.00    -0.228 C  
BRANCH  12  15
HETATM   15  C   UNL     1      -9.853  14.446  67.755  1.00  0.00    -0.221 C  
HETATM   16  N   UNL     1     -10.114  15.416  68.602  1.00  0.00    -0.207 NA 
HETATM   17  C   UNL     1      -9.955  16.767  68.238  1.00  0.00    -0.273 A  
HETATM   18  C   UNL     1      -9.465  17.126  66.995  1.00  0.00    -0.257 A  
HETATM   19  C   UNL     1      -9.175  18.481  66.710  1.00  0.00    -0.297 A  
HETATM   20  C   UNL     1      -9.345  16.075  65.910  1.00  0.00    -0.300 C  
HETATM   21  F   UNL     1     -10.756  17.508  70.361  1.00  0.00     0.068 F  
HETATM   22  C   UNL     1      -9.462  19.487  67.623  1.00  0.00    -0.416 A  
HETATM   23  N   UNL     1      -9.584  14.670  66.388  1.00  0.00    -0.286 NA 
HETATM   24  C   UNL     1     -10.241  17.796  69.156  1.00  0.00    -0.211 A  
HETATM   25  C   UNL     1     -10.019  19.145  68.845  1.00  0.00    -0.481 A  
BRANCH  20  26
HETATM   26  C   UNL     1     -10.274  16.505  64.745  1.00  0.00     0.798 C  
HETATM   27  O   UNL     1     -11.989  17.335  66.262  1.00  0.00     2.275 OA 
HETATM   28  C   UNL     1     -11.402  17.453  65.059  1.00  0.00     0.879 C  
HETATM   29  O   UNL     1     -11.834  18.231  64.215  1.00  0.00     2.750 OA 
ENDBRANCH  20  26
BRANCH  23  30
HETATM   30  C   UNL     1      -9.739  13.711  65.318  1.00  0.00     0.007 A  
HETATM   31  C   UNL     1      -8.868  11.715  64.168  1.00  0.00     0.534 A  
HETATM   32  C   UNL     1      -8.856  12.616  65.242  1.00  0.00     1.125 A  
HETATM   33  C   UNL     1      -7.657  10.874  63.851  1.00  0.00     0.490 C  
HETATM   34  C   UNL     1      -9.971  11.693  63.329  1.00  0.00    -0.442 A  
HETATM   35  F   UNL     1      -6.569  11.186  64.603  1.00  0.00     0.233 F  
HETATM   36  F   UNL     1      -7.875   9.542  64.016  1.00  0.00    -0.112 F  
HETATM   37  F   UNL     1      -7.268  11.039  62.555  1.00  0.00    -0.125 F  
HETATM   38  C   UNL     1     -10.930  12.693  63.430  1.00  0.00    -0.305 A  
HETATM   39  C   UNL     1     -10.761  13.762  64.325  1.00  0.00    -0.198 A  
BRANCH  39  40
HETATM   40  O   UNL     1     -11.632  14.825  64.325  1.00  0.00    -0.308 OA 
HETATM   41  C   UNL     1     -13.009  14.554  64.574  1.00  0.00     0.461 C  
ENDBRANCH  39  40
ENDBRANCH  23  30
ENDBRANCH  12  15
ENDBRANCH   7   9
ENDBRANCH   2   3
TORSDOF 6
ENDMDL
MODEL      133
REMARK 921   NORMALIZED FREE ENERGY PREDICTED BY IDOCK:   11.16 KCAL/MOL
REMARK 922        TOTAL FREE ENERGY PREDICTED BY IDOCK:   13.84 KCAL/MOL
REMARK 923 INTER-LIGAND FREE ENERGY PREDICTED BY IDOCK:   14.56 KCAL/MOL
REMARK 924 INTRA-LIGAND FREE ENERGY PREDICTED BY IDOCK:   -0.72 KCAL/MOL
REMARK 927      BINDING AFFINITY PREDICTED BY RF-SCORE:    0.00 PKD
ROOT
HETATM    1  C   UNL     1     -11.720   3.256  71.423  1.00  0.00     5.350 C  
HETATM    2  O   UNL     1     -12.313   3.884  72.555  1.00  0.00     1.417 OA 
ENDROOT
BRANCH   2   3
HETATM    3  C   UNL     1     -11.753   5.061  72.983  1.00  0.00    -0.143 A  
HETATM    4  C   UNL     1     -12.084   5.736  74.152  1.00  0.00     4.305 A  
HETATM    5  C   UNL     1     -11.449   6.940  74.444  1.00  0.00     3.704 A  
HETATM    6  C   UNL     1     -10.479   7.464  73.575  1.00  0.00    -0.396 A  
HETATM    7  C   UNL     1     -10.097   6.805  72.397  1.00  0.00    -0.170 A  
HETATM    8  C   UNL     1     -10.770   5.597  72.131  1.00  0.00    -0.287 A  
BRANCH   7   9
HETATM    9  N   UNL     1      -9.125   7.308  71.557  1.00  0.00    -0.140 NA 
HETATM   10  C   UNL     1      -8.016   6.500  71.023  1.00  0.00    -0.111 C  
HETATM   11  C   UNL     1      -8.057   6.493  69.488  1.00  0.00    -0.118 C  
HETATM   12  N   UNL     1      -8.116   7.842  68.878  1.00  0.00    -0.123 NA 
HETATM   13  C   UNL     1      -9.022   8.808  69.569  1.00  0.00    -0.145 C  
HETATM   14  C   UNL     1      -9.052   8.710  71.118  1.00  0.00    -0.209 C  
BRANCH  12  15
HETATM   15  C   UNL     1      -7.591   8.169  67.623  1.00  0.00    -0.098 C  
HETATM   16  N   UNL     1      -7.436   9.452  67.384  1.00  0.00    -0.090 NA 
HETATM   17  C   UNL     1      -6.772   9.906  66.229  1.00  0.00    -0.090 A  
HETATM   18  C   UNL     1      -6.208   9.021  65.327  1.00  0.00    -0.063 A  
HETATM   19  C   UNL     1      -5.421   9.504  64.256  1.00  0.00    -0.063 A  
HETATM   20  C   UNL     1      -6.529   7.544  65.434  1.00  0.00    -0.041 C  
HETATM   21  F   UNL     1      -7.177  12.187  66.804  1.00  0.00    -0.127 F  
HETATM   22  C   UNL     1      -5.274  10.865  64.025  1.00  0.00    -0.002 A  
HETATM   23  N   UNL     1      -7.285   7.169  66.677  1.00  0.00    -0.077 NA 
HETATM   24  C   UNL     1      -6.616  11.284  65.985  1.00  0.00     0.115 A  
HETATM   25  C   UNL     1      -5.894  11.761  64.882  1.00  0.00     2.799 A  
BRANCH  20  26
HETATM   26  C   UNL     1      -7.243   7.130  64.120  1.00  0.00    -0.069 C  
HETATM   27  O   UNL     1      -5.206   6.197  63.167  1.00  0.00    -0.017 OA 
HETATM   28  C   UNL     1      -6.547   6.140  63.224  1.00  0.00    -0.039 C  
HETATM   29  O   UNL     1      -7.182   5.381  62.498  1.00  0.00    -0.042 OA 
ENDBRANCH  20  26
BRANCH  23  30
HETATM   30  C   UNL     1      -7.823   5.827  66.647  1.00  0.00    -0.101 A  
HETATM   31  C   UNL     1      -7.434   3.419  66.983  1.00  0.00    -0.075 A  
HETATM   32  C   UNL     1      -7.027   4.756  67.095  1.00  0.00    -0.061 A  
HETATM   33  C   UNL     1      -6.425   2.298  67.003  1.00  0.00    -0.031 C  
HETATM   34  C   UNL     1      -8.771   3.148  66.735  1.00  0.00    -0.135 A  
HETATM   35  F   UNL     1      -5.136   2.730  66.998  1.00  0.00    -0.004 F  
HETATM   36  F   UNL     1      -6.557   1.481  68.082  1.00  0.00    -0.027 F  
HETATM   37  F   UNL     1      -6.550   1.502  65.903  1.00  0.00    -0.022 F  
HETATM   38  C   UNL     1      -9.629   4.186  66.390  1.00  0.00    -0.215 A  
HETATM   39  C   UNL     1      -9.143   5.492  66.223  1.00  0.00    -0.146 A  
BRANCH  39  40
HETATM   40  O   UNL     1      -9.957   6.490  65.743  1.00  0.00     0.332 OA 
HETATM   41  C   UNL     1     -10.719   7.238  66.688  1.00  0.00     0.021 C  
ENDBRANCH  39  40
ENDBRANCH  23  30
ENDBRANCH  12  15
ENDBRANCH   7   9
ENDBRANCH   2   3
TORSDOF 6
ENDMDL
MODEL      134
REMARK 921   NORMALIZED FREE ENERGY PREDICTED BY IDOCK:   11.32 KCAL/MOL
REMARK 922        TOTAL FREE ENERGY PREDICTED BY IDOCK:   14.05 KCAL/MOL
REMARK 923 INTER-LIGAND FREE ENERGY PREDICTED BY IDOCK:   13.34 KCAL/MOL
REMARK 924 INTRA-LIGAND FREE ENERGY PREDICTED BY IDOCK:    0.71 KCAL/MOL
REMARK 927      BINDING AFFINITY PREDICTED BY RF-SCORE:    0.00 PKD
ROOT
HETATM    1  C   UNL     1      -9.477   4.939  67.041  1.00  0.00    -0.148 C  
HETATM    2  O   UNL     1     -10.404   5.012  68.120  1.00  0.00    -0.116 OA 
ENDROOT
BRANCH   2   3
HETATM    3  C   UNL     1     -10.149   5.933  69.104  1.00  0.00    -0.190 A  
HETATM    4  C   UNL     1      -9.417   5.697  70.261  1.00  0.00    -0.202 A  
HETATM    5  C   UNL     1      -9.262   6.725  71.189  1.00  0.00    -0.159 A  
HETATM    6  C   UNL     1      -9.829   7.987  70.955  1.00  0.00    -0.200 A  
HETATM    7  C   UNL     1     -10.554   8.276  69.790  1.00  0.00    -0.228 A  
HETATM    8  C   UNL     1     -10.699   7.209  68.883  1.00  0.00    -0.199 A  
BRANCH   7   9
HETATM    9  N   UNL     1     -11.089   9.526  69.550  1.00  0.00    -0.191 NA 
HETATM   10  C   UNL     1     -10.930  10.666  70.467  1.00  0.00     0.020 C  
HETATM   11  C   UNL     1     -10.226  11.828  69.750  1.00  0.00     0.958 C  
HETATM   12  N   UNL     1     -10.858  12.219  68.468  1.00  0.00    -0.228 NA 
HETATM   13  C   UNL     1     -11.312  11.080  67.614  1.00  0.00    -0.281 C  
HETATM   14  C   UNL     1     -11.909   9.867  68.377  1.00  0.00     0.901 C  
BRANCH  12  15
HETATM   15  C   UNL     1     -10.832  13.512  67.933  1.00  0.00    -0.247 C  
HETATM   16  N   UNL     1     -10.616  13.591  66.640  1.00  0.00    -0.278 NA 
HETATM   17  C   UNL     1     -10.724  14.816  65.954  1.00  0.00    -0.316 A  
HETATM   18  C   UNL     1     -11.116  15.974  66.603  1.00  0.00     0.006 A  
HETATM   19  C   UNL     1     -11.361  17.154  65.864  1.00  0.00     0.896 A  
HETATM   20  C   UNL     1     -11.177  15.994  68.117  1.00  0.00    -0.325 C  
HETATM   21  F   UNL     1     -10.065  13.805  63.895  1.00  0.00    -0.084 F  
HETATM   22  C   UNL     1     -11.123  17.212  64.497  1.00  0.00     0.819 A  
HETATM   23  N   UNL     1     -10.999  14.645  68.756  1.00  0.00    -0.248 NA 
HETATM   24  C   UNL     1     -10.487  14.886  64.568  1.00  0.00     0.110 A  
HETATM   25  C   UNL     1     -10.662  16.076  63.848  1.00  0.00     2.131 A  
BRANCH  20  26
HETATM   26  C   UNL     1     -10.159  17.056  68.606  1.00  0.00    -0.303 C  
HETATM   27  O   UNL     1     -11.474  18.901  67.712  1.00  0.00     0.230 OA 
HETATM   28  C   UNL     1     -10.611  18.492  68.658  1.00  0.00     0.075 C  
HETATM   29  O   UNL     1     -10.135  19.281  69.467  1.00  0.00    -0.214 OA 
ENDBRANCH  20  26
BRANCH  23  30
HETATM   30  C   UNL     1     -10.784  14.703  70.184  1.00  0.00     0.059 A  
HETATM   31  C   UNL     1     -11.774  14.796  72.437  1.00  0.00    -0.191 A  
HETATM   32  C   UNL     1     -11.891  14.625  71.051  1.00  0.00    -0.379 A  
HETATM   33  C   UNL     1     -12.968  15.189  73.272  1.00  0.00    -0.528 C  
HETATM   34  C   UNL     1     -10.517  14.712  73.015  1.00  0.00     3.861 A  
HETATM   35  F   UNL     1     -14.071  15.480  72.534  1.00  0.00    -0.535 F  
HETATM   36  F   UNL     1     -13.336  14.228  74.161  1.00  0.00     0.750 F  
HETATM   37  F   UNL     1     -12.709  16.309  74.005  1.00  0.00    -0.544 F  
HETATM   38  C   UNL     1      -9.390  14.681  72.203  1.00  0.00     6.053 A  
HETATM   39  C   UNL     1      -9.506  14.801  70.809  1.00  0.00     1.943 A  
BRANCH  39  40
HETATM   40  O   UNL     1      -8.388  14.915  70.017  1.00  0.00     0.140 OA 
HETATM   41  C   UNL     1      -7.162  14.390  70.519  1.00  0.00     0.724 C  
ENDBRANCH  39  40
ENDBRANCH  23  30
ENDBRANCH  12  15
ENDBRANCH   7   9
ENDBRANCH   2   3
TORSDOF 6
ENDMDL
MODEL      135
REMARK 921   NORMALIZED FREE ENERGY PREDICTED BY IDOCK:   11.70 KCAL/MOL
REMARK 922        TOTAL FREE ENERGY PREDICTED BY IDOCK:   14.57 KCAL/MOL
REMARK 923 INTER-LIGAND FREE ENERGY PREDICTED BY IDOCK:    9.70 KCAL/MOL
REMARK 924 INTRA-LIGAND FREE ENERGY PREDICTED BY IDOCK:    4.87 KCAL/MOL
REMARK 927      BINDING AFFINITY PREDICTED BY RF-SCORE:    0.00 PKD
ROOT
HETATM    1  C   UNL     1      -7.294   8.462  64.294  1.00  0.00    -0.096 C  
HETATM    2  O   UNL     1      -7.884   9.088  65.429  1.00  0.00    -0.096 OA 
ENDROOT
BRANCH   2   3
HETATM    3  C   UNL     1      -9.150   9.594  65.279  1.00  0.00    -0.218 A  
HETATM    4  C   UNL     1     -10.277   8.860  64.930  1.00  0.00     2.202 A  
HETATM    5  C   UNL     1     -11.497   9.516  64.786  1.00  0.00     6.700 A  
HETATM    6  C   UNL     1     -11.593  10.899  65.000  1.00  0.00     0.815 A  
HETATM    7  C   UNL     1     -10.486  11.675  65.377  1.00  0.00    -0.275 A  
HETATM    8  C   UNL     1      -9.269  10.978  65.501  1.00  0.00    -0.235 A  
BRANCH   7   9
HETATM    9  N   UNL     1     -10.587  13.031  65.612  1.00  0.00    -0.278 NA 
HETATM   10  C   UNL     1     -11.508  13.617  66.600  1.00  0.00    -0.343 C  
HETATM   11  C   UNL     1     -10.721  14.413  67.651  1.00  0.00    -0.263 C  
HETATM   12  N   UNL     1      -9.793  15.417  67.081  1.00  0.00    -0.220 NA 
HETATM   13  C   UNL     1      -9.034  14.963  65.876  1.00  0.00     0.222 C  
HETATM   14  C   UNL     1      -9.820  14.058  64.890  1.00  0.00     0.037 C  
BRANCH  12  15
HETATM   15  C   UNL     1      -9.428  16.610  67.714  1.00  0.00    -0.227 C  
HETATM   16  N   UNL     1     -10.119  17.674  67.373  1.00  0.00    -0.318 NA 
HETATM   17  C   UNL     1      -9.959  18.898  68.050  1.00  0.00    -0.358 A  
HETATM   18  C   UNL     1      -9.110  19.015  69.136  1.00  0.00    -0.133 A  
HETATM   19  C   UNL     1      -9.080  20.213  69.889  1.00  0.00     0.951 A  
HETATM   20  C   UNL     1      -8.138  17.895  69.445  1.00  0.00     0.405 C  
HETATM   21  F   UNL     1     -11.515  19.985  66.603  1.00  0.00    -0.238 F  
HETATM   22  C   UNL     1      -9.821  21.323  69.506  1.00  0.00     2.017 A  
HETATM   23  N   UNL     1      -8.359  16.649  68.633  1.00  0.00    -0.235 NA 
HETATM   24  C   UNL     1     -10.706  20.030  67.672  1.00  0.00    -0.187 A  
HETATM   25  C   UNL     1     -10.622  21.238  68.378  1.00  0.00     1.407 A  
BRANCH  20  26
HETATM   26  C   UNL     1      -6.706  18.477  69.319  1.00  0.00    -0.252 C  
HETATM   27  O   UNL     1      -7.074  19.198  67.022  1.00  0.00    -0.203 OA 
HETATM   28  C   UNL     1      -6.430  19.424  68.180  1.00  0.00    -0.232 C  
HETATM   29  O   UNL     1      -5.578  20.301  68.272  1.00  0.00    -0.216 OA 
ENDBRANCH  20  26
BRANCH  23  30
HETATM   30  C   UNL     1      -7.278  15.694  68.729  1.00  0.00    -0.133 A  
HETATM   31  C   UNL     1      -6.267  13.604  67.909  1.00  0.00    -0.158 A  
HETATM   32  C   UNL     1      -7.213  14.633  67.806  1.00  0.00    -0.191 A  
HETATM   33  C   UNL     1      -6.500  12.270  67.244  1.00  0.00    -0.152 C  
HETATM   34  C   UNL     1      -5.166  13.790  68.731  1.00  0.00    -0.075 A  
HETATM   35  F   UNL     1      -7.734  12.151  66.687  1.00  0.00    -0.123 F  
HETATM   36  F   UNL     1      -5.601  12.001  66.260  1.00  0.00    -0.050 F  
HETATM   37  F   UNL     1      -6.402  11.248  68.141  1.00  0.00    -0.052 F  
HETATM   38  C   UNL     1      -5.130  14.880  69.591  1.00  0.00    -0.088 A  
HETATM   39  C   UNL     1      -6.222  15.756  69.687  1.00  0.00    -0.169 A  
BRANCH  39  40
HETATM   40  O   UNL     1      -6.248  16.749  70.637  1.00  0.00     0.304 OA 
HETATM   41  C   UNL     1      -5.394  16.607  71.769  1.00  0.00     0.456 C  
ENDBRANCH  39  40
ENDBRANCH  23  30
ENDBRANCH  12  15
ENDBRANCH   7   9
ENDBRANCH   2   3
TORSDOF 6
ENDMDL
MODEL      136
REMARK 921   NORMALIZED FREE ENERGY PREDICTED BY IDOCK:   11.79 KCAL/MOL
REMARK 922        TOTAL FREE ENERGY PREDICTED BY IDOCK:   14.69 KCAL/MOL
REMARK 923 INTER-LIGAND FREE ENERGY PREDICTED BY IDOCK:    6.91 KCAL/MOL
REMARK 924 INTRA-LIGAND FREE ENERGY PREDICTED BY IDOCK:    7.78 KCAL/MOL
REMARK 927      BINDING AFFINITY PREDICTED BY RF-SCORE:    0.00 PKD
ROOT
HETATM    1  C   UNL     1     -14.139   7.167  72.434  1.00  0.00     0.259 C  
HETATM    2  O   UNL     1     -13.863   7.047  71.042  1.00  0.00    -0.163 OA 
ENDROOT
BRANCH   2   3
HETATM    3  C   UNL     1     -12.585   7.330  70.630  1.00  0.00     0.000 A  
HETATM    4  C   UNL     1     -11.629   6.392  70.261  1.00  0.00    -0.451 A  
HETATM    5  C   UNL     1     -10.359   6.826  69.889  1.00  0.00    -0.229 A  
HETATM    6  C   UNL     1     -10.048   8.194  69.879  1.00  0.00    -0.195 A  
HETATM    7  C   UNL     1     -10.989   9.176  70.221  1.00  0.00    -0.245 A  
HETATM    8  C   UNL     1     -12.257   8.697  70.601  1.00  0.00     0.080 A  
BRANCH   7   9
HETATM    9  N   UNL     1     -10.690  10.524  70.185  1.00  0.00    -0.237 NA 
HETATM   10  C   UNL     1      -9.318  11.047  70.065  1.00  0.00     1.268 C  
HETATM   11  C   UNL     1      -9.191  11.910  68.802  1.00  0.00     0.034 C  
HETATM   12  N   UNL     1     -10.213  12.978  68.692  1.00  0.00    -0.207 NA 
HETATM   13  C   UNL     1     -11.595  12.571  69.089  1.00  0.00    -0.320 C  
HETATM   14  C   UNL     1     -11.687  11.599  70.296  1.00  0.00    -0.266 C  
BRANCH  12  15
HETATM   15  C   UNL     1     -10.016  14.201  68.042  1.00  0.00    -0.226 C  
HETATM   16  N   UNL     1     -10.776  14.419  66.992  1.00  0.00    -0.282 NA 
HETATM   17  C   UNL     1     -10.790  15.671  66.348  1.00  0.00    -0.252 A  
HETATM   18  C   UNL     1     -10.048  16.737  66.826  1.00  0.00    -0.295 A  
HETATM   19  C   UNL     1     -10.195  18.020  66.250  1.00  0.00    -0.381 A  
HETATM   20  C   UNL     1      -9.002  16.495  67.896  1.00  0.00    -0.205 C  
HETATM   21  F   UNL     1     -12.317  14.882  64.691  1.00  0.00    -0.420 F  
HETATM   22  C   UNL     1     -11.004  18.223  65.139  1.00  0.00     0.889 A  
HETATM   23  N   UNL     1      -9.036  15.113  68.485  1.00  0.00    -0.179 NA 
HETATM   24  C   UNL     1     -11.607  15.890  65.222  1.00  0.00     0.213 A  
HETATM   25  C   UNL     1     -11.697  17.146  64.609  1.00  0.00     1.592 A  
BRANCH  20  26
HETATM   26  C   UNL     1      -7.627  16.884  67.294  1.00  0.00    -0.199 C  
HETATM   27  O   UNL     1      -7.476  14.826  66.001  1.00  0.00     1.803 OA 
HETATM   28  C   UNL     1      -7.150  16.127  66.082  1.00  0.00     1.055 C  
HETATM   29  O   UNL     1      -6.410  16.649  65.255  1.00  0.00     1.872 OA 
ENDBRANCH  20  26
BRANCH  23  30
HETATM   30  C   UNL     1      -7.880  14.799  69.295  1.00  0.00    -0.122 A  
HETATM   31  C   UNL     1      -6.419  13.065  70.255  1.00  0.00     0.241 A  
HETATM   32  C   UNL     1      -7.453  13.461  69.396  1.00  0.00     0.367 A  
HETATM   33  C   UNL     1      -6.299  11.632  70.712  1.00  0.00     0.666 C  
HETATM   34  C   UNL     1      -5.575  14.035  70.774  1.00  0.00    -0.177 A  
HETATM   35  F   UNL     1      -7.341  10.851  70.325  1.00  0.00    -0.081 F  
HETATM   36  F   UNL     1      -5.168  11.023  70.265  1.00  0.00    -0.049 F  
HETATM   37  F   UNL     1      -6.264  11.550  72.073  1.00  0.00     1.111 F  
HETATM   38  C   UNL     1      -5.894  15.378  70.614  1.00  0.00    -0.025 A  
HETATM   39  C   UNL     1      -7.093  15.762  69.994  1.00  0.00     0.172 A  
BRANCH  39  40
HETATM   40  O   UNL     1      -7.479  17.080  69.963  1.00  0.00     0.722 OA 
HETATM   41  C   UNL     1      -6.644  18.000  69.264  1.00  0.00    -0.232 C  
ENDBRANCH  39  40
ENDBRANCH  23  30
ENDBRANCH  12  15
ENDBRANCH   7   9
ENDBRANCH   2   3
TORSDOF 6
ENDMDL
MODEL      137
REMARK 921   NORMALIZED FREE ENERGY PREDICTED BY IDOCK:   11.83 KCAL/MOL
REMARK 922        TOTAL FREE ENERGY PREDICTED BY IDOCK:   14.74 KCAL/MOL
REMARK 923 INTER-LIGAND FREE ENERGY PREDICTED BY IDOCK:   14.62 KCAL/MOL
REMARK 924 INTRA-LIGAND FREE ENERGY PREDICTED BY IDOCK:    0.12 KCAL/MOL
REMARK 927      BINDING AFFINITY PREDICTED BY RF-SCORE:    0.00 PKD
ROOT
HETATM    1  C   UNL     1      -7.149  17.268  65.137  1.00  0.00     2.358 C  
HETATM    2  O   UNL     1      -8.369  16.944  64.479  1.00  0.00     4.728 OA 
ENDROOT
BRANCH   2   3
HETATM    3  C   UNL     1      -9.202  16.052  65.107  1.00  0.00     1.193 A  
HETATM    4  C   UNL     1     -10.296  16.385  65.896  1.00  0.00    -0.378 A  
HETATM    5  C   UNL     1     -11.036  15.369  66.494  1.00  0.00    -0.227 A  
HETATM    6  C   UNL     1     -10.690  14.024  66.298  1.00  0.00    -0.289 A  
HETATM    7  C   UNL     1      -9.609  13.641  65.490  1.00  0.00     0.054 A  
HETATM    8  C   UNL     1      -8.878  14.697  64.912  1.00  0.00     3.487 A  
BRANCH   7   9
HETATM    9  N   UNL     1      -9.285  12.316  65.277  1.00  0.00     0.187 NA 
HETATM   10  C   UNL     1      -7.901  11.831  65.149  1.00  0.00     1.571 C  
HETATM   11  C   UNL     1      -7.604  10.787  66.235  1.00  0.00    -0.142 C  
HETATM   12  N   UNL     1      -8.587   9.680  66.296  1.00  0.00    -0.126 NA 
HETATM   13  C   UNL     1     -10.014  10.093  66.135  1.00  0.00    -0.246 C  
HETATM   14  C   UNL     1     -10.270  11.236  65.117  1.00  0.00    -0.289 C  
BRANCH  12  15
HETATM   15  C   UNL     1      -8.291   8.379  66.716  1.00  0.00    -0.109 C  
HETATM   16  N   UNL     1      -8.311   7.457  65.780  1.00  0.00    -0.134 NA 
HETATM   17  C   UNL     1      -7.878   6.142  66.039  1.00  0.00    -0.106 A  
HETATM   18  C   UNL     1      -7.363   5.782  67.272  1.00  0.00    -0.077 A  
HETATM   19  C   UNL     1      -6.798   4.499  67.458  1.00  0.00    -0.059 A  
HETATM   20  C   UNL     1      -7.505   6.732  68.444  1.00  0.00    -0.095 C  
HETATM   21  F   UNL     1      -8.432   5.446  63.824  1.00  0.00    -0.129 F  
HETATM   22  C   UNL     1      -6.833   3.542  66.452  1.00  0.00    -0.053 A  
HETATM   23  N   UNL     1      -8.024   8.093  68.071  1.00  0.00    -0.125 NA 
HETATM   24  C   UNL     1      -7.907   5.164  65.026  1.00  0.00    -0.092 A  
HETATM   25  C   UNL     1      -7.411   3.870  65.236  1.00  0.00    -0.069 A  
BRANCH  20  26
HETATM   26  C   UNL     1      -8.358   6.012  69.521  1.00  0.00    -0.115 C  
HETATM   27  O   UNL     1     -10.239   5.715  68.003  1.00  0.00    -0.159 OA 
HETATM   28  C   UNL     1      -9.562   5.233  69.059  1.00  0.00    -0.144 C  
HETATM   29  O   UNL     1      -9.967   4.257  69.682  1.00  0.00    -0.214 OA 
ENDBRANCH  20  26
BRANCH  23  30
HETATM   30  C   UNL     1      -8.416   8.896  69.208  1.00  0.00    -0.121 A  
HETATM   31  C   UNL     1     -10.245   9.841  70.559  1.00  0.00    -0.321 A  
HETATM   32  C   UNL     1      -9.779   8.988  69.548  1.00  0.00    -0.171 A  
HETATM   33  C   UNL     1     -11.684  10.291  70.588  1.00  0.00    -0.348 C  
HETATM   34  C   UNL     1      -9.334  10.360  71.466  1.00  0.00     4.325 A  
HETATM   35  F   UNL     1     -12.395   9.905  69.495  1.00  0.00     0.023 F  
HETATM   36  F   UNL     1     -12.363   9.836  71.674  1.00  0.00    -0.388 F  
HETATM   37  F   UNL     1     -11.775  11.651  70.623  1.00  0.00    -0.400 F  
HETATM   38  C   UNL     1      -7.972  10.207  71.233  1.00  0.00     2.028 A  
HETATM   39  C   UNL     1      -7.509   9.595  70.059  1.00  0.00    -0.141 A  
BRANCH  39  40
HETATM   40  O   UNL     1      -6.168   9.571  69.758  1.00  0.00    -0.038 OA 
HETATM   41  C   UNL     1      -5.550   8.299  69.579  1.00  0.00    -0.030 C  
ENDBRANCH  39  40
ENDBRANCH  23  30
ENDBRANCH  12  15
ENDBRANCH   7   9
ENDBRANCH   2   3
TORSDOF 6
ENDMDL
MODEL      138
REMARK 921   NORMALIZED FREE ENERGY PREDICTED BY IDOCK:   13.29 KCAL/MOL
REMARK 922        TOTAL FREE ENERGY PREDICTED BY IDOCK:   16.71 KCAL/MOL
REMARK 923 INTER-LIGAND FREE ENERGY PREDICTED BY IDOCK:    6.84 KCAL/MOL
REMARK 924 INTRA-LIGAND FREE ENERGY PREDICTED BY IDOCK:    9.87 KCAL/MOL
REMARK 927      BINDING AFFINITY PREDICTED BY RF-SCORE:    0.00 PKD
ROOT
HETATM    1  C   UNL     1     -10.619   3.948  65.880  1.00  0.00     0.646 C  
HETATM    2  O   UNL     1      -9.737   4.944  65.371  1.00  0.00    -0.149 OA 
ENDROOT
BRANCH   2   3
HETATM    3  C   UNL     1      -8.561   5.144  66.048  1.00  0.00    -0.124 A  
HETATM    4  C   UNL     1      -7.381   4.439  65.844  1.00  0.00    -0.077 A  
HETATM    5  C   UNL     1      -6.269   4.735  66.628  1.00  0.00    -0.032 A  
HETATM    6  C   UNL     1      -6.333   5.738  67.607  1.00  0.00    -0.038 A  
HETATM    7  C   UNL     1      -7.495   6.491  67.830  1.00  0.00    -0.097 A  
HETATM    8  C   UNL     1      -8.601   6.155  67.026  1.00  0.00    -0.108 A  
BRANCH   7   9
HETATM    9  N   UNL     1      -7.549   7.496  68.775  1.00  0.00    -0.104 NA 
HETATM   10  C   UNL     1      -6.481   7.741  69.759  1.00  0.00    -0.034 C  
HETATM   11  C   UNL     1      -5.929   9.165  69.597  1.00  0.00    -0.032 C  
HETATM   12  N   UNL     1      -6.967  10.222  69.616  1.00  0.00    -0.097 NA 
HETATM   13  C   UNL     1      -8.214   9.896  68.859  1.00  0.00    -0.118 C  
HETATM   14  C   UNL     1      -8.682   8.418  68.943  1.00  0.00    -0.136 C  
BRANCH  12  15
HETATM   15  C   UNL     1      -6.760  11.529  70.068  1.00  0.00     0.105 C  
HETATM   16  N   UNL     1      -6.523  11.659  71.354  1.00  0.00     1.340 NA 
HETATM   17  C   UNL     1      -6.142  12.896  71.907  1.00  0.00     1.690 A  
HETATM   18  C   UNL     1      -5.947  14.012  71.111  1.00  0.00    -0.160 A  
HETATM   19  C   UNL     1      -5.420  15.199  71.671  1.00  0.00     0.106 A  
HETATM   20  C   UNL     1      -6.400  13.983  69.666  1.00  0.00    -0.130 C  
HETATM   21  F   UNL     1      -6.105  11.983  74.112  1.00  0.00     1.217 F  
HETATM   22  C   UNL     1      -5.180  15.310  73.034  1.00  0.00     0.446 A  
HETATM   23  N   UNL     1      -6.837  12.627  69.186  1.00  0.00    -0.088 NA 
HETATM   24  C   UNL     1      -5.894  13.020  73.287  1.00  0.00     1.412 A  
HETATM   25  C   UNL     1      -5.439  14.220  73.851  1.00  0.00    -0.233 A  
BRANCH  20  26
HETATM   26  C   UNL     1      -7.481  15.083  69.500  1.00  0.00    -0.194 C  
HETATM   27  O   UNL     1      -5.957  16.853  70.190  1.00  0.00    -0.225 OA 
HETATM   28  C   UNL     1      -7.023  16.517  69.443  1.00  0.00    -0.202 C  
HETATM   29  O   UNL     1      -7.656  17.364  68.822  1.00  0.00    -0.249 OA 
ENDBRANCH  20  26
BRANCH  23  30
HETATM   30  C   UNL     1      -7.519  12.654  67.912  1.00  0.00    -0.124 A  
HETATM   31  C   UNL     1      -8.918  11.462  66.274  1.00  0.00    -0.205 A  
HETATM   32  C   UNL     1      -8.325  11.561  67.540  1.00  0.00    -0.143 A  
HETATM   33  C   UNL     1      -9.350  10.124  65.725  1.00  0.00    -0.188 C  
HETATM   34  C   UNL     1      -8.995  12.598  65.483  1.00  0.00     0.626 A  
HETATM   35  F   UNL     1      -8.982   9.074  66.504  1.00  0.00    -0.135 F  
HETATM   36  F   UNL     1     -10.695  10.029  65.552  1.00  0.00    -0.206 F  
HETATM   37  F   UNL     1      -8.791   9.889  64.503  1.00  0.00    -0.158 F  
HETATM   38  C   UNL     1      -8.302  13.742  65.857  1.00  0.00     1.802 A  
HETATM   39  C   UNL     1      -7.472  13.740  66.989  1.00  0.00     0.321 A  
BRANCH  39  40
HETATM   40  O   UNL     1      -6.675  14.822  67.280  1.00  0.00    -0.279 OA 
HETATM   41  C   UNL     1      -5.289  14.731  66.961  1.00  0.00     1.193 C  
ENDBRANCH  39  40
ENDBRANCH  23  30
ENDBRANCH  12  15
ENDBRANCH   7   9
ENDBRANCH   2   3
TORSDOF 6
ENDMDL
MODEL      139
REMARK 921   NORMALIZED FREE ENERGY PREDICTED BY IDOCK:   14.26 KCAL/MOL
REMARK 922        TOTAL FREE ENERGY PREDICTED BY IDOCK:   18.02 KCAL/MOL
REMARK 923 INTER-LIGAND FREE ENERGY PREDICTED BY IDOCK:    9.25 KCAL/MOL
REMARK 924 INTRA-LIGAND FREE ENERGY PREDICTED BY IDOCK:    8.78 KCAL/MOL
REMARK 927      BINDING AFFINITY PREDICTED BY RF-SCORE:    0.00 PKD
ROOT
HETATM    1  C   UNL     1     -12.255  18.638  66.286  1.00  0.00     5.165 C  
HETATM    2  O   UNL     1     -11.316  17.661  65.846  1.00  0.00     0.606 OA 
ENDROOT
BRANCH   2   3
HETATM    3  C   UNL     1     -11.819  16.542  65.233  1.00  0.00     1.191 A  
HETATM    4  C   UNL     1     -13.088  16.423  64.680  1.00  0.00     3.719 A  
HETATM    5  C   UNL     1     -13.472  15.211  64.112  1.00  0.00     2.498 A  
HETATM    6  C   UNL     1     -12.587  14.123  64.089  1.00  0.00    -0.113 A  
HETATM    7  C   UNL     1     -11.288  14.205  64.613  1.00  0.00    -0.371 A  
HETATM    8  C   UNL     1     -10.942  15.443  65.188  1.00  0.00    -0.430 A  
BRANCH   7   9
HETATM    9  N   UNL     1     -10.409  13.141  64.566  1.00  0.00    -0.386 NA 
HETATM   10  C   UNL     1      -9.167  13.081  65.354  1.00  0.00     0.568 C  
HETATM   11  C   UNL     1      -9.185  11.853  66.276  1.00  0.00    -0.214 C  
HETATM   12  N   UNL     1      -9.474  10.577  65.580  1.00  0.00    -0.200 NA 
HETATM   13  C   UNL     1     -10.547  10.653  64.543  1.00  0.00    -0.075 C  
HETATM   14  C   UNL     1     -10.580  11.961  63.706  1.00  0.00    -0.422 C  
BRANCH  12  15
HETATM   15  C   UNL     1      -8.998   9.326  65.986  1.00  0.00    -0.176 C  
HETATM   16  N   UNL     1      -8.378   8.623  65.064  1.00  0.00    -0.164 NA 
HETATM   17  C   UNL     1      -7.715   7.422  65.383  1.00  0.00    -0.110 A  
HETATM   18  C   UNL     1      -7.642   6.963  66.686  1.00  0.00    -0.089 A  
HETATM   19  C   UNL     1      -6.845   5.837  66.999  1.00  0.00    -0.063 A  
HETATM   20  C   UNL     1      -8.503   7.610  67.753  1.00  0.00    -0.122 C  
HETATM   21  F   UNL     1      -7.130   7.054  63.098  1.00  0.00    -0.053 F  
HETATM   22  C   UNL     1      -6.202   5.111  66.005  1.00  0.00    -0.034 A  
HETATM   23  N   UNL     1      -9.210   8.856  67.298  1.00  0.00    -0.137 NA 
HETATM   24  C   UNL     1      -7.058   6.678  64.384  1.00  0.00    -0.057 A  
HETATM   25  C   UNL     1      -6.327   5.521  64.687  1.00  0.00    -0.030 A  
BRANCH  20  26
HETATM   26  C   UNL     1      -9.456   6.516  68.302  1.00  0.00    -0.118 C  
HETATM   27  O   UNL     1     -10.220   5.895  66.074  1.00  0.00     0.005 OA 
HETATM   28  C   UNL     1      -9.980   5.489  67.333  1.00  0.00    -0.162 C  
HETATM   29  O   UNL     1     -10.272   4.356  67.701  1.00  0.00    -0.039 OA 
ENDBRANCH  20  26
BRANCH  23  30
HETATM   30  C   UNL     1     -10.231   9.311  68.215  1.00  0.00    -0.201 A  
HETATM   31  C   UNL     1     -11.459  11.211  69.187  1.00  0.00    -0.366 A  
HETATM   32  C   UNL     1     -10.569  10.677  68.245  1.00  0.00    -0.227 A  
HETATM   33  C   UNL     1     -11.442  12.681  69.523  1.00  0.00    -0.225 C  
HETATM   34  C   UNL     1     -12.279  10.344  69.894  1.00  0.00    -0.215 A  
HETATM   35  F   UNL     1     -10.419  13.358  68.938  1.00  0.00    -0.230 F  
HETATM   36  F   UNL     1     -12.587  13.323  69.167  1.00  0.00    -0.198 F  
HETATM   37  F   UNL     1     -11.294  12.879  70.864  1.00  0.00     0.263 F  
HETATM   38  C   UNL     1     -12.056   8.975  69.819  1.00  0.00     0.829 A  
HETATM   39  C   UNL     1     -10.971   8.463  69.092  1.00  0.00     0.085 A  
BRANCH  39  40
HETATM   40  O   UNL     1     -10.663   7.124  69.133  1.00  0.00    -0.217 OA 
HETATM   41  C   UNL     1     -10.630   6.489  70.409  1.00  0.00    -0.233 C  
ENDBRANCH  39  40
ENDBRANCH  23  30
ENDBRANCH  12  15
ENDBRANCH   7   9
ENDBRANCH   2   3
TORSDOF 6
ENDMDL
MODEL      140
REMARK 921   NORMALIZED FREE ENERGY PREDICTED BY IDOCK:   14.60 KCAL/MOL
REMARK 922        TOTAL FREE ENERGY PREDICTED BY IDOCK:   18.48 KCAL/MOL
REMARK 923 INTER-LIGAND FREE ENERGY PREDICTED BY IDOCK:   17.17 KCAL/MOL
REMARK 924 INTRA-LIGAND FREE ENERGY PREDICTED BY IDOCK:    1.31 KCAL/MOL
REMARK 927      BINDING AFFINITY PREDICTED BY RF-SCORE:    0.00 PKD
ROOT
HETATM    1  C   UNL     1      -8.471   7.079  62.791  1.00  0.00     0.206 C  
HETATM    2  O   UNL     1      -7.994   8.284  63.382  1.00  0.00    -0.150 OA 
ENDROOT
BRANCH   2   3
HETATM    3  C   UNL     1      -8.038   8.371  64.750  1.00  0.00    -0.155 A  
HETATM    4  C   UNL     1      -7.502   7.445  65.636  1.00  0.00    -0.084 A  
HETATM    5  C   UNL     1      -7.648   7.651  67.006  1.00  0.00    -0.103 A  
HETATM    6  C   UNL     1      -8.320   8.785  67.488  1.00  0.00    -0.109 A  
HETATM    7  C   UNL     1      -8.855   9.758  66.630  1.00  0.00    -0.138 A  
HETATM    8  C   UNL     1      -8.697   9.507  65.254  1.00  0.00    -0.193 A  
BRANCH   7   9
HETATM    9  N   UNL     1      -9.492  10.886  67.106  1.00  0.00    -0.160 NA 
HETATM   10  C   UNL     1      -9.093  11.582  68.341  1.00  0.00    -0.185 C  
HETATM   11  C   UNL     1      -8.711  13.037  68.027  1.00  0.00    -0.187 C  
HETATM   12  N   UNL     1      -9.741  13.782  67.266  1.00  0.00    -0.236 NA 
HETATM   13  C   UNL     1     -10.397  13.010  66.168  1.00  0.00    -0.278 C  
HETATM   14  C   UNL     1     -10.662  11.510  66.469  1.00  0.00    -0.273 C  
BRANCH  12  15
HETATM   15  C   UNL     1      -9.946  15.163  67.353  1.00  0.00    -0.226 C  
HETATM   16  N   UNL     1     -10.074  15.796  66.208  1.00  0.00    -0.284 NA 
HETATM   17  C   UNL     1     -10.442  17.154  66.159  1.00  0.00    -0.275 A  
HETATM   18  C   UNL     1     -10.737  17.862  67.311  1.00  0.00    -0.278 A  
HETATM   19  C   UNL     1     -11.247  19.179  67.223  1.00  0.00    -0.003 A  
HETATM   20  C   UNL     1     -10.410  17.258  68.661  1.00  0.00    -0.357 C  
HETATM   21  F   UNL     1     -10.261  17.193  63.779  1.00  0.00     3.256 F  
HETATM   22  C   UNL     1     -11.372  19.824  66.000  1.00  0.00     0.460 A  
HETATM   23  N   UNL     1      -9.977  15.820  68.601  1.00  0.00    -0.203 NA 
HETATM   24  C   UNL     1     -10.573  17.819  64.925  1.00  0.00     1.130 A  
HETATM   25  C   UNL     1     -11.012  19.147  64.845  1.00  0.00     1.651 A  
BRANCH  20  26
HETATM   26  C   UNL     1      -9.379  18.192  69.347  1.00  0.00     0.316 C  
HETATM   27  O   UNL     1      -8.332  18.788  67.231  1.00  0.00    -0.263 OA 
HETATM   28  C   UNL     1      -8.636  19.175  68.481  1.00  0.00    -0.363 C  
HETATM   29  O   UNL     1      -8.235  20.244  68.930  1.00  0.00     0.160 OA 
ENDBRANCH  20  26
BRANCH  23  30
HETATM   30  C   UNL     1      -9.409  15.332  69.837  1.00  0.00     0.037 A  
HETATM   31  C   UNL     1      -7.383  14.750  71.111  1.00  0.00     1.763 A  
HETATM   32  C   UNL     1      -8.009  15.318  69.993  1.00  0.00     0.269 A  
HETATM   33  C   UNL     1      -5.942  14.310  71.050  1.00  0.00    -0.181 C  
HETATM   34  C   UNL     1      -8.144  14.489  72.240  1.00  0.00     6.421 A  
HETATM   35  F   UNL     1      -5.401  14.397  69.806  1.00  0.00    -0.092 F  
HETATM   36  F   UNL     1      -5.132  15.024  71.877  1.00  0.00    -0.154 F  
HETATM   37  F   UNL     1      -5.809  13.004  71.419  1.00  0.00    -0.173 F  
HETATM   38  C   UNL     1      -9.528  14.588  72.172  1.00  0.00     6.227 A  
HETATM   39  C   UNL     1     -10.168  14.883  70.958  1.00  0.00     1.028 A  
BRANCH  39  40
HETATM   40  O   UNL     1     -11.538  14.840  70.855  1.00  0.00    -0.291 OA 
HETATM   41  C   UNL     1     -12.115  13.766  70.115  1.00  0.00    -0.359 C  
ENDBRANCH  39  40
ENDBRANCH  23  30
ENDBRANCH  12  15
ENDBRANCH   7   9
ENDBRANCH   2   3
TORSDOF 6
ENDMDL
MODEL      141
REMARK 921   NORMALIZED FREE ENERGY PREDICTED BY IDOCK:   15.59 KCAL/MOL
REMARK 922        TOTAL FREE ENERGY PREDICTED BY IDOCK:   19.83 KCAL/MOL
REMARK 923 INTER-LIGAND FREE ENERGY PREDICTED BY IDOCK:   12.97 KCAL/MOL
REMARK 924 INTRA-LIGAND FREE ENERGY PREDICTED BY IDOCK:    6.85 KCAL/MOL
REMARK 927      BINDING AFFINITY PREDICTED BY RF-SCORE:    0.00 PKD
ROOT
HETATM    1  C   UNL     1     -11.554   4.710  67.381  1.00  0.00     5.078 C  
HETATM    2  O   UNL     1     -10.548   5.149  66.473  1.00  0.00    -0.288 OA 
ENDROOT
BRANCH   2   3
HETATM    3  C   UNL     1      -9.456   5.784  67.007  1.00  0.00    -0.124 A  
HETATM    4  C   UNL     1      -8.132   5.404  66.827  1.00  0.00    -0.105 A  
HETATM    5  C   UNL     1      -7.124   6.131  67.455  1.00  0.00    -0.074 A  
HETATM    6  C   UNL     1      -7.439   7.240  68.256  1.00  0.00    -0.102 A  
HETATM    7  C   UNL     1      -8.759   7.673  68.446  1.00  0.00    -0.127 A  
HETATM    8  C   UNL     1      -9.750   6.906  67.803  1.00  0.00    -0.148 A  
BRANCH   7   9
HETATM    9  N   UNL     1      -9.065   8.780  69.212  1.00  0.00    -0.144 NA 
HETATM   10  C   UNL     1      -8.085   9.823  69.558  1.00  0.00    -0.141 C  
HETATM   11  C   UNL     1      -8.555  11.186  69.029  1.00  0.00    -0.024 C  
HETATM   12  N   UNL     1      -9.933  11.551  69.434  1.00  0.00     0.186 NA 
HETATM   13  C   UNL     1     -10.923  10.433  69.380  1.00  0.00    -0.251 C  
HETATM   14  C   UNL     1     -10.386   9.040  69.805  1.00  0.00    -0.211 C  
BRANCH  12  15
HETATM   15  C   UNL     1     -10.386  12.862  69.618  1.00  0.00     0.920 C  
HETATM   16  N   UNL     1     -11.112  13.071  70.693  1.00  0.00     1.312 NA 
HETATM   17  C   UNL     1     -11.493  14.371  71.077  1.00  0.00     0.006 A  
HETATM   18  C   UNL     1     -11.073  15.484  70.369  1.00  0.00    -0.357 A  
HETATM   19  C   UNL     1     -11.345  16.782  70.860  1.00  0.00     0.308 A  
HETATM   20  C   UNL     1     -10.416  15.301  69.016  1.00  0.00    -0.248 C  
HETATM   21  F   UNL     1     -12.742  13.536  72.931  1.00  0.00    -0.324 F  
HETATM   22  C   UNL     1     -12.116  16.975  71.999  1.00  0.00     1.276 A  
HETATM   23  N   UNL     1     -10.096  13.872  68.677  1.00  0.00    -0.225 NA 
HETATM   24  C   UNL     1     -12.273  14.579  72.230  1.00  0.00    -0.186 A  
HETATM   25  C   UNL     1     -12.602  15.867  72.676  1.00  0.00    -0.562 A  
BRANCH  20  26
HETATM   26  C   UNL     1     -11.316  16.005  67.967  1.00  0.00    -0.266 C  
HETATM   27  O   UNL     1     -12.512  13.950  67.438  1.00  0.00    -0.215 OA 
HETATM   28  C   UNL     1     -12.564  15.291  67.519  1.00  0.00     1.336 C  
HETATM   29  O   UNL     1     -13.554  15.911  67.145  1.00  0.00     4.901 OA 
ENDBRANCH  20  26
BRANCH  23  30
HETATM   30  C   UNL     1      -9.728  13.671  67.294  1.00  0.00    -0.243 A  
HETATM   31  C   UNL     1      -9.381  12.089  65.439  1.00  0.00     0.004 A  
HETATM   32  C   UNL     1      -9.832  12.384  66.733  1.00  0.00    -0.228 A  
HETATM   33  C   UNL     1      -9.052  10.672  65.039  1.00  0.00    -0.202 C  
HETATM   34  C   UNL     1      -9.129  13.136  64.566  1.00  0.00     1.863 A  
HETATM   35  F   UNL     1      -9.107   9.791  66.072  1.00  0.00    -0.154 F  
HETATM   36  F   UNL     1      -9.874  10.187  64.071  1.00  0.00    -0.356 F  
HETATM   37  F   UNL     1      -7.784  10.581  64.545  1.00  0.00    -0.148 F  
HETATM   38  C   UNL     1      -9.116  14.440  65.045  1.00  0.00     1.902 A  
HETATM   39  C   UNL     1      -9.288  14.704  66.413  1.00  0.00    -0.284 A  
BRANCH  39  40
HETATM   40  O   UNL     1      -9.133  15.976  66.910  1.00  0.00    -0.206 OA 
HETATM   41  C   UNL     1      -8.480  16.122  68.169  1.00  0.00    -0.175 C  
ENDBRANCH  39  40
ENDBRANCH  23  30
ENDBRANCH  12  15
ENDBRANCH   7   9
ENDBRANCH   2   3
TORSDOF 6
ENDMDL
MODEL      142
REMARK 921   NORMALIZED FREE ENERGY PREDICTED BY IDOCK:   15.76 KCAL/MOL
REMARK 922        TOTAL FREE ENERGY PREDICTED BY IDOCK:   20.06 KCAL/MOL
REMARK 923 INTER-LIGAND FREE ENERGY PREDICTED BY IDOCK:   11.67 KCAL/MOL
REMARK 924 INTRA-LIGAND FREE ENERGY PREDICTED BY IDOCK:    8.39 KCAL/MOL
REMARK 927      BINDING AFFINITY PREDICTED BY RF-SCORE:    0.00 PKD
ROOT
HETATM    1  C   UNL     1     -13.231   4.546  73.800  1.00  0.00     4.869 C  
HETATM    2  O   UNL     1     -12.832   4.895  72.478  1.00  0.00     0.823 OA 
ENDROOT
BRANCH   2   3
HETATM    3  C   UNL     1     -11.528   4.649  72.132  1.00  0.00     0.614 A  
HETATM    4  C   UNL     1     -10.624   3.895  72.870  1.00  0.00    -0.233 A  
HETATM    5  C   UNL     1      -9.319   3.754  72.407  1.00  0.00    -0.168 A  
HETATM    6  C   UNL     1      -8.920   4.357  71.204  1.00  0.00    -0.167 A  
HETATM    7  C   UNL     1      -9.805   5.107  70.415  1.00  0.00    -0.218 A  
HETATM    8  C   UNL     1     -11.112   5.236  70.923  1.00  0.00     0.115 A  
BRANCH   7   9
HETATM    9  N   UNL     1      -9.418   5.678  69.220  1.00  0.00    -0.127 NA 
HETATM   10  C   UNL     1     -10.323   5.842  68.069  1.00  0.00    -0.208 C  
HETATM   11  C   UNL     1     -10.441   7.328  67.698  1.00  0.00    -0.242 C  
HETATM   12  N   UNL     1      -9.140   8.007  67.493  1.00  0.00    -0.136 NA 
HETATM   13  C   UNL     1      -8.078   7.645  68.480  1.00  0.00    -0.124 C  
HETATM   14  C   UNL     1      -8.059   6.160  68.931  1.00  0.00    -0.108 C  
BRANCH  12  15
HETATM   15  C   UNL     1      -8.937   9.088  66.629  1.00  0.00    -0.135 C  
HETATM   16  N   UNL     1      -7.877   9.010  65.856  1.00  0.00    -0.100 NA 
HETATM   17  C   UNL     1      -7.646   9.951  64.834  1.00  0.00    -0.135 A  
HETATM   18  C   UNL     1      -8.554  10.961  64.567  1.00  0.00     0.032 A  
HETATM   19  C   UNL     1      -8.371  11.799  63.442  1.00  0.00     1.192 A  
HETATM   20  C   UNL     1      -9.679  11.229  65.545  1.00  0.00    -0.229 C  
HETATM   21  F   UNL     1      -5.573   8.921  64.254  1.00  0.00    -0.059 F  
HETATM   22  C   UNL     1      -7.241  11.697  62.642  1.00  0.00     1.204 A  
HETATM   23  N   UNL     1      -9.809  10.196  66.629  1.00  0.00    -0.191 NA 
HETATM   24  C   UNL     1      -6.505   9.856  64.015  1.00  0.00    -0.126 A  
HETATM   25  C   UNL     1      -6.291  10.733  62.943  1.00  0.00     0.032 A  
BRANCH  20  26
HETATM   26  C   UNL     1      -9.492  12.673  66.079  1.00  0.00    -0.140 C  
HETATM   27  O   UNL     1      -9.936  13.664  63.899  1.00  0.00     0.219 OA 
HETATM   28  C   UNL     1     -10.009  13.808  65.233  1.00  0.00    -0.218 C  
HETATM   29  O   UNL     1     -10.385  14.860  65.738  1.00  0.00    -0.292 OA 
ENDBRANCH  20  26
BRANCH  23  30
HETATM   30  C   UNL     1     -10.691  10.590  67.704  1.00  0.00    -0.275 A  
HETATM   31  C   UNL     1     -11.112  10.668  70.129  1.00  0.00    -0.341 A  
HETATM   32  C   UNL     1     -10.269  10.423  69.037  1.00  0.00    -0.233 A  
HETATM   33  C   UNL     1     -10.837  10.044  71.475  1.00  0.00     0.469 C  
HETATM   34  C   UNL     1     -12.272  11.400  69.924  1.00  0.00    -0.346 A  
HETATM   35  F   UNL     1      -9.811   9.153  71.459  1.00  0.00    -0.329 F  
HETATM   36  F   UNL     1     -10.542  10.959  72.436  1.00  0.00     4.337 F  
HETATM   37  F   UNL     1     -11.920   9.350  71.927  1.00  0.00    -0.403 F  
HETATM   38  C   UNL     1     -12.683  11.684  68.628  1.00  0.00     1.383 A  
HETATM   39  C   UNL     1     -11.976  11.182  67.524  1.00  0.00     0.386 A  
BRANCH  39  40
HETATM   40  O   UNL     1     -12.459  11.340  66.247  1.00  0.00     1.384 OA 
HETATM   41  C   UNL     1     -11.531  11.699  65.226  1.00  0.00    -0.105 C  
ENDBRANCH  39  40
ENDBRANCH  23  30
ENDBRANCH  12  15
ENDBRANCH   7   9
ENDBRANCH   2   3
TORSDOF 6
ENDMDL
MODEL      143
REMARK 921   NORMALIZED FREE ENERGY PREDICTED BY IDOCK:   16.82 KCAL/MOL
REMARK 922        TOTAL FREE ENERGY PREDICTED BY IDOCK:   21.49 KCAL/MOL
REMARK 923 INTER-LIGAND FREE ENERGY PREDICTED BY IDOCK:    9.67 KCAL/MOL
REMARK 924 INTRA-LIGAND FREE ENERGY PREDICTED BY IDOCK:   11.81 KCAL/MOL
REMARK 927      BINDING AFFINITY PREDICTED BY RF-SCORE:    0.00 PKD
ROOT
HETATM    1  C   UNL     1     -12.272  18.652  66.310  1.00  0.00     5.165 C  
HETATM    2  O   UNL     1     -11.286  17.684  65.965  1.00  0.00     0.630 OA 
ENDROOT
BRANCH   2   3
HETATM    3  C   UNL     1     -11.734  16.454  65.554  1.00  0.00     0.964 A  
HETATM    4  C   UNL     1     -13.023  16.165  65.124  1.00  0.00     2.972 A  
HETATM    5  C   UNL     1     -13.342  14.859  64.761  1.00  0.00     1.344 A  
HETATM    6  C   UNL     1     -12.372  13.846  64.819  1.00  0.00    -0.429 A  
HETATM    7  C   UNL     1     -11.052  14.098  65.223  1.00  0.00    -0.331 A  
HETATM    8  C   UNL     1     -10.773  15.427  65.593  1.00  0.00    -0.381 A  
BRANCH   7   9
HETATM    9  N   UNL     1     -10.093  13.106  65.254  1.00  0.00    -0.268 NA 
HETATM   10  C   UNL     1      -8.756  13.289  65.843  1.00  0.00     0.914 C  
HETATM   11  C   UNL     1      -8.536  12.281  66.980  1.00  0.00    -0.191 C  
HETATM   12  N   UNL     1      -8.796  10.872  66.599  1.00  0.00    -0.155 NA 
HETATM   13  C   UNL     1     -10.001  10.663  65.740  1.00  0.00    -0.257 C  
HETATM   14  C   UNL     1     -10.267  11.764  64.678  1.00  0.00    -0.284 C  
BRANCH  12  15
HETATM   15  C   UNL     1      -8.156   9.766  67.166  1.00  0.00    -0.116 C  
HETATM   16  N   UNL     1      -8.608   8.590  66.793  1.00  0.00    -0.112 NA 
HETATM   17  C   UNL     1      -7.951   7.402  67.165  1.00  0.00    -0.114 A  
HETATM   18  C   UNL     1      -6.772   7.426  67.891  1.00  0.00    -0.062 A  
HETATM   19  C   UNL     1      -6.056   6.229  68.122  1.00  0.00    -0.027 A  
HETATM   20  C   UNL     1      -6.315   8.725  68.524  1.00  0.00    -0.054 C  
HETATM   21  F   UNL     1      -9.608   6.062  66.089  1.00  0.00    -0.176 F  
HETATM   22  C   UNL     1      -6.557   4.999  67.718  1.00  0.00    -0.050 A  
HETATM   23  N   UNL     1      -7.114   9.927  68.103  1.00  0.00    -0.077 NA 
HETATM   24  C   UNL     1      -8.448   6.148  66.760  1.00  0.00    -0.111 A  
HETATM   25  C   UNL     1      -7.772   4.956  67.052  1.00  0.00    -0.092 A  
BRANCH  20  26
HETATM   26  C   UNL     1      -6.282   8.503  70.059  1.00  0.00    -0.034 C  
HETATM   27  O   UNL     1      -8.562   7.650  70.105  1.00  0.00    -0.137 OA 
HETATM   28  C   UNL     1      -7.341   7.620  70.665  1.00  0.00    -0.067 C  
HETATM   29  O   UNL     1      -7.126   6.978  71.688  1.00  0.00    -0.068 OA 
ENDBRANCH  20  26
BRANCH  23  30
HETATM   30  C   UNL     1      -6.860  11.102  68.905  1.00  0.00    -0.086 A  
HETATM   31  C   UNL     1      -6.665  13.555  69.002  1.00  0.00    -0.112 A  
HETATM   32  C   UNL     1      -7.009  12.377  68.325  1.00  0.00    -0.091 A  
HETATM   33  C   UNL     1      -6.369  14.825  68.242  1.00  0.00    -0.122 C  
HETATM   34  C   UNL     1      -6.485  13.507  70.375  1.00  0.00     0.176 A  
HETATM   35  F   UNL     1      -6.338  14.655  66.894  1.00  0.00     0.218 F  
HETATM   36  F   UNL     1      -7.267  15.815  68.490  1.00  0.00    -0.113 F  
HETATM   37  F   UNL     1      -5.145  15.325  68.577  1.00  0.00    -0.083 F  
HETATM   38  C   UNL     1      -6.434  12.276  71.017  1.00  0.00     1.705 A  
HETATM   39  C   UNL     1      -6.493  11.081  70.283  1.00  0.00    -0.074 A  
BRANCH  39  40
HETATM   40  O   UNL     1      -6.299   9.867  70.898  1.00  0.00    -0.153 OA 
HETATM   41  C   UNL     1      -5.483   9.837  72.067  1.00  0.00     0.008 C  
ENDBRANCH  39  40
ENDBRANCH  23  30
ENDBRANCH  12  15
ENDBRANCH   7   9
ENDBRANCH   2   3
TORSDOF 6
ENDMDL
MODEL      144
REMARK 921   NORMALIZED FREE ENERGY PREDICTED BY IDOCK:   19.74 KCAL/MOL
REMARK 922        TOTAL FREE ENERGY PREDICTED BY IDOCK:   25.43 KCAL/MOL
REMARK 923 INTER-LIGAND FREE ENERGY PREDICTED BY IDOCK:   10.63 KCAL/MOL
REMARK 924 INTRA-LIGAND FREE ENERGY PREDICTED BY IDOCK:   14.80 KCAL/MOL
REMARK 927      BINDING AFFINITY PREDICTED BY RF-SCORE:    0.00 PKD
ROOT
HETATM    1  C   UNL     1     -11.418   6.164  68.064  1.00  0.00     0.531 C  
HETATM    2  O   UNL     1     -11.643   7.570  68.039  1.00  0.00     0.725 OA 
ENDROOT
BRANCH   2   3
HETATM    3  C   UNL     1     -11.368   8.270  69.186  1.00  0.00     0.530 A  
HETATM    4  C   UNL     1     -11.720   7.882  70.474  1.00  0.00    -0.097 A  
HETATM    5  C   UNL     1     -11.395   8.711  71.545  1.00  0.00    -0.358 A  
HETATM    6  C   UNL     1     -10.713   9.918  71.332  1.00  0.00     0.107 A  
HETATM    7  C   UNL     1     -10.317  10.336  70.053  1.00  0.00    -0.202 A  
HETATM    8  C   UNL     1     -10.673   9.478  68.995  1.00  0.00    -0.224 A  
BRANCH   7   9
HETATM    9  N   UNL     1      -9.622  11.512  69.847  1.00  0.00     1.325 NA 
HETATM   10  C   UNL     1      -8.580  11.669  68.819  1.00  0.00    -0.019 C  
HETATM   11  C   UNL     1      -8.968  12.787  67.840  1.00  0.00    -0.186 C  
HETATM   12  N   UNL     1      -9.313  14.071  68.494  1.00  0.00    -0.203 NA 
HETATM   13  C   UNL     1     -10.141  13.947  69.732  1.00  0.00     0.832 C  
HETATM   14  C   UNL     1      -9.807  12.735  70.643  1.00  0.00     6.122 C  
BRANCH  12  15
HETATM   15  C   UNL     1      -9.126  15.331  67.916  1.00  0.00    -0.175 C  
HETATM   16  N   UNL     1      -8.603  16.248  68.699  1.00  0.00    -0.210 NA 
HETATM   17  C   UNL     1      -8.218  17.506  68.198  1.00  0.00    -0.251 A  
HETATM   18  C   UNL     1      -8.321  17.807  66.851  1.00  0.00    -0.257 A  
HETATM   19  C   UNL     1      -7.790  19.019  66.352  1.00  0.00    -0.291 A  
HETATM   20  C   UNL     1      -9.100  16.881  65.939  1.00  0.00    -0.056 C  
HETATM   21  F   UNL     1      -7.575  18.257  70.370  1.00  0.00     1.177 F  
HETATM   22  C   UNL     1      -7.244  19.972  67.202  1.00  0.00    -0.284 A  
HETATM   23  N   UNL     1      -9.511  15.587  66.584  1.00  0.00    -0.242 NA 
HETATM   24  C   UNL     1      -7.662  18.479  69.050  1.00  0.00    -0.148 A  
HETATM   25  C   UNL     1      -7.200  19.709  68.562  1.00  0.00    -0.363 A  
BRANCH  20  26
HETATM   26  C   UNL     1     -10.287  17.695  65.360  1.00  0.00     0.164 C  
HETATM   27  O   UNL     1     -11.189  18.177  67.570  1.00  0.00    -0.089 OA 
HETATM   28  C   UNL     1     -11.049  18.593  66.299  1.00  0.00     0.421 C  
HETATM   29  O   UNL     1     -11.605  19.610  65.898  1.00  0.00     0.480 OA 
ENDBRANCH  20  26
BRANCH  23  30
HETATM   30  C   UNL     1     -10.475  14.835  65.813  1.00  0.00    -0.334 A  
HETATM   31  C   UNL     1     -11.201  12.645  64.953  1.00  0.00    -0.332 A  
HETATM   32  C   UNL     1     -10.379  13.431  65.772  1.00  0.00    -0.296 A  
HETATM   33  C   UNL     1     -10.787  11.251  64.552  1.00  0.00    -0.284 C  
HETATM   34  C   UNL     1     -12.348  13.212  64.419  1.00  0.00    -0.426 A  
HETATM   35  F   UNL     1      -9.527  10.926  64.943  1.00  0.00    -0.211 F  
HETATM   36  F   UNL     1     -11.609  10.288  65.048  1.00  0.00     0.893 F  
HETATM   37  F   UNL     1     -10.801  11.103  63.197  1.00  0.00    -0.399 F  
HETATM   38  C   UNL     1     -12.546  14.583  64.522  1.00  0.00    -0.207 A  
HETATM   39  C   UNL     1     -11.568  15.409  65.099  1.00  0.00    -0.127 A  
BRANCH  39  40
HETATM   40  O   UNL     1     -11.697  16.777  65.072  1.00  0.00     0.238 OA 
HETATM   41  C   UNL     1     -10.935  17.497  64.107  1.00  0.00     3.355 C  
ENDBRANCH  39  40
ENDBRANCH  23  30
ENDBRANCH  12  15
ENDBRANCH   7   9
ENDBRANCH   2   3
TORSDOF 6
ENDMDL
MODEL      145
REMARK 921   NORMALIZED FREE ENERGY PREDICTED BY IDOCK:   21.31 KCAL/MOL
REMARK 922        TOTAL FREE ENERGY PREDICTED BY IDOCK:   27.55 KCAL/MOL
REMARK 923 INTER-LIGAND FREE ENERGY PREDICTED BY IDOCK:   20.19 KCAL/MOL
REMARK 924 INTRA-LIGAND FREE ENERGY PREDICTED BY IDOCK:    7.36 KCAL/MOL
REMARK 927      BINDING AFFINITY PREDICTED BY RF-SCORE:    0.00 PKD
ROOT
HETATM    1  C   UNL     1      -8.483   2.893  65.340  1.00  0.00    -0.102 C  
HETATM    2  O   UNL     1      -9.806   3.243  64.947  1.00  0.00    -0.143 OA 
ENDROOT
BRANCH   2   3
HETATM    3  C   UNL     1     -10.001   4.513  64.466  1.00  0.00     0.055 A  
HETATM    4  C   UNL     1     -10.962   4.888  63.535  1.00  0.00     1.561 A  
HETATM    5  C   UNL     1     -11.024   6.215  63.118  1.00  0.00     7.590 A  
HETATM    6  C   UNL     1     -10.134   7.168  63.637  1.00  0.00     6.774 A  
HETATM    7  C   UNL     1      -9.165   6.839  64.597  1.00  0.00     1.249 A  
HETATM    8  C   UNL     1      -9.126   5.486  64.984  1.00  0.00     0.072 A  
BRANCH   7   9
HETATM    9  N   UNL     1      -8.307   7.783  65.126  1.00  0.00    -0.133 NA 
HETATM   10  C   UNL     1      -8.371   9.215  64.790  1.00  0.00    -0.169 C  
HETATM   11  C   UNL     1      -8.613  10.045  66.060  1.00  0.00    -0.138 C  
HETATM   12  N   UNL     1      -7.658   9.765  67.158  1.00  0.00    -0.092 NA 
HETATM   13  C   UNL     1      -7.328   8.321  67.354  1.00  0.00    -0.092 C  
HETATM   14  C   UNL     1      -7.209   7.478  66.056  1.00  0.00    -0.070 C  
BRANCH  12  15
HETATM   15  C   UNL     1      -7.262  10.698  68.122  1.00  0.00    -0.086 C  
HETATM   16  N   UNL     1      -6.674  11.780  67.664  1.00  0.00    -0.082 NA 
HETATM   17  C   UNL     1      -6.372  12.863  68.511  1.00  0.00    -0.079 A  
HETATM   18  C   UNL     1      -6.733  12.855  69.847  1.00  0.00     0.240 A  
HETATM   19  C   UNL     1      -6.552  14.013  70.638  1.00  0.00     0.208 A  
HETATM   20  C   UNL     1      -7.220  11.567  70.479  1.00  0.00     1.989 C  
HETATM   21  F   UNL     1      -5.332  14.062  66.729  1.00  0.00     0.782 F  
HETATM   22  C   UNL     1      -5.926  15.144  70.130  1.00  0.00    -0.145 A  
HETATM   23  N   UNL     1      -7.463  10.455  69.497  1.00  0.00    -0.134 NA 
HETATM   24  C   UNL     1      -5.739  14.015  68.007  1.00  0.00    -0.130 A  
HETATM   25  C   UNL     1      -5.497  15.136  68.811  1.00  0.00    -0.091 A  
BRANCH  20  26
HETATM   26  C   UNL     1      -6.220  11.198  71.605  1.00  0.00     1.535 C  
HETATM   27  O   UNL     1      -5.352  13.469  71.742  1.00  0.00    -0.188 OA 
HETATM   28  C   UNL     1      -5.605  12.323  72.397  1.00  0.00     1.074 C  
HETATM   29  O   UNL     1      -5.257  12.166  73.562  1.00  0.00    -0.238 OA 
ENDBRANCH  20  26
BRANCH  23  30
HETATM   30  C   UNL     1      -7.660   9.165  70.118  1.00  0.00    -0.093 A  
HETATM   31  C   UNL     1      -6.991   6.799  70.261  1.00  0.00    -0.066 A  
HETATM   32  C   UNL     1      -6.791   8.105  69.794  1.00  0.00    -0.040 A  
HETATM   33  C   UNL     1      -6.377   5.620  69.548  1.00  0.00    -0.037 C  
HETATM   34  C   UNL     1      -7.861   6.597  71.321  1.00  0.00    -0.102 A  
HETATM   35  F   UNL     1      -5.761   5.952  68.383  1.00  0.00    -0.009 F  
HETATM   36  F   UNL     1      -5.455   4.963  70.302  1.00  0.00    -0.008 F  
HETATM   37  F   UNL     1      -7.324   4.698  69.213  1.00  0.00    -0.050 F  
HETATM   38  C   UNL     1      -8.671   7.640  71.752  1.00  0.00    -0.137 A  
HETATM   39  C   UNL     1      -8.668   8.874  71.084  1.00  0.00    -0.222 A  
BRANCH  39  40
HETATM   40  O   UNL     1      -9.569   9.858  71.416  1.00  0.00     0.251 OA 
HETATM   41  C   UNL     1     -10.912   9.464  71.686  1.00  0.00    -0.312 C  
ENDBRANCH  39  40
ENDBRANCH  23  30
ENDBRANCH  12  15
ENDBRANCH   7   9
ENDBRANCH   2   3
TORSDOF 6
ENDMDL
MODEL      146
REMARK 921   NORMALIZED FREE ENERGY PREDICTED BY IDOCK:   21.49 KCAL/MOL
REMARK 922        TOTAL FREE ENERGY PREDICTED BY IDOCK:   27.80 KCAL/MOL
REMARK 923 INTER-LIGAND FREE ENERGY PREDICTED BY IDOCK:   22.34 KCAL/MOL
REMARK 924 INTRA-LIGAND FREE ENERGY PREDICTED BY IDOCK:    5.45 KCAL/MOL
REMARK 927      BINDING AFFINITY PREDICTED BY RF-SCORE:    0.00 PKD
ROOT
HETATM    1  C   UNL     1      -8.601  19.993  72.774  1.00  0.00     3.427 C  
HETATM    2  O   UNL     1      -9.195  18.741  72.447  1.00  0.00     7.310 OA 
ENDROOT
BRANCH   2   3
HETATM    3  C   UNL     1      -9.753  18.619  71.200  1.00  0.00     4.178 A  
HETATM    4  C   UNL     1      -9.733  19.590  70.206  1.00  0.00     0.847 A  
HETATM    5  C   UNL     1     -10.368  19.335  68.994  1.00  0.00    -0.105 A  
HETATM    6  C   UNL     1     -11.014  18.109  68.771  1.00  0.00     0.661 A  
HETATM    7  C   UNL     1     -11.038  17.091  69.736  1.00  0.00     0.320 A  
HETATM    8  C   UNL     1     -10.395  17.392  70.953  1.00  0.00     2.223 A  
BRANCH   7   9
HETATM    9  N   UNL     1     -11.651  15.876  69.506  1.00  0.00    -0.338 NA 
HETATM   10  C   UNL     1     -11.730  15.246  68.178  1.00  0.00    -0.279 C  
HETATM   11  C   UNL     1     -11.047  13.871  68.203  1.00  0.00    -0.256 C  
HETATM   12  N   UNL     1     -11.529  12.976  69.281  1.00  0.00    -0.288 NA 
HETATM   13  C   UNL     1     -11.749  13.640  70.602  1.00  0.00    -0.024 C  
HETATM   14  C   UNL     1     -12.328  15.079  70.540  1.00  0.00    -0.356 C  
BRANCH  12  15
HETATM   15  C   UNL     1     -11.553  11.579  69.201  1.00  0.00    -0.316 C  
HETATM   16  N   UNL     1     -11.950  10.951  70.285  1.00  0.00    -0.329 NA 
HETATM   17  C   UNL     1     -12.171   9.561  70.285  1.00  0.00     0.152 A  
HETATM   18  C   UNL     1     -12.032   8.809  69.132  1.00  0.00     1.673 A  
HETATM   19  C   UNL     1     -12.403   7.444  69.125  1.00  0.00     2.326 A  
HETATM   20  C   UNL     1     -11.381   9.430  67.912  1.00  0.00     0.514 C  
HETATM   21  F   UNL     1     -12.707   9.572  72.611  1.00  0.00    -0.389 F  
HETATM   22  C   UNL     1     -12.819   6.804  70.285  1.00  0.00     0.814 A  
HETATM   23  N   UNL     1     -11.140  10.908  68.032  1.00  0.00    -0.270 NA 
HETATM   24  C   UNL     1     -12.594   8.901  71.455  1.00  0.00    -0.300 A  
HETATM   25  C   UNL     1     -12.894   7.532  71.462  1.00  0.00    -0.397 A  
BRANCH  20  26
HETATM   26  C   UNL     1     -10.100   8.610  67.605  1.00  0.00    -0.271 C  
HETATM   27  O   UNL     1     -11.030   6.573  68.563  1.00  0.00    -0.278 OA 
HETATM   28  C   UNL     1     -10.198   7.108  67.653  1.00  0.00    -0.198 C  
HETATM   29  O   UNL     1      -9.475   6.400  66.961  1.00  0.00    -0.130 OA 
ENDBRANCH  20  26
BRANCH  23  30
HETATM   30  C   UNL     1     -10.282  11.442  66.997  1.00  0.00    -0.213 A  
HETATM   31  C   UNL     1      -8.024  12.163  66.332  1.00  0.00     0.263 A  
HETATM   32  C   UNL     1      -8.899  11.546  67.237  1.00  0.00    -0.160 A  
HETATM   33  C   UNL     1      -6.687  12.694  66.787  1.00  0.00     0.600 C  
HETATM   34  C   UNL     1      -8.456  12.384  65.033  1.00  0.00     1.959 A  
HETATM   35  F   UNL     1      -6.510  12.632  68.133  1.00  0.00    -0.060 F  
HETATM   36  F   UNL     1      -5.635  12.041  66.225  1.00  0.00    -0.050 F  
HETATM   37  F   UNL     1      -6.541  14.009  66.458  1.00  0.00     1.128 F  
HETATM   38  C   UNL     1      -9.795  12.196  64.714  1.00  0.00    -0.157 A  
HETATM   39  C   UNL     1     -10.727  11.851  65.706  1.00  0.00    -0.284 A  
BRANCH  39  40
HETATM   40  O   UNL     1     -12.071  11.805  65.423  1.00  0.00    -0.296 OA 
HETATM   41  C   UNL     1     -12.468  11.932  64.060  1.00  0.00    -0.313 C  
ENDBRANCH  39  40
ENDBRANCH  23  30
ENDBRANCH  12  15
ENDBRANCH   7   9
ENDBRANCH   2   3
TORSDOF 6
ENDMDL
MODEL      147
REMARK 921   NORMALIZED FREE ENERGY PREDICTED BY IDOCK:   22.48 KCAL/MOL
REMARK 922        TOTAL FREE ENERGY PREDICTED BY IDOCK:   29.12 KCAL/MOL
REMARK 923 INTER-LIGAND FREE ENERGY PREDICTED BY IDOCK:   29.63 KCAL/MOL
REMARK 924 INTRA-LIGAND FREE ENERGY PREDICTED BY IDOCK:   -0.50 KCAL/MOL
REMARK 927      BINDING AFFINITY PREDICTED BY RF-SCORE:    0.00 PKD
ROOT
HETATM    1  C   UNL     1     -11.741   3.265  71.424  1.00  0.00     5.350 C  
HETATM    2  O   UNL     1     -12.421   3.946  72.474  1.00  0.00     1.592 OA 
ENDROOT
BRANCH   2   3
HETATM    3  C   UNL     1     -11.895   5.144  72.887  1.00  0.00    -0.064 A  
HETATM    4  C   UNL     1     -12.275   5.844  74.025  1.00  0.00     4.271 A  
HETATM    5  C   UNL     1     -11.670   7.067  74.304  1.00  0.00     4.350 A  
HETATM    6  C   UNL     1     -10.682   7.584  73.453  1.00  0.00    -0.387 A  
HETATM    7  C   UNL     1     -10.251   6.900  72.306  1.00  0.00    -0.186 A  
HETATM    8  C   UNL     1     -10.894   5.674  72.052  1.00  0.00    -0.300 A  
BRANCH   7   9
HETATM    9  N   UNL     1      -9.260   7.398  71.484  1.00  0.00    -0.140 NA 
HETATM   10  C   UNL     1      -8.131   6.590  70.994  1.00  0.00    -0.120 C  
HETATM   11  C   UNL     1      -8.131   6.557  69.459  1.00  0.00    -0.118 C  
HETATM   12  N   UNL     1      -8.184   7.896  68.824  1.00  0.00    -0.126 NA 
HETATM   13  C   UNL     1      -9.116   8.865  69.474  1.00  0.00    -0.146 C  
HETATM   14  C   UNL     1      -9.187   8.793  71.023  1.00  0.00    -0.222 C  
BRANCH  12  15
HETATM   15  C   UNL     1      -7.628   8.206  67.579  1.00  0.00    -0.101 C  
HETATM   16  N   UNL     1      -7.430   9.483  67.343  1.00  0.00    -0.091 NA 
HETATM   17  C   UNL     1      -6.734   9.917  66.199  1.00  0.00    -0.092 A  
HETATM   18  C   UNL     1      -6.181   9.014  65.306  1.00  0.00    -0.063 A  
HETATM   19  C   UNL     1      -5.361   9.473  64.249  1.00  0.00    -0.061 A  
HETATM   20  C   UNL     1      -6.548   7.548  65.408  1.00  0.00    -0.045 C  
HETATM   21  F   UNL     1      -7.080  12.209  66.767  1.00  0.00    -0.129 F  
HETATM   22  C   UNL     1      -5.170  10.830  64.021  1.00  0.00    -0.108 A  
HETATM   23  N   UNL     1      -7.336   7.196  66.639  1.00  0.00    -0.082 NA 
HETATM   24  C   UNL     1      -6.533  11.289  65.957  1.00  0.00     0.095 A  
HETATM   25  C   UNL     1      -5.778  11.744  64.867  1.00  0.00     2.687 A  
BRANCH  20  26
HETATM   26  C   UNL     1      -7.251   7.155  64.082  1.00  0.00    -0.069 C  
HETATM   27  O   UNL     1      -9.328   8.256  64.720  1.00  0.00     0.522 OA 
HETATM   28  C   UNL     1      -8.517   7.886  63.715  1.00  0.00     0.207 C  
HETATM   29  O   UNL     1      -8.843   8.046  62.543  1.00  0.00     0.074 OA 
ENDBRANCH  20  26
BRANCH  23  30
HETATM   30  C   UNL     1      -7.914   5.872  66.599  1.00  0.00    -0.102 A  
HETATM   31  C   UNL     1      -9.949   4.490  66.490  1.00  0.00    -0.263 A  
HETATM   32  C   UNL     1      -9.303   5.732  66.418  1.00  0.00    -0.168 A  
HETATM   33  C   UNL     1     -11.428   4.403  66.778  1.00  0.00     4.104 C  
HETATM   34  C   UNL     1      -9.186   3.336  66.409  1.00  0.00    -0.161 A  
HETATM   35  F   UNL     1     -11.991   5.601  67.084  1.00  0.00     1.160 F  
HETATM   36  F   UNL     1     -12.143   3.889  65.742  1.00  0.00     2.678 F  
HETATM   37  F   UNL     1     -11.674   3.597  67.850  1.00  0.00     6.073 F  
HETATM   38  C   UNL     1      -7.801   3.424  66.478  1.00  0.00    -0.081 A  
HETATM   39  C   UNL     1      -7.170   4.658  66.696  1.00  0.00    -0.080 A  
BRANCH  39  40
HETATM   40  O   UNL     1      -5.814   4.729  66.908  1.00  0.00    -0.024 OA 
HETATM   41  C   UNL     1      -5.132   3.525  67.252  1.00  0.00    -0.008 C  
ENDBRANCH  39  40
ENDBRANCH  23  30
ENDBRANCH  12  15
ENDBRANCH   7   9
ENDBRANCH   2   3
TORSDOF 6
ENDMDL
MODEL      148
REMARK 921   NORMALIZED FREE ENERGY PREDICTED BY IDOCK:   23.30 KCAL/MOL
REMARK 922        TOTAL FREE ENERGY PREDICTED BY IDOCK:   30.23 KCAL/MOL
REMARK 923 INTER-LIGAND FREE ENERGY PREDICTED BY IDOCK:   20.07 KCAL/MOL
REMARK 924 INTRA-LIGAND FREE ENERGY PREDICTED BY IDOCK:   10.16 KCAL/MOL
REMARK 927      BINDING AFFINITY PREDICTED BY RF-SCORE:    0.00 PKD
ROOT
HETATM    1  C   UNL     1      -8.483   2.893  65.340  1.00  0.00    -0.102 C  
HETATM    2  O   UNL     1      -9.803   3.243  64.934  1.00  0.00    -0.143 OA 
ENDROOT
BRANCH   2   3
HETATM    3  C   UNL     1      -9.993   4.513  64.452  1.00  0.00     0.092 A  
HETATM    4  C   UNL     1     -10.946   4.887  63.513  1.00  0.00     1.561 A  
HETATM    5  C   UNL     1     -11.005   6.214  63.096  1.00  0.00     7.590 A  
HETATM    6  C   UNL     1     -10.121   7.167  63.623  1.00  0.00     6.774 A  
HETATM    7  C   UNL     1      -9.160   6.839  64.592  1.00  0.00     0.976 A  
HETATM    8  C   UNL     1      -9.124   5.486  64.979  1.00  0.00     0.072 A  
BRANCH   7   9
HETATM    9  N   UNL     1      -8.308   7.783  65.129  1.00  0.00    -0.133 NA 
HETATM   10  C   UNL     1      -8.369   9.215  64.793  1.00  0.00    -0.169 C  
HETATM   11  C   UNL     1      -8.623  10.045  66.061  1.00  0.00    -0.138 C  
HETATM   12  N   UNL     1      -7.679   9.765  67.167  1.00  0.00    -0.095 NA 
HETATM   13  C   UNL     1      -7.350   8.321  67.366  1.00  0.00    -0.092 C  
HETATM   14  C   UNL     1      -7.218   7.478  66.069  1.00  0.00    -0.070 C  
BRANCH  12  15
HETATM   15  C   UNL     1      -7.292  10.697  68.136  1.00  0.00    -0.088 C  
HETATM   16  N   UNL     1      -6.700  11.780  67.684  1.00  0.00    -0.082 NA 
HETATM   17  C   UNL     1      -6.407  12.863  68.534  1.00  0.00    -0.079 A  
HETATM   18  C   UNL     1      -6.780  12.854  69.867  1.00  0.00     0.240 A  
HETATM   19  C   UNL     1      -6.607  14.013  70.660  1.00  0.00     0.208 A  
HETATM   20  C   UNL     1      -7.273  11.566  70.493  1.00  0.00     1.989 C  
HETATM   21  F   UNL     1      -5.351  14.063  66.762  1.00  0.00     0.782 F  
HETATM   22  C   UNL     1      -5.977  15.144  70.157  1.00  0.00    -0.145 A  
HETATM   23  N   UNL     1      -7.506  10.455  69.509  1.00  0.00    -0.134 NA 
HETATM   24  C   UNL     1      -5.770  14.016  68.036  1.00  0.00    -0.130 A  
HETATM   25  C   UNL     1      -5.536  15.137  68.843  1.00  0.00    -0.098 A  
BRANCH  20  26
HETATM   26  C   UNL     1      -6.283  11.197  71.629  1.00  0.00     1.535 C  
HETATM   27  O   UNL     1      -5.256  13.405  71.613  1.00  0.00    -0.167 OA 
HETATM   28  C   UNL     1      -5.578  12.322  72.341  1.00  0.00     1.074 C  
HETATM   29  O   UNL     1      -5.223  12.214  73.509  1.00  0.00    -0.238 OA 
ENDBRANCH  20  26
BRANCH  23  30
HETATM   30  C   UNL     1      -7.708   9.164  70.127  1.00  0.00    -0.105 A  
HETATM   31  C   UNL     1      -8.936   7.817  71.783  1.00  0.00    -0.155 A  
HETATM   32  C   UNL     1      -8.755   9.001  71.055  1.00  0.00    -0.280 A  
HETATM   33  C   UNL     1      -9.715   7.816  73.075  1.00  0.00    -0.267 C  
HETATM   34  C   UNL     1      -8.289   6.667  71.357  1.00  0.00    -0.120 A  
HETATM   35  F   UNL     1     -10.074   9.058  73.493  1.00  0.00     0.829 F  
HETATM   36  F   UNL     1     -10.859   7.083  73.006  1.00  0.00    -0.245 F  
HETATM   37  F   UNL     1      -8.980   7.283  74.092  1.00  0.00    -0.196 F  
HETATM   38  C   UNL     1      -7.317   6.753  70.368  1.00  0.00    -0.081 A  
HETATM   39  C   UNL     1      -6.936   7.998  69.843  1.00  0.00    -0.045 A  
BRANCH  39  40
HETATM   40  O   UNL     1      -5.878   8.101  68.972  1.00  0.00    -0.033 OA 
HETATM   41  C   UNL     1      -5.202   6.901  68.604  1.00  0.00    -0.016 C  
ENDBRANCH  39  40
ENDBRANCH  23  30
ENDBRANCH  12  15
ENDBRANCH   7   9
ENDBRANCH   2   3
TORSDOF 6
ENDMDL
MODEL      149
REMARK 921   NORMALIZED FREE ENERGY PREDICTED BY IDOCK:   24.15 KCAL/MOL
REMARK 922        TOTAL FREE ENERGY PREDICTED BY IDOCK:   31.38 KCAL/MOL
REMARK 923 INTER-LIGAND FREE ENERGY PREDICTED BY IDOCK:   31.83 KCAL/MOL
REMARK 924 INTRA-LIGAND FREE ENERGY PREDICTED BY IDOCK:   -0.45 KCAL/MOL
REMARK 927      BINDING AFFINITY PREDICTED BY RF-SCORE:    0.00 PKD
ROOT
HETATM    1  C   UNL     1      -6.604   8.904  62.999  1.00  0.00    -0.090 C  
HETATM    2  O   UNL     1      -7.367   9.454  64.068  1.00  0.00    -0.100 OA 
ENDROOT
BRANCH   2   3
HETATM    3  C   UNL     1      -8.531  10.101  63.739  1.00  0.00    -0.181 A  
HETATM    4  C   UNL     1      -9.237   9.941  62.553  1.00  0.00    -0.307 A  
HETATM    5  C   UNL     1     -10.394  10.687  62.345  1.00  0.00     0.706 A  
HETATM    6  C   UNL     1     -10.849  11.585  63.323  1.00  0.00    -0.342 A  
HETATM    7  C   UNL     1     -10.182  11.760  64.544  1.00  0.00    -0.284 A  
HETATM    8  C   UNL     1      -9.010  10.996  64.712  1.00  0.00    -0.101 A  
BRANCH   7   9
HETATM    9  N   UNL     1     -10.645  12.624  65.516  1.00  0.00    -0.270 NA 
HETATM   10  C   UNL     1     -12.073  12.900  65.741  1.00  0.00    -0.457 C  
HETATM   11  C   UNL     1     -12.466  12.519  67.176  1.00  0.00     0.847 C  
HETATM   12  N   UNL     1     -11.604  13.121  68.220  1.00  0.00    -0.312 NA 
HETATM   13  C   UNL     1     -10.143  13.130  67.904  1.00  0.00    -0.232 C  
HETATM   14  C   UNL     1      -9.780  13.398  66.419  1.00  0.00    -0.277 C  
BRANCH  12  15
HETATM   15  C   UNL     1     -12.029  13.439  69.514  1.00  0.00    -0.319 C  
HETATM   16  N   UNL     1     -12.274  14.711  69.739  1.00  0.00    -0.315 NA 
HETATM   17  C   UNL     1     -12.858  15.141  70.946  1.00  0.00    -0.419 A  
HETATM   18  C   UNL     1     -13.249  14.238  71.920  1.00  0.00    -0.456 A  
HETATM   19  C   UNL     1     -13.967  14.683  73.054  1.00  0.00     0.209 A  
HETATM   20  C   UNL     1     -12.809  12.792  71.813  1.00  0.00    -0.237 C  
HETATM   21  F   UNL     1     -12.718  17.429  70.283  1.00  0.00     4.381 F  
HETATM   22  C   UNL     1     -14.211  16.033  73.268  1.00  0.00     0.537 A  
HETATM   23  N   UNL     1     -12.149  12.446  70.508  1.00  0.00    -0.345 NA 
HETATM   24  C   UNL     1     -13.112  16.507  71.174  1.00  0.00     2.671 A  
HETATM   25  C   UNL     1     -13.761  16.953  72.333  1.00  0.00     3.655 A  
BRANCH  20  26
HETATM   26  C   UNL     1     -11.935  12.482  73.056  1.00  0.00     5.643 C  
HETATM   27  O   UNL     1     -10.173  14.006  72.344  1.00  0.00     4.983 OA 
HETATM   28  C   UNL     1     -10.810  13.432  73.378  1.00  0.00     9.067 C  
HETATM   29  O   UNL     1     -10.425  13.595  74.531  1.00  0.00     6.034 OA 
ENDBRANCH  20  26
BRANCH  23  30
HETATM   30  C   UNL     1     -11.493  11.158  70.512  1.00  0.00    -0.065 A  
HETATM   31  C   UNL     1      -9.496   9.836  69.936  1.00  0.00    -0.264 A  
HETATM   32  C   UNL     1     -10.158  11.064  70.074  1.00  0.00     0.659 A  
HETATM   33  C   UNL     1      -8.292   9.703  69.037  1.00  0.00    -0.122 C  
HETATM   34  C   UNL     1     -10.037   8.716  70.548  1.00  0.00    -0.228 A  
HETATM   35  F   UNL     1      -8.033  10.821  68.310  1.00  0.00    -0.102 F  
HETATM   36  F   UNL     1      -7.152   9.406  69.715  1.00  0.00    -0.052 F  
HETATM   37  F   UNL     1      -8.466   8.704  68.126  1.00  0.00    -0.124 F  
HETATM   38  C   UNL     1     -11.313   8.780  71.092  1.00  0.00    -0.345 A  
HETATM   39  C   UNL     1     -12.088   9.945  70.969  1.00  0.00    -0.358 A  
BRANCH  39  40
HETATM   40  O   UNL     1     -13.400   9.965  71.378  1.00  0.00    -0.383 OA 
HETATM   41  C   UNL     1     -13.779   9.087  72.435  1.00  0.00    -0.479 C  
ENDBRANCH  39  40
ENDBRANCH  23  30
ENDBRANCH  12  15
ENDBRANCH   7   9
ENDBRANCH   2   3
TORSDOF 6
ENDMDL
MODEL      150
REMARK 921   NORMALIZED FREE ENERGY PREDICTED BY IDOCK:   24.17 KCAL/MOL
REMARK 922        TOTAL FREE ENERGY PREDICTED BY IDOCK:   31.41 KCAL/MOL
REMARK 923 INTER-LIGAND FREE ENERGY PREDICTED BY IDOCK:    6.40 KCAL/MOL
REMARK 924 INTRA-LIGAND FREE ENERGY PREDICTED BY IDOCK:   25.01 KCAL/MOL
REMARK 927      BINDING AFFINITY PREDICTED BY RF-SCORE:    0.00 PKD
ROOT
HETATM    1  C   UNL     1      -7.373   3.838  68.433  1.00  0.00    -0.054 C  
HETATM    2  O   UNL     1      -8.601   4.092  67.758  1.00  0.00    -0.097 OA 
ENDROOT
BRANCH   2   3
HETATM    3  C   UNL     1      -9.350   5.153  68.200  1.00  0.00    -0.122 A  
HETATM    4  C   UNL     1     -10.612   5.068  68.776  1.00  0.00     0.083 A  
HETATM    5  C   UNL     1     -11.267   6.237  69.153  1.00  0.00    -0.439 A  
HETATM    6  C   UNL     1     -10.660   7.488  68.964  1.00  0.00    -0.190 A  
HETATM    7  C   UNL     1      -9.378   7.619  68.409  1.00  0.00    -0.146 A  
HETATM    8  C   UNL     1      -8.753   6.415  68.030  1.00  0.00    -0.115 A  
BRANCH   7   9
HETATM    9  N   UNL     1      -8.771   8.848  68.247  1.00  0.00    -0.134 NA 
HETATM   10  C   UNL     1      -9.494  10.061  67.830  1.00  0.00    -0.144 C  
HETATM   11  C   UNL     1      -9.361  11.151  68.904  1.00  0.00    -0.106 C  
HETATM   12  N   UNL     1      -7.964  11.438  69.305  1.00  0.00     0.057 NA 
HETATM   13  C   UNL     1      -7.092  10.234  69.461  1.00  0.00    -0.107 C  
HETATM   14  C   UNL     1      -7.333   9.095  68.434  1.00  0.00    -0.078 C  
BRANCH  12  15
HETATM   15  C   UNL     1      -7.508  12.680  69.760  1.00  0.00     1.043 C  
HETATM   16  N   UNL     1      -7.191  12.742  71.034  1.00  0.00     3.231 NA 
HETATM   17  C   UNL     1      -6.572  13.882  71.579  1.00  0.00     1.393 A  
HETATM   18  C   UNL     1      -6.221  14.961  70.785  1.00  0.00     0.027 A  
HETATM   19  C   UNL     1      -5.468  16.027  71.330  1.00  0.00     0.162 A  
HETATM   20  C   UNL     1      -6.741  15.039  69.364  1.00  0.00    -0.158 C  
HETATM   21  F   UNL     1      -6.593  12.936  73.770  1.00  0.00     2.028 F  
HETATM   22  C   UNL     1      -5.148  16.068  72.680  1.00  0.00     1.283 A  
HETATM   23  N   UNL     1      -7.432  13.790  68.894  1.00  0.00    -0.093 NA 
HETATM   24  C   UNL     1      -6.241  13.935  72.946  1.00  0.00     1.214 A  
HETATM   25  C   UNL     1      -5.556  15.026  73.498  1.00  0.00     0.508 A  
BRANCH  20  26
HETATM   26  C   UNL     1      -7.618  16.314  69.263  1.00  0.00    -0.203 C  
HETATM   27  O   UNL     1      -9.419  15.130  68.130  1.00  0.00    -0.196 OA 
HETATM   28  C   UNL     1      -9.081  16.139  68.951  1.00  0.00    -0.246 C  
HETATM   29  O   UNL     1      -9.918  16.942  69.348  1.00  0.00    -0.214 OA 
ENDBRANCH  20  26
BRANCH  23  30
HETATM   30  C   UNL     1      -8.159  13.960  67.656  1.00  0.00    -0.177 A  
HETATM   31  C   UNL     1      -9.354  12.902  65.781  1.00  0.00     0.098 A  
HETATM   32  C   UNL     1      -8.741  12.836  67.039  1.00  0.00    -0.197 A  
HETATM   33  C   UNL     1      -9.529  11.662  64.939  1.00  0.00    -0.085 C  
HETATM   34  C   UNL     1      -9.694  14.145  65.270  1.00  0.00    -0.060 A  
HETATM   35  F   UNL     1      -8.922  10.564  65.461  1.00  0.00    -0.163 F  
HETATM   36  F   UNL     1     -10.833  11.331  64.742  1.00  0.00    -0.354 F  
HETATM   37  F   UNL     1      -8.985  11.828  63.699  1.00  0.00    -0.003 F  
HETATM   38  C   UNL     1      -9.232  15.295  65.899  1.00  0.00    -0.236 A  
HETATM   39  C   UNL     1      -8.371  15.211  67.005  1.00  0.00    -0.231 A  
BRANCH  39  40
HETATM   40  O   UNL     1      -7.799  16.341  67.539  1.00  0.00    -0.135 OA 
HETATM   41  C   UNL     1      -7.379  17.362  66.638  1.00  0.00    -0.247 C  
ENDBRANCH  39  40
ENDBRANCH  23  30
ENDBRANCH  12  15
ENDBRANCH   7   9
ENDBRANCH   2   3
TORSDOF 6
ENDMDL
MODEL      151
REMARK 921   NORMALIZED FREE ENERGY PREDICTED BY IDOCK:   25.37 KCAL/MOL
REMARK 922        TOTAL FREE ENERGY PREDICTED BY IDOCK:   33.03 KCAL/MOL
REMARK 923 INTER-LIGAND FREE ENERGY PREDICTED BY IDOCK:   34.08 KCAL/MOL
REMARK 924 INTRA-LIGAND FREE ENERGY PREDICTED BY IDOCK:   -1.05 KCAL/MOL
REMARK 927      BINDING AFFINITY PREDICTED BY RF-SCORE:    0.00 PKD
ROOT
HETATM    1  C   UNL     1     -13.823  20.484  68.277  1.00  0.00     6.955 C  
HETATM    2  O   UNL     1     -13.508  19.237  67.665  1.00  0.00     5.253 OA 
ENDROOT
BRANCH   2   3
HETATM    3  C   UNL     1     -12.198  19.023  67.318  1.00  0.00     3.454 A  
HETATM    4  C   UNL     1     -11.155  19.922  67.502  1.00  0.00    -0.036 A  
HETATM    5  C   UNL     1      -9.876  19.577  67.074  1.00  0.00    -0.469 A  
HETATM    6  C   UNL     1      -9.637  18.332  66.472  1.00  0.00    -0.320 A  
HETATM    7  C   UNL     1     -10.655  17.384  66.289  1.00  0.00    -0.194 A  
HETATM    8  C   UNL     1     -11.936  17.775  66.724  1.00  0.00     3.151 A  
BRANCH   7   9
HETATM    9  N   UNL     1     -10.414  16.149  65.720  1.00  0.00    -0.358 NA 
HETATM   10  C   UNL     1      -9.083  15.709  65.271  1.00  0.00     0.964 C  
HETATM   11  C   UNL     1      -8.666  14.435  66.021  1.00  0.00     0.629 C  
HETATM   12  N   UNL     1      -9.668  13.345  65.966  1.00  0.00    -0.253 NA 
HETATM   13  C   UNL     1     -11.087  13.784  66.127  1.00  0.00    -0.296 C  
HETATM   14  C   UNL     1     -11.450  15.138  65.460  1.00  0.00    -0.213 C  
BRANCH  12  15
HETATM   15  C   UNL     1      -9.360  11.982  66.015  1.00  0.00    -0.190 C  
HETATM   16  N   UNL     1      -9.358  11.354  64.861  1.00  0.00    -0.169 NA 
HETATM   17  C   UNL     1      -8.911  10.023  64.753  1.00  0.00    -0.195 A  
HETATM   18  C   UNL     1      -8.405   9.342  65.846  1.00  0.00    -0.122 A  
HETATM   19  C   UNL     1      -7.826   8.062  65.680  1.00  0.00    -0.104 A  
HETATM   20  C   UNL     1      -8.572   9.930  67.233  1.00  0.00    -0.125 C  
HETATM   21  F   UNL     1      -9.432   9.960  62.425  1.00  0.00    -0.279 F  
HETATM   22  C   UNL     1      -7.837   7.420  64.448  1.00  0.00    -0.127 A  
HETATM   23  N   UNL     1      -9.105  11.335  67.243  1.00  0.00    -0.154 NA 
HETATM   24  C   UNL     1      -8.916   9.362  63.510  1.00  0.00    -0.115 A  
HETATM   25  C   UNL     1      -8.406   8.065  63.361  1.00  0.00     0.041 A  
BRANCH  20  26
HETATM   26  C   UNL     1      -9.428   8.932  68.057  1.00  0.00    -0.158 C  
HETATM   27  O   UNL     1      -7.537   7.446  68.442  1.00  0.00    -0.108 OA 
HETATM   28  C   UNL     1      -8.704   7.923  68.909  1.00  0.00    -0.135 C  
HETATM   29  O   UNL     1      -9.206   7.478  69.935  1.00  0.00    -0.148 OA 
ENDBRANCH  20  26
BRANCH  23  30
HETATM   30  C   UNL     1      -9.519  11.790  68.551  1.00  0.00    -0.163 A  
HETATM   31  C   UNL     1     -11.346  12.061  70.179  1.00  0.00     0.057 A  
HETATM   32  C   UNL     1     -10.838  11.547  68.978  1.00  0.00    -0.258 A  
HETATM   33  C   UNL     1     -12.833  12.211  70.388  1.00  0.00     0.242 C  
HETATM   34  C   UNL     1     -10.457  12.541  71.128  1.00  0.00     6.406 A  
HETATM   35  F   UNL     1     -13.567  11.936  69.278  1.00  0.00     2.012 F  
HETATM   36  F   UNL     1     -13.314  11.415  71.380  1.00  0.00    -0.430 F  
HETATM   37  F   UNL     1     -13.155  13.490  70.735  1.00  0.00    -0.312 F  
HETATM   38  C   UNL     1      -9.118  12.704  70.792  1.00  0.00     8.879 A  
HETATM   39  C   UNL     1      -8.670  12.454  69.486  1.00  0.00     1.583 A  
BRANCH  39  40
HETATM   40  O   UNL     1      -7.381  12.751  69.114  1.00  0.00    -0.006 OA 
HETATM   41  C   UNL     1      -6.323  12.067  69.782  1.00  0.00    -0.110 C  
ENDBRANCH  39  40
ENDBRANCH  23  30
ENDBRANCH  12  15
ENDBRANCH   7   9
ENDBRANCH   2   3
TORSDOF 6
ENDMDL
MODEL      152
REMARK 921   NORMALIZED FREE ENERGY PREDICTED BY IDOCK:   25.91 KCAL/MOL
REMARK 922        TOTAL FREE ENERGY PREDICTED BY IDOCK:   33.76 KCAL/MOL
REMARK 923 INTER-LIGAND FREE ENERGY PREDICTED BY IDOCK:    1.27 KCAL/MOL
REMARK 924 INTRA-LIGAND FREE ENERGY PREDICTED BY IDOCK:   32.49 KCAL/MOL
REMARK 927      BINDING AFFINITY PREDICTED BY RF-SCORE:    0.00 PKD
ROOT
HETATM    1  C   UNL     1      -8.364   4.566  69.370  1.00  0.00    -0.070 C  
HETATM    2  O   UNL     1      -8.142   4.114  70.702  1.00  0.00    -0.058 OA 
ENDROOT
BRANCH   2   3
HETATM    3  C   UNL     1      -8.960   4.622  71.680  1.00  0.00    -0.133 A  
HETATM    4  C   UNL     1      -9.393   3.937  72.808  1.00  0.00    -0.145 A  
HETATM    5  C   UNL     1     -10.246   4.575  73.705  1.00  0.00    -0.220 A  
HETATM    6  C   UNL     1     -10.657   5.898  73.479  1.00  0.00    -0.289 A  
HETATM    7  C   UNL     1     -10.225   6.635  72.367  1.00  0.00    -0.180 A  
HETATM    8  C   UNL     1      -9.373   5.951  71.478  1.00  0.00    -0.160 A  
BRANCH   7   9
HETATM    9  N   UNL     1     -10.609   7.945  72.160  1.00  0.00    -0.235 NA 
HETATM   10  C   UNL     1      -9.946   9.095  72.798  1.00  0.00     1.339 C  
HETATM   11  C   UNL     1      -9.386  10.042  71.727  1.00  0.00     3.219 C  
HETATM   12  N   UNL     1     -10.377  10.457  70.707  1.00  0.00     0.387 NA 
HETATM   13  C   UNL     1     -11.286   9.370  70.232  1.00  0.00    -0.246 C  
HETATM   14  C   UNL     1     -11.740   8.354  71.314  1.00  0.00    -0.285 C  
BRANCH  12  15
HETATM   15  C   UNL     1     -10.350  11.678  70.025  1.00  0.00     1.223 C  
HETATM   16  N   UNL     1     -11.004  12.666  70.594  1.00  0.00     1.806 NA 
HETATM   17  C   UNL     1     -10.924  13.980  70.096  1.00  0.00     0.274 A  
HETATM   18  C   UNL     1     -10.109  14.295  69.022  1.00  0.00    -0.130 A  
HETATM   19  C   UNL     1      -9.932  15.644  68.637  1.00  0.00    -0.208 A  
HETATM   20  C   UNL     1      -9.498  13.179  68.199  1.00  0.00    -0.222 C  
HETATM   21  F   UNL     1     -12.468  14.774  71.733  1.00  0.00    -0.339 F  
HETATM   22  C   UNL     1     -10.637  16.669  69.254  1.00  0.00    -0.343 A  
HETATM   23  N   UNL     1      -9.683  11.809  68.789  1.00  0.00    -0.126 NA 
HETATM   24  C   UNL     1     -11.633  15.028  70.714  1.00  0.00    -0.317 A  
HETATM   25  C   UNL     1     -11.509  16.356  70.285  1.00  0.00    -0.132 A  
BRANCH  20  26
HETATM   26  C   UNL     1     -10.046  13.316  66.755  1.00  0.00    -0.258 C  
HETATM   27  O   UNL     1     -11.823  14.832  67.446  1.00  0.00    -0.377 OA 
HETATM   28  C   UNL     1     -10.984  14.459  66.465  1.00  0.00    -0.316 C  
HETATM   29  O   UNL     1     -11.051  14.960  65.347  1.00  0.00    -0.333 OA 
ENDBRANCH  20  26
BRANCH  23  30
HETATM   30  C   UNL     1      -9.347  10.735  67.882  1.00  0.00    -0.150 A  
HETATM   31  C   UNL     1      -8.723  10.057  65.598  1.00  0.00    -0.171 A  
HETATM   32  C   UNL     1      -8.948  11.044  66.567  1.00  0.00    -0.181 A  
HETATM   33  C   UNL     1      -8.778  10.390  64.128  1.00  0.00    -0.197 C  
HETATM   34  C   UNL     1      -8.567   8.743  66.010  1.00  0.00    -0.166 A  
HETATM   35  F   UNL     1      -9.189  11.660  63.875  1.00  0.00    -0.145 F  
HETATM   36  F   UNL     1      -7.580  10.237  63.503  1.00  0.00    -0.143 F  
HETATM   37  F   UNL     1      -9.658   9.581  63.471  1.00  0.00    -0.211 F  
HETATM   38  C   UNL     1      -8.847   8.398  67.326  1.00  0.00    -0.137 A  
HETATM   39  C   UNL     1      -9.352   9.351  68.225  1.00  0.00    -0.133 A  
BRANCH  39  40
HETATM   40  O   UNL     1      -9.765   8.983  69.483  1.00  0.00    -0.164 OA 
HETATM   41  C   UNL     1      -9.376   9.808  70.578  1.00  0.00    -0.054 C  
ENDBRANCH  39  40
ENDBRANCH  23  30
ENDBRANCH  12  15
ENDBRANCH   7   9
ENDBRANCH   2   3
TORSDOF 6
ENDMDL
MODEL      153
REMARK 921   NORMALIZED FREE ENERGY PREDICTED BY IDOCK:   25.96 KCAL/MOL
REMARK 922        TOTAL FREE ENERGY PREDICTED BY IDOCK:   33.82 KCAL/MOL
REMARK 923 INTER-LIGAND FREE ENERGY PREDICTED BY IDOCK:   33.68 KCAL/MOL
REMARK 924 INTRA-LIGAND FREE ENERGY PREDICTED BY IDOCK:    0.14 KCAL/MOL
REMARK 927      BINDING AFFINITY PREDICTED BY RF-SCORE:    0.00 PKD
ROOT
HETATM    1  C   UNL     1     -11.620  20.429  65.730  1.00  0.00     1.960 C  
HETATM    2  O   UNL     1     -11.430  19.491  64.677  1.00  0.00     0.650 OA 
ENDROOT
BRANCH   2   3
HETATM    3  C   UNL     1     -12.028  18.264  64.815  1.00  0.00     5.506 A  
HETATM    4  C   UNL     1     -13.081  17.786  64.045  1.00  0.00    12.990 A  
HETATM    5  C   UNL     1     -13.607  16.526  64.319  1.00  0.00     5.626 A  
HETATM    6  C   UNL     1     -13.076  15.742  65.355  1.00  0.00     2.306 A  
HETATM    7  C   UNL     1     -11.998  16.175  66.142  1.00  0.00     1.435 A  
HETATM    8  C   UNL     1     -11.502  17.458  65.841  1.00  0.00     1.404 A  
BRANCH   7   9
HETATM    9  N   UNL     1     -11.461  15.392  67.144  1.00  0.00    -0.208 NA 
HETATM   10  C   UNL     1     -11.926  14.028  67.445  1.00  0.00    -0.404 C  
HETATM   11  C   UNL     1     -10.771  13.028  67.289  1.00  0.00    -0.250 C  
HETATM   12  N   UNL     1      -9.551  13.389  68.049  1.00  0.00    -0.213 NA 
HETATM   13  C   UNL     1      -9.192  14.839  68.015  1.00  0.00    -0.194 C  
HETATM   14  C   UNL     1     -10.389  15.827  68.052  1.00  0.00    -0.252 C  
BRANCH  12  15
HETATM   15  C   UNL     1      -8.634  12.465  68.561  1.00  0.00    -0.060 C  
HETATM   16  N   UNL     1      -7.758  12.943  69.417  1.00  0.00     0.480 NA 
HETATM   17  C   UNL     1      -6.887  12.093  70.124  1.00  0.00     0.685 A  
HETATM   18  C   UNL     1      -6.955  10.717  69.988  1.00  0.00    -0.091 A  
HETATM   19  C   UNL     1      -6.171   9.883  70.820  1.00  0.00    -0.093 A  
HETATM   20  C   UNL     1      -7.790  10.120  68.875  1.00  0.00    -0.100 C  
HETATM   21  F   UNL     1      -5.815  13.947  71.177  1.00  0.00    -0.172 F  
HETATM   22  C   UNL     1      -5.252  10.414  71.715  1.00  0.00    -0.006 A  
HETATM   23  N   UNL     1      -8.646  11.117  68.147  1.00  0.00    -0.134 NA 
HETATM   24  C   UNL     1      -5.951  12.620  71.035  1.00  0.00     0.357 A  
HETATM   25  C   UNL     1      -5.126  11.791  71.807  1.00  0.00     0.058 A  
BRANCH  20  26
HETATM   26  C   UNL     1      -6.829   9.329  67.950  1.00  0.00    -0.072 C  
HETATM   27  O   UNL     1      -7.239   7.231  69.118  1.00  0.00    -0.080 OA 
HETATM   28  C   UNL     1      -6.927   7.826  67.953  1.00  0.00    -0.077 C  
HETATM   29  O   UNL     1      -6.636   7.165  66.961  1.00  0.00    -0.054 OA 
ENDBRANCH  20  26
BRANCH  23  30
HETATM   30  C   UNL     1      -9.225  10.604  66.926  1.00  0.00    -0.155 A  
HETATM   31  C   UNL     1      -8.980  10.220  64.506  1.00  0.00    -0.247 A  
HETATM   32  C   UNL     1      -8.451  10.588  65.750  1.00  0.00    -0.177 A  
HETATM   33  C   UNL     1      -8.318  10.658  63.223  1.00  0.00    -0.087 C  
HETATM   34  C   UNL     1     -10.190   9.544  64.470  1.00  0.00     1.307 A  
HETATM   35  F   UNL     1      -7.288  11.524  63.413  1.00  0.00     0.748 F  
HETATM   36  F   UNL     1      -7.825   9.620  62.496  1.00  0.00    -0.115 F  
HETATM   37  F   UNL     1      -9.200  11.308  62.411  1.00  0.00    -0.339 F  
HETATM   38  C   UNL     1     -10.951   9.438  65.628  1.00  0.00     2.017 A  
HETATM   39  C   UNL     1     -10.541  10.065  66.815  1.00  0.00    -0.159 A  
BRANCH  39  40
HETATM   40  O   UNL     1     -11.359  10.084  67.920  1.00  0.00    -0.204 OA 
HETATM   41  C   UNL     1     -11.040   9.207  68.998  1.00  0.00     0.093 C  
ENDBRANCH  39  40
ENDBRANCH  23  30
ENDBRANCH  12  15
ENDBRANCH   7   9
ENDBRANCH   2   3
TORSDOF 6
ENDMDL
MODEL      154
REMARK 921   NORMALIZED FREE ENERGY PREDICTED BY IDOCK:   28.99 KCAL/MOL
REMARK 922        TOTAL FREE ENERGY PREDICTED BY IDOCK:   37.92 KCAL/MOL
REMARK 923 INTER-LIGAND FREE ENERGY PREDICTED BY IDOCK:   20.50 KCAL/MOL
REMARK 924 INTRA-LIGAND FREE ENERGY PREDICTED BY IDOCK:   17.42 KCAL/MOL
REMARK 927      BINDING AFFINITY PREDICTED BY RF-SCORE:    0.00 PKD
ROOT
HETATM    1  C   UNL     1      -7.659  13.360  72.456  1.00  0.00     9.509 C  
HETATM    2  O   UNL     1      -8.484  14.464  72.096  1.00  0.00     4.847 OA 
ENDROOT
BRANCH   2   3
HETATM    3  C   UNL     1      -9.296  14.307  71.001  1.00  0.00     4.250 A  
HETATM    4  C   UNL     1     -10.397  15.096  70.692  1.00  0.00     0.144 A  
HETATM    5  C   UNL     1     -11.147  14.801  69.556  1.00  0.00    -0.302 A  
HETATM    6  C   UNL     1     -10.791  13.726  68.726  1.00  0.00    -0.281 A  
HETATM    7  C   UNL     1      -9.673  12.920  68.987  1.00  0.00     0.351 A  
HETATM    8  C   UNL     1      -8.948  13.243  70.150  1.00  0.00     3.730 A  
BRANCH   7   9
HETATM    9  N   UNL     1      -9.310  11.880  68.155  1.00  0.00    -0.187 NA 
HETATM   10  C   UNL     1      -7.926  11.642  67.712  1.00  0.00    -0.131 C  
HETATM   11  C   UNL     1      -7.460  10.248  68.160  1.00  0.00    -0.086 C  
HETATM   12  N   UNL     1      -8.374   9.149  67.769  1.00  0.00    -0.116 NA 
HETATM   13  C   UNL     1      -9.828   9.453  67.927  1.00  0.00    -0.165 C  
HETATM   14  C   UNL     1     -10.252  10.906  67.583  1.00  0.00    -0.183 C  
BRANCH  12  15
HETATM   15  C   UNL     1      -7.969   7.836  67.509  1.00  0.00    -0.123 C  
HETATM   16  N   UNL     1      -8.553   7.249  66.488  1.00  0.00    -0.126 NA 
HETATM   17  C   UNL     1      -8.124   5.991  66.025  1.00  0.00    -0.113 A  
HETATM   18  C   UNL     1      -7.037   5.347  66.589  1.00  0.00    -0.069 A  
HETATM   19  C   UNL     1      -6.536   4.158  66.009  1.00  0.00    -0.041 A  
HETATM   20  C   UNL     1      -6.457   5.866  67.889  1.00  0.00    -0.047 C  
HETATM   21  F   UNL     1      -9.844   5.932  64.371  1.00  0.00     0.890 F  
HETATM   22  C   UNL     1      -7.173   3.558  64.931  1.00  0.00    -0.067 A  
HETATM   23  N   UNL     1      -7.017   7.191  68.325  1.00  0.00    -0.073 NA 
HETATM   24  C   UNL     1      -8.761   5.373  64.931  1.00  0.00    -0.096 A  
HETATM   25  C   UNL     1      -8.305   4.158  64.402  1.00  0.00    -0.101 A  
BRANCH  20  26
HETATM   26  C   UNL     1      -6.615   4.742  68.946  1.00  0.00    -0.045 C  
HETATM   27  O   UNL     1      -8.338   5.963  70.160  1.00  0.00    -0.114 OA 
HETATM   28  C   UNL     1      -7.847   4.761  69.813  1.00  0.00    -0.066 C  
HETATM   29  O   UNL     1      -8.322   3.725  70.268  1.00  0.00    -0.056 OA 
ENDBRANCH  20  26
BRANCH  23  30
HETATM   30  C   UNL     1      -6.673   7.548  69.683  1.00  0.00    -0.040 A  
HETATM   31  C   UNL     1      -6.359   6.816  72.013  1.00  0.00    -0.049 A  
HETATM   32  C   UNL     1      -6.569   6.536  70.656  1.00  0.00    -0.053 A  
HETATM   33  C   UNL     1      -6.727   5.812  73.077  1.00  0.00    -0.074 C  
HETATM   34  C   UNL     1      -5.916   8.080  72.371  1.00  0.00    -0.045 A  
HETATM   35  F   UNL     1      -7.382   4.725  72.592  1.00  0.00    -0.074 F  
HETATM   36  F   UNL     1      -5.650   5.344  73.763  1.00  0.00    -0.021 F  
HETATM   37  F   UNL     1      -7.562   6.361  74.005  1.00  0.00    -0.086 F  
HETATM   38  C   UNL     1      -5.898   9.095  71.423  1.00  0.00    -0.066 A  
HETATM   39  C   UNL     1      -6.387   8.873  70.126  1.00  0.00    -0.042 A  
BRANCH  39  40
HETATM   40  O   UNL     1      -6.504   9.910  69.230  1.00  0.00    -0.046 OA 
HETATM   41  C   UNL     1      -5.353  10.261  68.467  1.00  0.00    -0.038 C  
ENDBRANCH  39  40
ENDBRANCH  23  30
ENDBRANCH  12  15
ENDBRANCH   7   9
ENDBRANCH   2   3
TORSDOF 6
ENDMDL
MODEL      155
REMARK 921   NORMALIZED FREE ENERGY PREDICTED BY IDOCK:   29.53 KCAL/MOL
REMARK 922        TOTAL FREE ENERGY PREDICTED BY IDOCK:   38.65 KCAL/MOL
REMARK 923 INTER-LIGAND FREE ENERGY PREDICTED BY IDOCK:   26.33 KCAL/MOL
REMARK 924 INTRA-LIGAND FREE ENERGY PREDICTED BY IDOCK:   12.32 KCAL/MOL
REMARK 927      BINDING AFFINITY PREDICTED BY RF-SCORE:    0.00 PKD
ROOT
HETATM    1  C   UNL     1     -10.766  21.061  64.887  1.00  0.00     2.319 C  
HETATM    2  O   UNL     1      -9.488  20.903  65.495  1.00  0.00     0.589 OA 
ENDROOT
BRANCH   2   3
HETATM    3  C   UNL     1      -8.836  19.715  65.282  1.00  0.00     1.189 A  
HETATM    4  C   UNL     1      -7.678  19.550  64.531  1.00  0.00     2.464 A  
HETATM    5  C   UNL     1      -7.142  18.274  64.380  1.00  0.00     3.648 A  
HETATM    6  C   UNL     1      -7.755  17.166  64.984  1.00  0.00     3.614 A  
HETATM    7  C   UNL     1      -8.911  17.289  65.770  1.00  0.00     0.234 A  
HETATM    8  C   UNL     1      -9.429  18.593  65.890  1.00  0.00     0.132 A  
BRANCH   7   9
HETATM    9  N   UNL     1      -9.499  16.202  66.385  1.00  0.00    -0.272 NA 
HETATM   10  C   UNL     1     -10.627  15.455  65.806  1.00  0.00    -0.348 C  
HETATM   11  C   UNL     1     -10.239  13.983  65.604  1.00  0.00    -0.334 C  
HETATM   12  N   UNL     1      -9.693  13.329  66.816  1.00  0.00    -0.251 NA 
HETATM   13  C   UNL     1      -8.749  14.168  67.615  1.00  0.00    -0.187 C  
HETATM   14  C   UNL     1      -9.102  15.678  67.701  1.00  0.00    -0.192 C  
BRANCH  12  15
HETATM   15  C   UNL     1      -9.812  11.966  67.104  1.00  0.00    -0.194 C  
HETATM   16  N   UNL     1      -9.802  11.159  66.067  1.00  0.00    -0.219 NA 
HETATM   17  C   UNL     1      -9.755   9.761  66.228  1.00  0.00    -0.234 A  
HETATM   18  C   UNL     1      -9.661   9.182  67.481  1.00  0.00    -0.186 A  
HETATM   19  C   UNL     1      -9.464   7.787  67.607  1.00  0.00    -0.168 A  
HETATM   20  C   UNL     1      -9.876  10.037  68.714  1.00  0.00    -0.167 C  
HETATM   21  F   UNL     1      -9.877   9.412  63.870  1.00  0.00     0.074 F  
HETATM   22  C   UNL     1      -9.459   6.957  66.494  1.00  0.00    -0.199 A  
HETATM   23  N   UNL     1      -9.965  11.511  68.430  1.00  0.00    -0.201 NA 
HETATM   24  C   UNL     1      -9.748   8.909  65.107  1.00  0.00     0.472 A  
HETATM   25  C   UNL     1      -9.624   7.519  65.237  1.00  0.00     1.146 A  
BRANCH  20  26
HETATM   26  C   UNL     1     -11.111   9.469  69.460  1.00  0.00    -0.168 C  
HETATM   27  O   UNL     1     -11.356   7.621  67.892  1.00  0.00     0.322 OA 
HETATM   28  C   UNL     1     -11.528   8.054  69.153  1.00  0.00     0.714 C  
HETATM   29  O   UNL     1     -12.095   7.361  69.991  1.00  0.00     0.140 OA 
ENDBRANCH  20  26
BRANCH  23  30
HETATM   30  C   UNL     1     -10.439  12.290  69.552  1.00  0.00     0.498 A  
HETATM   31  C   UNL     1     -12.240  12.723  71.174  1.00  0.00    -0.097 A  
HETATM   32  C   UNL     1     -11.659  11.944  70.164  1.00  0.00    -0.252 A  
HETATM   33  C   UNL     1     -13.717  12.630  71.470  1.00  0.00     0.417 C  
HETATM   34  C   UNL     1     -11.458  13.667  71.821  1.00  0.00     2.031 A  
HETATM   35  F   UNL     1     -14.397  11.850  70.589  1.00  0.00     2.541 F  
HETATM   36  F   UNL     1     -13.982  12.140  72.710  1.00  0.00    -0.229 F  
HETATM   37  F   UNL     1     -14.310  13.856  71.408  1.00  0.00    -0.323 F  
HETATM   38  C   UNL     1     -10.199  13.975  71.319  1.00  0.00     4.109 A  
HETATM   39  C   UNL     1      -9.739  13.390  70.129  1.00  0.00     2.967 A  
BRANCH  39  40
HETATM   40  O   UNL     1      -8.559  13.798  69.555  1.00  0.00     0.628 OA 
HETATM   41  C   UNL     1      -8.001  15.036  69.990  1.00  0.00     0.305 C  
ENDBRANCH  39  40
ENDBRANCH  23  30
ENDBRANCH  12  15
ENDBRANCH   7   9
ENDBRANCH   2   3
TORSDOF 6
ENDMDL
MODEL      156
REMARK 921   NORMALIZED FREE ENERGY PREDICTED BY IDOCK:   30.03 KCAL/MOL
REMARK 922        TOTAL FREE ENERGY PREDICTED BY IDOCK:   39.33 KCAL/MOL
REMARK 923 INTER-LIGAND FREE ENERGY PREDICTED BY IDOCK:   40.11 KCAL/MOL
REMARK 924 INTRA-LIGAND FREE ENERGY PREDICTED BY IDOCK:   -0.78 KCAL/MOL
REMARK 927      BINDING AFFINITY PREDICTED BY RF-SCORE:    0.00 PKD
ROOT
HETATM    1  C   UNL     1     -11.051  20.398  72.736  1.00  0.00     9.716 C  
HETATM    2  O   UNL     1     -10.940  19.119  72.120  1.00  0.00     2.848 OA 
ENDROOT
BRANCH   2   3
HETATM    3  C   UNL     1      -9.740  18.811  71.530  1.00  0.00     4.960 A  
HETATM    4  C   UNL     1      -8.571  19.554  71.639  1.00  0.00     4.166 A  
HETATM    5  C   UNL     1      -7.431  19.131  70.960  1.00  0.00     2.664 A  
HETATM    6  C   UNL     1      -7.457  17.965  70.180  1.00  0.00     1.738 A  
HETATM    7  C   UNL     1      -8.609  17.172  70.061  1.00  0.00     1.972 A  
HETATM    8  C   UNL     1      -9.743  17.638  70.753  1.00  0.00     3.671 A  
BRANCH   7   9
HETATM    9  N   UNL     1      -8.626  16.011  69.314  1.00  0.00    -0.251 NA 
HETATM   10  C   UNL     1      -7.451  15.493  68.593  1.00  0.00    -0.131 C  
HETATM   11  C   UNL     1      -7.097  14.088  69.100  1.00  0.00    -0.085 C  
HETATM   12  N   UNL     1      -8.231  13.135  69.087  1.00  0.00     0.391 NA 
HETATM   13  C   UNL     1      -9.537  13.703  69.541  1.00  0.00     0.986 C  
HETATM   14  C   UNL     1      -9.815  15.169  69.115  1.00  0.00    -0.237 C  
BRANCH  12  15
HETATM   15  C   UNL     1      -8.105  11.753  68.917  1.00  0.00     0.030 C  
HETATM   16  N   UNL     1      -7.333  11.138  69.785  1.00  0.00     0.027 NA 
HETATM   17  C   UNL     1      -7.248   9.733  69.823  1.00  0.00    -0.105 A  
HETATM   18  C   UNL     1      -8.015   8.942  68.986  1.00  0.00    -0.106 A  
HETATM   19  C   UNL     1      -8.022   7.537  69.146  1.00  0.00    -0.121 A  
HETATM   20  C   UNL     1      -8.761   9.583  67.833  1.00  0.00    -0.119 C  
HETATM   21  F   UNL     1      -5.618   9.806  71.565  1.00  0.00    -0.066 F  
HETATM   22  C   UNL     1      -7.195   6.913  70.071  1.00  0.00    -0.080 A  
HETATM   23  N   UNL     1      -8.749  11.086  67.854  1.00  0.00    -0.130 NA 
HETATM   24  C   UNL     1      -6.414   9.089  70.756  1.00  0.00    -0.058 A  
HETATM   25  C   UNL     1      -6.369   7.693  70.866  1.00  0.00    -0.038 A  
BRANCH  20  26
HETATM   26  C   UNL     1      -8.198   8.972  66.523  1.00  0.00    -0.114 C  
HETATM   27  O   UNL     1     -10.407   8.812  65.509  1.00  0.00     0.672 OA 
HETATM   28  C   UNL     1      -9.088   8.975  65.307  1.00  0.00    -0.167 C  
HETATM   29  O   UNL     1      -8.619   9.020  64.175  1.00  0.00    -0.191 OA 
ENDBRANCH  20  26
BRANCH  23  30
HETATM   30  C   UNL     1      -9.216  11.688  66.626  1.00  0.00    -0.191 A  
HETATM   31  C   UNL     1     -11.131  12.446  65.275  1.00  0.00    -0.342 A  
HETATM   32  C   UNL     1     -10.587  11.976  66.478  1.00  0.00    -0.269 A  
HETATM   33  C   UNL     1     -12.601  12.290  64.978  1.00  0.00    -0.071 C  
HETATM   34  C   UNL     1     -10.274  12.953  64.310  1.00  0.00    -0.337 A  
HETATM   35  F   UNL     1     -13.266  11.551  65.905  1.00  0.00     2.772 F  
HETATM   36  F   UNL     1     -13.255  13.478  64.885  1.00  0.00    -0.274 F  
HETATM   37  F   UNL     1     -12.799  11.651  63.789  1.00  0.00    -0.514 F  
HETATM   38  C   UNL     1      -8.902  12.788  64.455  1.00  0.00     2.093 A  
HETATM   39  C   UNL     1      -8.378  12.056  65.532  1.00  0.00     0.900 A  
BRANCH  39  40
HETATM   40  O   UNL     1      -7.035  11.769  65.602  1.00  0.00     0.804 OA 
HETATM   41  C   UNL     1      -6.156  12.806  66.030  1.00  0.00     3.699 C  
ENDBRANCH  39  40
ENDBRANCH  23  30
ENDBRANCH  12  15
ENDBRANCH   7   9
ENDBRANCH   2   3
TORSDOF 6
ENDMDL
MODEL      157
REMARK 921   NORMALIZED FREE ENERGY PREDICTED BY IDOCK:   33.05 KCAL/MOL
REMARK 922        TOTAL FREE ENERGY PREDICTED BY IDOCK:   43.40 KCAL/MOL
REMARK 923 INTER-LIGAND FREE ENERGY PREDICTED BY IDOCK:   43.67 KCAL/MOL
REMARK 924 INTRA-LIGAND FREE ENERGY PREDICTED BY IDOCK:   -0.26 KCAL/MOL
REMARK 927      BINDING AFFINITY PREDICTED BY RF-SCORE:    0.00 PKD
ROOT
HETATM    1  C   UNL     1     -12.852  19.699  65.660  1.00  0.00     9.685 C  
HETATM    2  O   UNL     1     -11.948  18.718  65.161  1.00  0.00     2.919 OA 
ENDROOT
BRANCH   2   3
HETATM    3  C   UNL     1     -12.494  17.580  64.623  1.00  0.00     6.620 A  
HETATM    4  C   UNL     1     -13.718  17.501  63.970  1.00  0.00    13.257 A  
HETATM    5  C   UNL     1     -14.158  16.268  63.497  1.00  0.00     6.787 A  
HETATM    6  C   UNL     1     -13.373  15.117  63.669  1.00  0.00     2.763 A  
HETATM    7  C   UNL     1     -12.121  15.155  64.301  1.00  0.00    -0.261 A  
HETATM    8  C   UNL     1     -11.717  16.418  64.775  1.00  0.00     0.286 A  
BRANCH   7   9
HETATM    9  N   UNL     1     -11.339  14.027  64.447  1.00  0.00    -0.351 NA 
HETATM   10  C   UNL     1      -9.926  14.068  64.860  1.00  0.00    -0.126 C  
HETATM   11  C   UNL     1      -9.730  13.266  66.154  1.00  0.00    -0.250 C  
HETATM   12  N   UNL     1     -10.261  11.883  66.096  1.00  0.00    -0.220 NA 
HETATM   13  C   UNL     1     -11.583  11.743  65.415  1.00  0.00    -0.125 C  
HETATM   14  C   UNL     1     -11.800  12.656  64.178  1.00  0.00    -0.410 C  
BRANCH  12  15
HETATM   15  C   UNL     1      -9.741  10.803  66.818  1.00  0.00    -0.187 C  
HETATM   16  N   UNL     1     -10.327   9.645  66.614  1.00  0.00    -0.230 NA 
HETATM   17  C   UNL     1      -9.802   8.455  67.153  1.00  0.00    -0.215 A  
HETATM   18  C   UNL     1      -8.619   8.449  67.872  1.00  0.00    -0.131 A  
HETATM   19  C   UNL     1      -8.038   7.224  68.274  1.00  0.00    -0.124 A  
HETATM   20  C   UNL     1      -8.012   9.765  68.316  1.00  0.00    -0.096 C  
HETATM   21  F   UNL     1     -11.612   7.172  66.273  1.00  0.00     0.618 F  
HETATM   22  C   UNL     1      -8.679   6.013  68.047  1.00  0.00    -0.112 A  
HETATM   23  N   UNL     1      -8.676  10.977  67.726  1.00  0.00    -0.128 NA 
HETATM   24  C   UNL     1     -10.442   7.221  66.929  1.00  0.00    -0.299 A  
HETATM   25  C   UNL     1      -9.899   6.014  67.389  1.00  0.00    -0.147 A  
BRANCH  20  26
HETATM   26  C   UNL     1      -7.984   9.760  69.867  1.00  0.00    -0.184 C  
HETATM   27  O   UNL     1     -10.408   9.592  70.028  1.00  0.00    -0.221 OA 
HETATM   28  C   UNL     1      -9.223   9.302  70.591  1.00  0.00    -0.264 C  
HETATM   29  O   UNL     1      -9.157   8.776  71.697  1.00  0.00    -0.221 OA 
ENDBRANCH  20  26
BRANCH  23  30
HETATM   30  C   UNL     1      -8.282  12.218  68.354  1.00  0.00    -0.146 A  
HETATM   31  C   UNL     1      -8.871  14.060  69.878  1.00  0.00     1.548 A  
HETATM   32  C   UNL     1      -9.127  12.801  69.317  1.00  0.00     0.957 A  
HETATM   33  C   UNL     1      -9.980  14.865  70.509  1.00  0.00     0.666 C  
HETATM   34  C   UNL     1      -7.605  14.606  69.741  1.00  0.00     0.087 A  
HETATM   35  F   UNL     1     -11.211  14.313  70.345  1.00  0.00    -0.251 F  
HETATM   36  F   UNL     1      -9.811  15.050  71.845  1.00  0.00     0.939 F  
HETATM   37  F   UNL     1     -10.059  16.110  69.958  1.00  0.00    -0.250 F  
HETATM   38  C   UNL     1      -6.691  14.011  68.879  1.00  0.00    -0.105 A  
HETATM   39  C   UNL     1      -7.058  12.905  68.097  1.00  0.00    -0.108 A  
BRANCH  39  40
HETATM   40  O   UNL     1      -6.206  12.404  67.142  1.00  0.00    -0.154 OA 
HETATM   41  C   UNL     1      -5.196  13.271  66.633  1.00  0.00     1.849 C  
ENDBRANCH  39  40
ENDBRANCH  23  30
ENDBRANCH  12  15
ENDBRANCH   7   9
ENDBRANCH   2   3
TORSDOF 6
ENDMDL
MODEL      158
REMARK 921   NORMALIZED FREE ENERGY PREDICTED BY IDOCK:   34.85 KCAL/MOL
REMARK 922        TOTAL FREE ENERGY PREDICTED BY IDOCK:   45.84 KCAL/MOL
REMARK 923 INTER-LIGAND FREE ENERGY PREDICTED BY IDOCK:   32.56 KCAL/MOL
REMARK 924 INTRA-LIGAND FREE ENERGY PREDICTED BY IDOCK:   13.28 KCAL/MOL
REMARK 927      BINDING AFFINITY PREDICTED BY RF-SCORE:    0.00 PKD
ROOT
HETATM    1  C   UNL     1      -7.807   9.908  63.853  1.00  0.00    -0.148 C  
HETATM    2  O   UNL     1      -8.807   9.896  64.868  1.00  0.00    -0.163 OA 
ENDROOT
BRANCH   2   3
HETATM    3  C   UNL     1      -8.391   9.664  66.154  1.00  0.00    -0.119 A  
HETATM    4  C   UNL     1      -8.070   8.422  66.688  1.00  0.00    -0.101 A  
HETATM    5  C   UNL     1      -7.687   8.335  68.024  1.00  0.00    -0.107 A  
HETATM    6  C   UNL     1      -7.617   9.487  68.822  1.00  0.00    -0.076 A  
HETATM    7  C   UNL     1      -7.909  10.764  68.318  1.00  0.00    -0.115 A  
HETATM    8  C   UNL     1      -8.302  10.808  66.967  1.00  0.00    -0.129 A  
BRANCH   7   9
HETATM    9  N   UNL     1      -7.814  11.899  69.097  1.00  0.00     0.116 NA 
HETATM   10  C   UNL     1      -6.704  12.861  68.996  1.00  0.00    -0.095 C  
HETATM   11  C   UNL     1      -7.242  14.253  68.633  1.00  0.00    -0.125 C  
HETATM   12  N   UNL     1      -8.326  14.734  69.521  1.00  0.00     0.002 NA 
HETATM   13  C   UNL     1      -9.338  13.701  69.898  1.00  0.00     2.102 C  
HETATM   14  C   UNL     1      -8.780  12.273  70.141  1.00  0.00     4.075 C  
BRANCH  12  15
HETATM   15  C   UNL     1      -8.576  16.080  69.811  1.00  0.00     0.311 C  
HETATM   16  N   UNL     1      -7.564  16.757  70.303  1.00  0.00     1.649 NA 
HETATM   17  C   UNL     1      -7.636  18.151  70.487  1.00  0.00     3.113 A  
HETATM   18  C   UNL     1      -8.755  18.871  70.105  1.00  0.00     1.733 A  
HETATM   19  C   UNL     1      -8.743  20.284  70.162  1.00  0.00     1.433 A  
HETATM   20  C   UNL     1     -10.023  18.132  69.728  1.00  0.00     0.599 C  
HETATM   21  F   UNL     1      -5.450  18.212  71.443  1.00  0.00    -0.272 F  
HETATM   22  C   UNL     1      -7.660  20.976  70.689  1.00  0.00     3.592 A  
HETATM   23  N   UNL     1      -9.853  16.644  69.608  1.00  0.00    -0.036 NA 
HETATM   24  C   UNL     1      -6.544  18.863  71.019  1.00  0.00     1.295 A  
HETATM   25  C   UNL     1      -6.562  20.259  71.140  1.00  0.00     0.186 A  
BRANCH  20  26
HETATM   26  C   UNL     1     -11.121  18.556  70.738  1.00  0.00     3.593 C  
HETATM   27  O   UNL     1     -11.219  16.341  71.744  1.00  0.00    -0.149 OA 
HETATM   28  C   UNL     1     -11.366  17.664  71.927  1.00  0.00     2.259 C  
HETATM   29  O   UNL     1     -11.780  18.117  72.989  1.00  0.00     1.551 OA 
ENDBRANCH  20  26
BRANCH  23  30
HETATM   30  C   UNL     1     -11.103  15.922  69.522  1.00  0.00    -0.315 A  
HETATM   31  C   UNL     1     -12.332  13.830  69.940  1.00  0.00    -0.334 A  
HETATM   32  C   UNL     1     -11.196  14.637  70.089  1.00  0.00    -0.230 A  
HETATM   33  C   UNL     1     -12.247  12.334  70.115  1.00  0.00    -0.226 C  
HETATM   34  C   UNL     1     -13.514  14.416  69.513  1.00  0.00     2.126 A  
HETATM   35  F   UNL     1     -10.978  11.880  70.283  1.00  0.00     0.009 F  
HETATM   36  F   UNL     1     -12.967  11.880  71.176  1.00  0.00    -0.424 F  
HETATM   37  F   UNL     1     -12.729  11.682  69.019  1.00  0.00    -0.064 F  
HETATM   38  C   UNL     1     -13.500  15.722  69.039  1.00  0.00     3.115 A  
HETATM   39  C   UNL     1     -12.293  16.430  68.923  1.00  0.00     0.981 A  
BRANCH  39  40
HETATM   40  O   UNL     1     -12.257  17.665  68.322  1.00  0.00     1.858 OA 
HETATM   41  C   UNL     1     -11.086  18.011  67.586  1.00  0.00     0.093 C  
ENDBRANCH  39  40
ENDBRANCH  23  30
ENDBRANCH  12  15
ENDBRANCH   7   9
ENDBRANCH   2   3
TORSDOF 6
ENDMDL
MODEL      159
REMARK 921   NORMALIZED FREE ENERGY PREDICTED BY IDOCK:   36.66 KCAL/MOL
REMARK 922        TOTAL FREE ENERGY PREDICTED BY IDOCK:   48.28 KCAL/MOL
REMARK 923 INTER-LIGAND FREE ENERGY PREDICTED BY IDOCK:   43.51 KCAL/MOL
REMARK 924 INTRA-LIGAND FREE ENERGY PREDICTED BY IDOCK:    4.77 KCAL/MOL
REMARK 927      BINDING AFFINITY PREDICTED BY RF-SCORE:    0.00 PKD
ROOT
HETATM    1  C   UNL     1      -5.836   4.749  64.335  1.00  0.00    -0.017 C  
HETATM    2  O   UNL     1      -6.989   4.713  63.499  1.00  0.00    -0.042 OA 
ENDROOT
BRANCH   2   3
HETATM    3  C   UNL     1      -8.003   5.588  63.794  1.00  0.00    -0.112 A  
HETATM    4  C   UNL     1      -9.332   5.441  63.416  1.00  0.00     0.626 A  
HETATM    5  C   UNL     1     -10.251   6.428  63.764  1.00  0.00     5.483 A  
HETATM    6  C   UNL     1      -9.844   7.554  64.497  1.00  0.00     3.620 A  
HETATM    7  C   UNL     1      -8.519   7.730  64.921  1.00  0.00    -0.003 A  
HETATM    8  C   UNL     1      -7.618   6.717  64.539  1.00  0.00    -0.103 A  
BRANCH   7   9
HETATM    9  N   UNL     1      -8.125   8.825  65.664  1.00  0.00    -0.103 NA 
HETATM   10  C   UNL     1      -7.861  10.150  65.078  1.00  0.00    -0.140 C  
HETATM   11  C   UNL     1      -8.792  11.199  65.703  1.00  0.00    -0.157 C  
HETATM   12  N   UNL     1      -8.770  11.223  67.184  1.00  0.00    -0.147 NA 
HETATM   13  C   UNL     1      -8.741   9.879  67.837  1.00  0.00    -0.129 C  
HETATM   14  C   UNL     1      -7.887   8.802  67.115  1.00  0.00    -0.096 C  
BRANCH  12  15
HETATM   15  C   UNL     1      -9.009  12.360  67.963  1.00  0.00    -0.194 C  
HETATM   16  N   UNL     1      -8.817  13.514  67.365  1.00  0.00    -0.210 NA 
HETATM   17  C   UNL     1      -9.173  14.727  67.984  1.00  0.00    -0.194 A  
HETATM   18  C   UNL     1      -9.790  14.751  69.222  1.00  0.00    -0.123 A  
HETATM   19  C   UNL     1     -10.272  15.970  69.753  1.00  0.00    -0.240 A  
HETATM   20  C   UNL     1      -9.850  13.482  70.048  1.00  0.00     2.180 C  
HETATM   21  F   UNL     1      -8.329  15.997  66.148  1.00  0.00    -0.320 F  
HETATM   22  C   UNL     1     -10.054  17.176  69.100  1.00  0.00    -0.254 A  
HETATM   23  N   UNL     1      -9.399  12.250  69.314  1.00  0.00     0.630 NA 
HETATM   24  C   UNL     1      -8.959  15.957  67.332  1.00  0.00    -0.192 A  
HETATM   25  C   UNL     1      -9.374  17.172  67.892  1.00  0.00    -0.249 A  
BRANCH  20  26
HETATM   26  C   UNL     1      -9.067  13.748  71.360  1.00  0.00     8.861 C  
HETATM   27  O   UNL     1      -7.017  14.300  70.166  1.00  0.00    -0.018 OA 
HETATM   28  C   UNL     1      -7.767  14.503  71.262  1.00  0.00     3.102 C  
HETATM   29  O   UNL     1      -7.360  15.195  72.190  1.00  0.00     2.918 OA 
ENDBRANCH  20  26
BRANCH  23  30
HETATM   30  C   UNL     1      -9.197  11.104  70.172  1.00  0.00     1.932 A  
HETATM   31  C   UNL     1      -8.015  10.129  72.100  1.00  0.00     4.343 A  
HETATM   32  C   UNL     1      -8.355  11.225  71.294  1.00  0.00     7.857 A  
HETATM   33  C   UNL     1      -6.779  10.159  72.964  1.00  0.00     2.625 C  
HETATM   34  C   UNL     1      -8.770   8.971  72.002  1.00  0.00     0.143 A  
HETATM   35  F   UNL     1      -6.005  11.257  72.765  1.00  0.00     1.146 F  
HETATM   36  F   UNL     1      -7.058  10.115  74.295  1.00  0.00     1.185 F  
HETATM   37  F   UNL     1      -5.973   9.089  72.708  1.00  0.00    -0.087 F  
HETATM   38  C   UNL     1      -9.694   8.839  70.972  1.00  0.00    -0.292 A  
HETATM   39  C   UNL     1      -9.822   9.835  69.992  1.00  0.00    -0.251 A  
BRANCH  39  40
HETATM   40  O   UNL     1     -10.628   9.644  68.895  1.00  0.00    -0.209 OA 
HETATM   41  C   UNL     1     -12.033   9.814  69.067  1.00  0.00     0.744 C  
ENDBRANCH  39  40
ENDBRANCH  23  30
ENDBRANCH  12  15
ENDBRANCH   7   9
ENDBRANCH   2   3
TORSDOF 6
ENDMDL
MODEL      160
REMARK 921   NORMALIZED FREE ENERGY PREDICTED BY IDOCK:   36.85 KCAL/MOL
REMARK 922        TOTAL FREE ENERGY PREDICTED BY IDOCK:   48.54 KCAL/MOL
REMARK 923 INTER-LIGAND FREE ENERGY PREDICTED BY IDOCK:   39.88 KCAL/MOL
REMARK 924 INTRA-LIGAND FREE ENERGY PREDICTED BY IDOCK:    8.65 KCAL/MOL
REMARK 927      BINDING AFFINITY PREDICTED BY RF-SCORE:    0.00 PKD
ROOT
HETATM    1  C   UNL     1      -9.155   2.032  72.056  1.00  0.00    -0.080 C  
HETATM    2  O   UNL     1      -9.798   3.248  72.424  1.00  0.00    -0.138 OA 
ENDROOT
BRANCH   2   3
HETATM    3  C   UNL     1      -9.081   4.407  72.269  1.00  0.00    -0.121 A  
HETATM    4  C   UNL     1      -8.027   4.820  73.075  1.00  0.00    -0.100 A  
HETATM    5  C   UNL     1      -7.408   6.040  72.812  1.00  0.00    -0.090 A  
HETATM    6  C   UNL     1      -7.834   6.840  71.741  1.00  0.00    -0.101 A  
HETATM    7  C   UNL     1      -8.877   6.451  70.887  1.00  0.00    -0.136 A  
HETATM    8  C   UNL     1      -9.485   5.218  71.192  1.00  0.00    -0.206 A  
BRANCH   7   9
HETATM    9  N   UNL     1      -9.279   7.227  69.818  1.00  0.00    -0.141 NA 
HETATM   10  C   UNL     1     -10.115   8.431  69.959  1.00  0.00    -0.192 C  
HETATM   11  C   UNL     1      -9.374   9.656  69.404  1.00  0.00    -0.193 C  
HETATM   12  N   UNL     1      -8.865   9.482  68.023  1.00  0.00    -0.124 NA 
HETATM   13  C   UNL     1      -8.258   8.146  67.739  1.00  0.00    -0.128 C  
HETATM   14  C   UNL     1      -8.957   6.935  68.413  1.00  0.00    -0.121 C  
BRANCH  12  15
HETATM   15  C   UNL     1      -8.707  10.519  67.099  1.00  0.00    -0.130 C  
HETATM   16  N   UNL     1      -7.971  10.241  66.046  1.00  0.00    -0.132 NA 
HETATM   17  C   UNL     1      -7.865  11.140  64.969  1.00  0.00     0.505 A  
HETATM   18  C   UNL     1      -8.574  12.329  64.950  1.00  0.00     1.578 A  
HETATM   19  C   UNL     1      -8.566  13.142  63.792  1.00  0.00     5.845 A  
HETATM   20  C   UNL     1      -9.269  12.801  66.211  1.00  0.00    -0.089 C  
HETATM   21  F   UNL     1      -6.331   9.710  63.830  1.00  0.00    -0.091 F  
HETATM   22  C   UNL     1      -7.779  12.825  62.693  1.00  0.00     6.919 A  
HETATM   23  N   UNL     1      -9.283  11.787  67.320  1.00  0.00    -0.169 NA 
HETATM   24  C   UNL     1      -7.071  10.829  63.848  1.00  0.00     0.403 A  
HETATM   25  C   UNL     1      -7.009  11.672  62.730  1.00  0.00     1.486 A  
BRANCH  20  26
HETATM   26  C   UNL     1      -8.628  14.156  66.610  1.00  0.00     0.003 C  
HETATM   27  O   UNL     1      -6.650  13.758  65.246  1.00  0.00     9.239 OA 
HETATM   28  C   UNL     1      -7.488  14.669  65.770  1.00  0.00     5.246 C  
HETATM   29  O   UNL     1      -7.273  15.871  65.654  1.00  0.00     1.911 OA 
ENDBRANCH  20  26
BRANCH  23  30
HETATM   30  C   UNL     1      -9.695  12.328  68.596  1.00  0.00    -0.065 A  
HETATM   31  C   UNL     1     -11.281  12.247  70.478  1.00  0.00     1.052 A  
HETATM   32  C   UNL     1     -10.748  11.711  69.298  1.00  0.00    -0.144 A  
HETATM   33  C   UNL     1     -12.668  11.875  70.939  1.00  0.00    -0.209 C  
HETATM   34  C   UNL     1     -10.558  13.218  71.155  1.00  0.00     4.808 A  
HETATM   35  F   UNL     1     -13.350  11.113  70.044  1.00  0.00     0.038 F  
HETATM   36  F   UNL     1     -12.674  11.194  72.115  1.00  0.00    -0.435 F  
HETATM   37  F   UNL     1     -13.436  12.985  71.136  1.00  0.00    -0.245 F  
HETATM   38  C   UNL     1      -9.445  13.790  70.551  1.00  0.00     3.923 A  
HETATM   39  C   UNL     1      -9.085  13.446  69.238  1.00  0.00     0.809 A  
BRANCH  39  40
HETATM   40  O   UNL     1      -8.074  14.113  68.588  1.00  0.00    -0.140 OA 
HETATM   41  C   UNL     1      -6.991  14.605  69.373  1.00  0.00    -0.163 C  
ENDBRANCH  39  40
ENDBRANCH  23  30
ENDBRANCH  12  15
ENDBRANCH   7   9
ENDBRANCH   2   3
TORSDOF 6
ENDMDL
MODEL      161
REMARK 921   NORMALIZED FREE ENERGY PREDICTED BY IDOCK:   37.86 KCAL/MOL
REMARK 922        TOTAL FREE ENERGY PREDICTED BY IDOCK:   49.90 KCAL/MOL
REMARK 923 INTER-LIGAND FREE ENERGY PREDICTED BY IDOCK:   39.35 KCAL/MOL
REMARK 924 INTRA-LIGAND FREE ENERGY PREDICTED BY IDOCK:   10.55 KCAL/MOL
REMARK 927      BINDING AFFINITY PREDICTED BY RF-SCORE:    0.00 PKD
ROOT
HETATM    1  C   UNL     1      -7.650  18.521  63.577  1.00  0.00    10.632 C  
HETATM    2  O   UNL     1      -8.013  17.448  64.439  1.00  0.00     5.371 OA 
ENDROOT
BRANCH   2   3
HETATM    3  C   UNL     1      -7.953  17.682  65.789  1.00  0.00     0.138 A  
HETATM    4  C   UNL     1      -7.867  18.932  66.391  1.00  0.00    -0.296 A  
HETATM    5  C   UNL     1      -7.786  19.014  67.778  1.00  0.00    -0.279 A  
HETATM    6  C   UNL     1      -7.799  17.852  68.564  1.00  0.00    -0.301 A  
HETATM    7  C   UNL     1      -7.909  16.571  68.001  1.00  0.00    -0.157 A  
HETATM    8  C   UNL     1      -7.977  16.529  66.595  1.00  0.00    -0.320 A  
BRANCH   7   9
HETATM    9  N   UNL     1      -7.948  15.430  68.776  1.00  0.00    -0.146 NA 
HETATM   10  C   UNL     1      -8.316  15.431  70.202  1.00  0.00     0.598 C  
HETATM   11  C   UNL     1      -9.543  14.536  70.432  1.00  0.00     1.477 C  
HETATM   12  N   UNL     1      -9.404  13.166  69.886  1.00  0.00     2.323 NA 
HETATM   13  C   UNL     1      -8.758  13.085  68.541  1.00  0.00    -0.042 C  
HETATM   14  C   UNL     1      -7.598  14.086  68.293  1.00  0.00    -0.135 C  
BRANCH  12  15
HETATM   15  C   UNL     1     -10.029  12.033  70.418  1.00  0.00     3.852 C  
HETATM   16  N   UNL     1     -10.927  12.259  71.351  1.00  0.00     4.212 NA 
HETATM   17  C   UNL     1     -11.738  11.224  71.852  1.00  0.00     2.172 A  
HETATM   18  C   UNL     1     -11.663   9.939  71.344  1.00  0.00    -0.449 A  
HETATM   19  C   UNL     1     -12.590   8.955  71.760  1.00  0.00    -0.420 A  
HETATM   20  C   UNL     1     -10.517   9.568  70.424  1.00  0.00    -0.278 C  
HETATM   21  F   UNL     1     -12.783  12.699  73.410  1.00  0.00     1.368 F  
HETATM   22  C   UNL     1     -13.528   9.221  72.748  1.00  0.00    -0.219 A  
HETATM   23  N   UNL     1      -9.679  10.736  69.987  1.00  0.00     0.432 NA 
HETATM   24  C   UNL     1     -12.694  11.481  72.853  1.00  0.00     3.483 A  
HETATM   25  C   UNL     1     -13.566  10.486  73.315  1.00  0.00     3.237 A  
BRANCH  20  26
HETATM   26  C   UNL     1      -9.708   8.446  71.124  1.00  0.00    -0.236 C  
HETATM   27  O   UNL     1     -11.712   7.406  72.037  1.00  0.00    -0.274 OA 
HETATM   28  C   UNL     1     -10.457   7.225  71.591  1.00  0.00    -0.198 C  
HETATM   29  O   UNL     1      -9.911   6.129  71.659  1.00  0.00    -0.169 OA 
ENDBRANCH  20  26
BRANCH  23  30
HETATM   30  C   UNL     1      -8.442  10.355  69.343  1.00  0.00    -0.134 A  
HETATM   31  C   UNL     1      -7.331   9.058  67.569  1.00  0.00    -0.081 A  
HETATM   32  C   UNL     1      -8.487   9.566  68.178  1.00  0.00    -0.119 A  
HETATM   33  C   UNL     1      -7.402   7.861  66.654  1.00  0.00    -0.088 C  
HETATM   34  C   UNL     1      -6.103   9.601  67.913  1.00  0.00    -0.052 A  
HETATM   35  F   UNL     1      -8.631   7.284  66.611  1.00  0.00    -0.112 F  
HETATM   36  F   UNL     1      -7.063   8.152  65.369  1.00  0.00    -0.060 F  
HETATM   37  F   UNL     1      -6.548   6.878  67.061  1.00  0.00    -0.041 F  
HETATM   38  C   UNL     1      -6.016  10.469  68.995  1.00  0.00    -0.040 A  
HETATM   39  C   UNL     1      -7.143  10.750  69.782  1.00  0.00    -0.124 A  
BRANCH  39  40
HETATM   40  O   UNL     1      -7.031  11.492  70.934  1.00  0.00     1.002 OA 
HETATM   41  C   UNL     1      -7.270  12.894  70.846  1.00  0.00     3.823 C  
ENDBRANCH  39  40
ENDBRANCH  23  30
ENDBRANCH  12  15
ENDBRANCH   7   9
ENDBRANCH   2   3
TORSDOF 6
ENDMDL
MODEL      162
REMARK 921   NORMALIZED FREE ENERGY PREDICTED BY IDOCK:   38.22 KCAL/MOL
REMARK 922        TOTAL FREE ENERGY PREDICTED BY IDOCK:   50.39 KCAL/MOL
REMARK 923 INTER-LIGAND FREE ENERGY PREDICTED BY IDOCK:   51.72 KCAL/MOL
REMARK 924 INTRA-LIGAND FREE ENERGY PREDICTED BY IDOCK:   -1.33 KCAL/MOL
REMARK 927      BINDING AFFINITY PREDICTED BY RF-SCORE:    0.00 PKD
ROOT
HETATM    1  C   UNL     1      -5.647   8.307  68.160  1.00  0.00    -0.034 C  
HETATM    2  O   UNL     1      -5.382   8.288  69.559  1.00  0.00    -0.029 OA 
ENDROOT
BRANCH   2   3
HETATM    3  C   UNL     1      -6.463   8.213  70.401  1.00  0.00    -0.036 A  
HETATM    4  C   UNL     1      -6.657   7.250  71.383  1.00  0.00    -0.050 A  
HETATM    5  C   UNL     1      -7.821   7.283  72.146  1.00  0.00    -0.092 A  
HETATM    6  C   UNL     1      -8.784   8.281  71.935  1.00  0.00    -0.230 A  
HETATM    7  C   UNL     1      -8.618   9.287  70.971  1.00  0.00    -0.101 A  
HETATM    8  C   UNL     1      -7.434   9.213  70.212  1.00  0.00    -0.099 A  
BRANCH   7   9
HETATM    9  N   UNL     1      -9.554  10.284  70.782  1.00  0.00     0.598 NA 
HETATM   10  C   UNL     1      -9.468  11.609  71.418  1.00  0.00    11.050 C  
HETATM   11  C   UNL     1      -9.414  12.707  70.346  1.00  0.00     5.447 C  
HETATM   12  N   UNL     1     -10.505  12.632  69.346  1.00  0.00     0.249 NA 
HETATM   13  C   UNL     1     -10.836  11.252  68.877  1.00  0.00    -0.208 C  
HETATM   14  C   UNL     1     -10.764  10.141  69.958  1.00  0.00    -0.305 C  
BRANCH  12  15
HETATM   15  C   UNL     1     -11.043  13.734  68.674  1.00  0.00    -0.267 C  
HETATM   16  N   UNL     1     -12.090  14.293  69.238  1.00  0.00    -0.329 NA 
HETATM   17  C   UNL     1     -12.626  15.500  68.752  1.00  0.00     0.590 A  
HETATM   18  C   UNL     1     -12.039  16.176  67.695  1.00  0.00     0.935 A  
HETATM   19  C   UNL     1     -12.508  17.457  67.324  1.00  0.00     4.301 A  
HETATM   20  C   UNL     1     -10.967  15.487  66.876  1.00  0.00    -0.268 C  
HETATM   21  F   UNL     1     -14.383  15.456  70.367  1.00  0.00     0.016 F  
HETATM   22  C   UNL     1     -13.618  18.025  67.936  1.00  0.00     9.429 A  
HETATM   23  N   UNL     1     -10.498  14.181  67.452  1.00  0.00    -0.269 NA 
HETATM   24  C   UNL     1     -13.750  16.086  69.365  1.00  0.00     3.668 A  
HETATM   25  C   UNL     1     -14.256  17.325  68.948  1.00  0.00    10.532 A  
BRANCH  20  26
HETATM   26  C   UNL     1     -11.497  15.375  65.423  1.00  0.00    -0.115 C  
HETATM   27  O   UNL     1     -10.282  17.358  64.700  1.00  0.00     0.604 OA 
HETATM   28  C   UNL     1     -10.787  16.162  64.352  1.00  0.00     0.256 C  
HETATM   29  O   UNL     1     -10.759  15.774  63.189  1.00  0.00     2.764 OA 
ENDBRANCH  20  26
BRANCH  23  30
HETATM   30  C   UNL     1      -9.688  13.402  66.543  1.00  0.00    -0.282 A  
HETATM   31  C   UNL     1      -9.601  11.911  64.585  1.00  0.00    -0.048 A  
HETATM   32  C   UNL     1     -10.298  12.777  65.439  1.00  0.00    -0.310 A  
HETATM   33  C   UNL     1     -10.337  10.901  63.739  1.00  0.00    -0.317 C  
HETATM   34  C   UNL     1      -8.216  11.916  64.617  1.00  0.00     1.802 A  
HETATM   35  F   UNL     1     -11.669  10.843  64.001  1.00  0.00     0.004 F  
HETATM   36  F   UNL     1     -10.212  11.132  62.405  1.00  0.00    -0.054 F  
HETATM   37  F   UNL     1      -9.865   9.640  63.955  1.00  0.00    -0.220 F  
HETATM   38  C   UNL     1      -7.555  12.605  65.627  1.00  0.00     3.135 A  
HETATM   39  C   UNL     1      -8.275  13.237  66.653  1.00  0.00     0.330 A  
BRANCH  39  40
HETATM   40  O   UNL     1      -7.626  13.795  67.729  1.00  0.00    -0.135 OA 
HETATM   41  C   UNL     1      -7.199  15.151  67.617  1.00  0.00    -0.185 C  
ENDBRANCH  39  40
ENDBRANCH  23  30
ENDBRANCH  12  15
ENDBRANCH   7   9
ENDBRANCH   2   3
TORSDOF 6
ENDMDL
MODEL      163
REMARK 921   NORMALIZED FREE ENERGY PREDICTED BY IDOCK:   42.03 KCAL/MOL
REMARK 922        TOTAL FREE ENERGY PREDICTED BY IDOCK:   55.53 KCAL/MOL
REMARK 923 INTER-LIGAND FREE ENERGY PREDICTED BY IDOCK:   22.10 KCAL/MOL
REMARK 924 INTRA-LIGAND FREE ENERGY PREDICTED BY IDOCK:   33.43 KCAL/MOL
REMARK 927      BINDING AFFINITY PREDICTED BY RF-SCORE:    0.00 PKD
ROOT
HETATM    1  C   UNL     1      -6.804  19.246  66.640  1.00  0.00    -0.194 C  
HETATM    2  O   UNL     1      -7.032  19.244  68.046  1.00  0.00    -0.241 OA 
ENDROOT
BRANCH   2   3
HETATM    3  C   UNL     1      -8.127  18.555  68.501  1.00  0.00    -0.330 A  
HETATM    4  C   UNL     1      -9.190  19.103  69.208  1.00  0.00    -0.085 A  
HETATM    5  C   UNL     1     -10.225  18.273  69.632  1.00  0.00     0.468 A  
HETATM    6  C   UNL     1     -10.202  16.900  69.342  1.00  0.00    -0.208 A  
HETATM    7  C   UNL     1      -9.161  16.309  68.611  1.00  0.00    -0.227 A  
HETATM    8  C   UNL     1      -8.129  17.179  68.210  1.00  0.00    -0.239 A  
BRANCH   7   9
HETATM    9  N   UNL     1      -9.152  14.963  68.304  1.00  0.00    -0.174 NA 
HETATM   10  C   UNL     1      -7.954  14.115  68.412  1.00  0.00    -0.142 C  
HETATM   11  C   UNL     1      -8.209  12.962  69.395  1.00  0.00     1.033 C  
HETATM   12  N   UNL     1      -9.431  12.177  69.104  1.00  0.00     0.361 NA 
HETATM   13  C   UNL     1     -10.619  12.987  68.697  1.00  0.00    -0.236 C  
HETATM   14  C   UNL     1     -10.317  14.219  67.802  1.00  0.00    -0.238 C  
BRANCH  12  15
HETATM   15  C   UNL     1      -9.595  10.822  69.408  1.00  0.00    -0.030 C  
HETATM   16  N   UNL     1     -10.038  10.556  70.616  1.00  0.00     0.659 NA 
HETATM   17  C   UNL     1     -10.396   9.247  70.992  1.00  0.00    -0.318 A  
HETATM   18  C   UNL     1     -10.348   8.199  70.090  1.00  0.00    -0.215 A  
HETATM   19  C   UNL     1     -10.854   6.928  70.450  1.00  0.00    -0.297 A  
HETATM   20  C   UNL     1      -9.655   8.396  68.757  1.00  0.00    -0.149 C  
HETATM   21  F   UNL     1     -10.898   9.947  73.218  1.00  0.00     3.391 F  
HETATM   22  C   UNL     1     -11.316   6.674  71.735  1.00  0.00    -0.320 A  
HETATM   23  N   UNL     1      -9.266   9.819  68.472  1.00  0.00    -0.133 NA 
HETATM   24  C   UNL     1     -10.868   8.977  72.291  1.00  0.00    -0.019 A  
HETATM   25  C   UNL     1     -11.302   7.699  72.667  1.00  0.00    -0.423 A  
BRANCH  20  26
HETATM   26  C   UNL     1      -8.466   7.401  68.704  1.00  0.00    -0.129 C  
HETATM   27  O   UNL     1      -9.275   6.358  66.657  1.00  0.00    -0.142 OA 
HETATM   28  C   UNL     1      -8.207   6.684  67.405  1.00  0.00    -0.121 C  
HETATM   29  O   UNL     1      -7.078   6.321  67.091  1.00  0.00    -0.070 OA 
ENDBRANCH  20  26
BRANCH  23  30
HETATM   30  C   UNL     1      -8.373   9.962  67.344  1.00  0.00    -0.118 A  
HETATM   31  C   UNL     1      -7.379  11.448  65.650  1.00  0.00     0.539 A  
HETATM   32  C   UNL     1      -8.134  11.245  66.813  1.00  0.00    -0.159 A  
HETATM   33  C   UNL     1      -7.531  12.713  64.841  1.00  0.00     6.294 C  
HETATM   34  C   UNL     1      -6.575  10.417  65.189  1.00  0.00    -0.090 A  
HETATM   35  F   UNL     1      -8.536  13.517  65.276  1.00  0.00     1.534 F  
HETATM   36  F   UNL     1      -6.403  13.472  64.824  1.00  0.00    10.644 F  
HETATM   37  F   UNL     1      -7.823  12.432  63.539  1.00  0.00     2.568 F  
HETATM   38  C   UNL     1      -6.695   9.151  65.748  1.00  0.00    -0.072 A  
HETATM   39  C   UNL     1      -7.667   8.888  66.726  1.00  0.00    -0.097 A  
BRANCH  39  40
HETATM   40  O   UNL     1      -7.884   7.608  67.177  1.00  0.00    -0.112 OA 
HETATM   41  C   UNL     1      -6.762   6.733  67.258  1.00  0.00    -0.067 C  
ENDBRANCH  39  40
ENDBRANCH  23  30
ENDBRANCH  12  15
ENDBRANCH   7   9
ENDBRANCH   2   3
TORSDOF 6
ENDMDL
MODEL      164
REMARK 921   NORMALIZED FREE ENERGY PREDICTED BY IDOCK:   43.21 KCAL/MOL
REMARK 922        TOTAL FREE ENERGY PREDICTED BY IDOCK:   57.13 KCAL/MOL
REMARK 923 INTER-LIGAND FREE ENERGY PREDICTED BY IDOCK:   39.00 KCAL/MOL
REMARK 924 INTRA-LIGAND FREE ENERGY PREDICTED BY IDOCK:   18.13 KCAL/MOL
REMARK 927      BINDING AFFINITY PREDICTED BY RF-SCORE:    0.00 PKD
ROOT
HETATM    1  C   UNL     1      -8.187   7.720  72.883  1.00  0.00    -0.133 C  
HETATM    2  O   UNL     1      -9.607   7.606  72.911  1.00  0.00    -0.176 OA 
ENDROOT
BRANCH   2   3
HETATM    3  C   UNL     1     -10.284   7.948  71.768  1.00  0.00    -0.196 A  
HETATM    4  C   UNL     1     -10.907   7.059  70.901  1.00  0.00    -0.268 A  
HETATM    5  C   UNL     1     -11.537   7.550  69.760  1.00  0.00     0.189 A  
HETATM    6  C   UNL     1     -11.551   8.927  69.491  1.00  0.00     0.477 A  
HETATM    7  C   UNL     1     -10.956   9.862  70.351  1.00  0.00    -0.318 A  
HETATM    8  C   UNL     1     -10.321   9.326  71.487  1.00  0.00    -0.364 A  
BRANCH   7   9
HETATM    9  N   UNL     1     -10.994  11.219  70.098  1.00  0.00     0.039 NA 
HETATM   10  C   UNL     1     -10.293  12.217  70.923  1.00  0.00     5.447 C  
HETATM   11  C   UNL     1      -9.292  13.004  70.063  1.00  0.00     3.325 C  
HETATM   12  N   UNL     1      -9.880  13.597  68.839  1.00  0.00    -0.052 NA 
HETATM   13  C   UNL     1     -10.842  12.715  68.111  1.00  0.00    -0.227 C  
HETATM   14  C   UNL     1     -11.759  11.839  69.006  1.00  0.00    -0.328 C  
BRANCH  12  15
HETATM   15  C   UNL     1      -9.426  14.771  68.229  1.00  0.00    -0.207 C  
HETATM   16  N   UNL     1      -9.004  15.712  69.043  1.00  0.00    -0.220 NA 
HETATM   17  C   UNL     1      -8.377  16.874  68.555  1.00  0.00    -0.257 A  
HETATM   18  C   UNL     1      -8.129  17.046  67.204  1.00  0.00    -0.216 A  
HETATM   19  C   UNL     1      -7.365  18.150  66.758  1.00  0.00    -0.236 A  
HETATM   20  C   UNL     1      -8.769  16.105  66.204  1.00  0.00    -0.323 C  
HETATM   21  F   UNL     1      -8.181  17.780  70.754  1.00  0.00     3.385 F  
HETATM   22  C   UNL     1      -6.932  19.132  67.639  1.00  0.00    -0.237 A  
HETATM   23  N   UNL     1      -9.459  14.924  66.828  1.00  0.00    -0.239 NA 
HETATM   24  C   UNL     1      -7.932  17.876  69.439  1.00  0.00     0.362 A  
HETATM   25  C   UNL     1      -7.237  19.005  68.986  1.00  0.00    -0.351 A  
BRANCH  20  26
HETATM   26  C   UNL     1      -9.691  16.958  65.294  1.00  0.00     0.693 C  
HETATM   27  O   UNL     1      -9.970  18.683  66.990  1.00  0.00    -0.310 OA 
HETATM   28  C   UNL     1      -9.923  18.396  65.678  1.00  0.00     0.301 C  
HETATM   29  O   UNL     1     -10.162  19.251  64.831  1.00  0.00     0.699 OA 
ENDBRANCH  20  26
BRANCH  23  30
HETATM   30  C   UNL     1     -10.293  14.186  65.906  1.00  0.00    -0.316 A  
HETATM   31  C   UNL     1     -11.947  12.392  65.573  1.00  0.00    -0.453 A  
HETATM   32  C   UNL     1     -11.195  13.229  66.409  1.00  0.00    -0.325 A  
HETATM   33  C   UNL     1     -12.514  11.092  66.087  1.00  0.00     3.555 C  
HETATM   34  C   UNL     1     -12.063  12.721  64.231  1.00  0.00    -0.497 A  
HETATM   35  F   UNL     1     -12.106  10.784  67.347  1.00  0.00     0.042 F  
HETATM   36  F   UNL     1     -13.873  11.073  66.103  1.00  0.00     8.748 F  
HETATM   37  F   UNL     1     -12.125  10.043  65.308  1.00  0.00     3.065 F  
HETATM   38  C   UNL     1     -11.270  13.731  63.702  1.00  0.00     0.384 A  
HETATM   39  C   UNL     1     -10.305  14.375  64.492  1.00  0.00     0.030 A  
BRANCH  39  40
HETATM   40  O   UNL     1      -9.423  15.271  63.937  1.00  0.00     3.567 OA 
HETATM   41  C   UNL     1      -9.961  16.438  63.321  1.00  0.00    10.944 C  
ENDBRANCH  39  40
ENDBRANCH  23  30
ENDBRANCH  12  15
ENDBRANCH   7   9
ENDBRANCH   2   3
TORSDOF 6
ENDMDL
MODEL      165
REMARK 921   NORMALIZED FREE ENERGY PREDICTED BY IDOCK:   43.34 KCAL/MOL
REMARK 922        TOTAL FREE ENERGY PREDICTED BY IDOCK:   57.30 KCAL/MOL
REMARK 923 INTER-LIGAND FREE ENERGY PREDICTED BY IDOCK:   58.64 KCAL/MOL
REMARK 924 INTRA-LIGAND FREE ENERGY PREDICTED BY IDOCK:   -1.34 KCAL/MOL
REMARK 927      BINDING AFFINITY PREDICTED BY RF-SCORE:    0.00 PKD
ROOT
HETATM    1  C   UNL     1      -9.314   4.234  62.991  1.00  0.00    -0.134 C  
HETATM    2  O   UNL     1     -10.174   4.557  64.080  1.00  0.00     0.063 OA 
ENDROOT
BRANCH   2   3
HETATM    3  C   UNL     1     -10.496   5.879  64.253  1.00  0.00     3.937 A  
HETATM    4  C   UNL     1     -11.338   6.620  63.432  1.00  0.00    14.150 A  
HETATM    5  C   UNL     1     -11.552   7.966  63.717  1.00  0.00    20.698 A  
HETATM    6  C   UNL     1     -10.934   8.568  64.824  1.00  0.00     8.126 A  
HETATM    7  C   UNL     1     -10.097   7.852  65.693  1.00  0.00     1.303 A  
HETATM    8  C   UNL     1      -9.896   6.498  65.365  1.00  0.00     1.120 A  
BRANCH   7   9
HETATM    9  N   UNL     1      -9.511   8.439  66.796  1.00  0.00    -0.180 NA 
HETATM   10  C   UNL     1      -8.062   8.669  66.918  1.00  0.00    -0.098 C  
HETATM   11  C   UNL     1      -7.779  10.168  67.101  1.00  0.00    -0.092 C  
HETATM   12  N   UNL     1      -8.544  10.799  68.201  1.00  0.00    -0.125 NA 
HETATM   13  C   UNL     1      -9.972  10.369  68.304  1.00  0.00    -0.151 C  
HETATM   14  C   UNL     1     -10.246   8.873  67.994  1.00  0.00    -0.213 C  
BRANCH  12  15
HETATM   15  C   UNL     1      -8.101  11.893  68.951  1.00  0.00     0.067 C  
HETATM   16  N   UNL     1      -7.376  11.606  70.009  1.00  0.00     0.498 NA 
HETATM   17  C   UNL     1      -6.737  12.615  70.754  1.00  0.00     1.825 A  
HETATM   18  C   UNL     1      -6.800  13.943  70.372  1.00  0.00     0.410 A  
HETATM   19  C   UNL     1      -6.029  14.915  71.051  1.00  0.00     0.045 A  
HETATM   20  C   UNL     1      -7.780  14.361  69.295  1.00  0.00    -0.002 C  
HETATM   21  F   UNL     1      -5.902  11.025  72.327  1.00  0.00     0.504 F  
HETATM   22  C   UNL     1      -5.272  14.584  72.167  1.00  0.00    -0.168 A  
HETATM   23  N   UNL     1      -8.449  13.212  68.593  1.00  0.00    -0.041 NA 
HETATM   24  C   UNL     1      -5.966  12.291  71.887  1.00  0.00     1.702 A  
HETATM   25  C   UNL     1      -5.258  13.268  72.601  1.00  0.00     0.038 A  
BRANCH  20  26
HETATM   26  C   UNL     1      -8.774  15.363  69.938  1.00  0.00     0.153 C  
HETATM   27  O   UNL     1      -7.869  17.247  68.688  1.00  0.00    -0.255 OA 
HETATM   28  C   UNL     1      -8.950  16.704  69.275  1.00  0.00    -0.052 C  
HETATM   29  O   UNL     1     -10.007  17.321  69.354  1.00  0.00    -0.172 OA 
ENDBRANCH  20  26
BRANCH  23  30
HETATM   30  C   UNL     1      -9.569  13.607  67.770  1.00  0.00    -0.224 A  
HETATM   31  C   UNL     1     -10.360  14.463  65.601  1.00  0.00    -0.360 A  
HETATM   32  C   UNL     1      -9.345  13.956  66.424  1.00  0.00    -0.226 A  
HETATM   33  C   UNL     1     -10.026  15.267  64.368  1.00  0.00     1.599 C  
HETATM   34  C   UNL     1     -11.679  14.316  66.000  1.00  0.00    -0.384 A  
HETATM   35  F   UNL     1      -8.701  15.542  64.243  1.00  0.00     3.895 F  
HETATM   36  F   UNL     1     -10.407  14.655  63.215  1.00  0.00     2.770 F  
HETATM   37  F   UNL     1     -10.654  16.477  64.384  1.00  0.00    -0.144 F  
HETATM   38  C   UNL     1     -11.960  13.874  67.287  1.00  0.00    -0.446 A  
HETATM   39  C   UNL     1     -10.926  13.640  68.208  1.00  0.00    -0.254 A  
BRANCH  39  40
HETATM   40  O   UNL     1     -11.206  13.343  69.520  1.00  0.00    -0.214 OA 
HETATM   41  C   UNL     1     -11.935  14.304  70.278  1.00  0.00    -0.329 C  
ENDBRANCH  39  40
ENDBRANCH  23  30
ENDBRANCH  12  15
ENDBRANCH   7   9
ENDBRANCH   2   3
TORSDOF 6
ENDMDL
MODEL      166
REMARK 921   NORMALIZED FREE ENERGY PREDICTED BY IDOCK:   46.48 KCAL/MOL
REMARK 922        TOTAL FREE ENERGY PREDICTED BY IDOCK:   61.54 KCAL/MOL
REMARK 923 INTER-LIGAND FREE ENERGY PREDICTED BY IDOCK:   56.37 KCAL/MOL
REMARK 924 INTRA-LIGAND FREE ENERGY PREDICTED BY IDOCK:    5.17 KCAL/MOL
REMARK 927      BINDING AFFINITY PREDICTED BY RF-SCORE:    0.00 PKD
ROOT
HETATM    1  C   UNL     1      -7.532   8.691  62.871  1.00  0.00    -0.104 C  
HETATM    2  O   UNL     1      -8.241   9.224  63.985  1.00  0.00    -0.144 OA 
ENDROOT
BRANCH   2   3
HETATM    3  C   UNL     1      -9.441   9.836  63.728  1.00  0.00    -0.000 A  
HETATM    4  C   UNL     1     -10.233   9.624  62.606  1.00  0.00     1.967 A  
HETATM    5  C   UNL     1     -11.420  10.339  62.466  1.00  0.00     3.652 A  
HETATM    6  C   UNL     1     -11.818  11.258  63.449  1.00  0.00     0.297 A  
HETATM    7  C   UNL     1     -11.062  11.485  64.609  1.00  0.00    -0.250 A  
HETATM    8  C   UNL     1      -9.865  10.752  64.708  1.00  0.00    -0.358 A  
BRANCH   7   9
HETATM    9  N   UNL     1     -11.469  12.370  65.588  1.00  0.00    -0.351 NA 
HETATM   10  C   UNL     1     -12.880  12.598  65.940  1.00  0.00     0.826 C  
HETATM   11  C   UNL     1     -13.117  12.262  67.420  1.00  0.00     4.401 C  
HETATM   12  N   UNL     1     -12.186  12.942  68.351  1.00  0.00    -0.095 NA 
HETATM   13  C   UNL     1     -10.764  12.996  67.895  1.00  0.00    -0.235 C  
HETATM   14  C   UNL     1     -10.556  13.216  66.373  1.00  0.00    -0.286 C  
BRANCH  12  15
HETATM   15  C   UNL     1     -12.500  13.297  69.667  1.00  0.00     0.036 C  
HETATM   16  N   UNL     1     -12.754  14.570  69.872  1.00  0.00    -0.182 NA 
HETATM   17  C   UNL     1     -13.236  15.030  71.111  1.00  0.00    -0.434 A  
HETATM   18  C   UNL     1     -13.515  14.154  72.146  1.00  0.00    -0.545 A  
HETATM   19  C   UNL     1     -14.138  14.625  73.326  1.00  0.00     1.328 A  
HETATM   20  C   UNL     1     -13.052  12.715  72.048  1.00  0.00    -0.366 C  
HETATM   21  F   UNL     1     -13.212  17.296  70.362  1.00  0.00     5.465 F  
HETATM   22  C   UNL     1     -14.394  15.976  73.517  1.00  0.00     1.591 A  
HETATM   23  N   UNL     1     -12.506  12.337  70.700  1.00  0.00    -0.285 NA 
HETATM   24  C   UNL     1     -13.501  16.398  71.316  1.00  0.00     2.493 A  
HETATM   25  C   UNL     1     -14.053  16.871  72.514  1.00  0.00     3.501 A  
BRANCH  20  26
HETATM   26  C   UNL     1     -12.061  12.468  73.216  1.00  0.00     6.331 C  
HETATM   27  O   UNL     1     -10.134  13.112  71.873  1.00  0.00     8.988 OA 
HETATM   28  C   UNL     1     -10.679  13.056  73.101  1.00  0.00    12.522 C  
HETATM   29  O   UNL     1     -10.037  13.375  74.096  1.00  0.00     8.377 OA 
ENDBRANCH  20  26
BRANCH  23  30
HETATM   30  C   UNL     1     -11.820  11.064  70.688  1.00  0.00    -0.333 A  
HETATM   31  C   UNL     1     -11.678   8.767  71.564  1.00  0.00    -0.377 A  
HETATM   32  C   UNL     1     -12.348   9.990  71.431  1.00  0.00    -0.512 A  
HETATM   33  C   UNL     1     -11.988   7.836  72.710  1.00  0.00    -0.129 C  
HETATM   34  C   UNL     1     -10.640   8.477  70.692  1.00  0.00    -0.241 A  
HETATM   35  F   UNL     1     -12.844   8.366  73.622  1.00  0.00     0.740 F  
HETATM   36  F   UNL     1     -12.530   6.656  72.306  1.00  0.00    -0.316 F  
HETATM   37  F   UNL     1     -10.859   7.519  73.407  1.00  0.00    -0.388 F  
HETATM   38  C   UNL     1     -10.146   9.474  69.859  1.00  0.00    -0.262 A  
HETATM   39  C   UNL     1     -10.639  10.785  69.939  1.00  0.00    -0.076 A  
BRANCH  39  40
HETATM   40  O   UNL     1     -10.056  11.802  69.220  1.00  0.00     0.034 OA 
HETATM   41  C   UNL     1      -8.677  11.670  68.883  1.00  0.00     0.087 C  
ENDBRANCH  39  40
ENDBRANCH  23  30
ENDBRANCH  12  15
ENDBRANCH   7   9
ENDBRANCH   2   3
TORSDOF 6
ENDMDL
MODEL      167
REMARK 921   NORMALIZED FREE ENERGY PREDICTED BY IDOCK:   50.04 KCAL/MOL
REMARK 922        TOTAL FREE ENERGY PREDICTED BY IDOCK:   66.35 KCAL/MOL
REMARK 923 INTER-LIGAND FREE ENERGY PREDICTED BY IDOCK:   60.92 KCAL/MOL
REMARK 924 INTRA-LIGAND FREE ENERGY PREDICTED BY IDOCK:    5.42 KCAL/MOL
REMARK 927      BINDING AFFINITY PREDICTED BY RF-SCORE:    0.00 PKD
ROOT
HETATM    1  C   UNL     1     -14.341  19.087  67.158  1.00  0.00     9.717 C  
HETATM    2  O   UNL     1     -14.125  17.852  66.482  1.00  0.00    12.190 OA 
ENDROOT
BRANCH   2   3
HETATM    3  C   UNL     1     -12.918  17.685  65.853  1.00  0.00    10.422 A  
HETATM    4  C   UNL     1     -12.002  18.694  65.578  1.00  0.00     4.659 A  
HETATM    5  C   UNL     1     -10.824  18.378  64.906  1.00  0.00     1.636 A  
HETATM    6  C   UNL     1     -10.557  17.056  64.518  1.00  0.00     1.292 A  
HETATM    7  C   UNL     1     -11.441  16.003  64.797  1.00  0.00    -0.201 A  
HETATM    8  C   UNL     1     -12.625  16.364  65.467  1.00  0.00     3.333 A  
BRANCH   7   9
HETATM    9  N   UNL     1     -11.165  14.699  64.438  1.00  0.00    -0.246 NA 
HETATM   10  C   UNL     1      -9.921  14.289  63.764  1.00  0.00     3.452 C  
HETATM   11  C   UNL     1      -9.172  13.256  64.619  1.00  0.00     1.451 C  
HETATM   12  N   UNL     1      -9.999  12.097  65.030  1.00  0.00    -0.248 NA 
HETATM   13  C   UNL     1     -11.392  12.434  65.452  1.00  0.00    -0.337 C  
HETATM   14  C   UNL     1     -12.082  13.568  64.647  1.00  0.00    -0.409 C  
BRANCH  12  15
HETATM   15  C   UNL     1      -9.501  10.811  65.265  1.00  0.00    -0.218 C  
HETATM   16  N   UNL     1      -9.740   9.924  64.325  1.00  0.00    -0.175 NA 
HETATM   17  C   UNL     1      -9.159   8.642  64.364  1.00  0.00     0.455 A  
HETATM   18  C   UNL     1      -8.272   8.284  65.363  1.00  0.00    -0.146 A  
HETATM   19  C   UNL     1      -7.590   7.046  65.297  1.00  0.00    -0.099 A  
HETATM   20  C   UNL     1      -8.118   9.176  66.578  1.00  0.00    -0.107 C  
HETATM   21  F   UNL     1     -10.310   7.981  62.380  1.00  0.00     3.501 F  
HETATM   22  C   UNL     1      -7.862   6.126  64.293  1.00  0.00    -0.114 A  
HETATM   23  N   UNL     1      -8.817  10.501  66.459  1.00  0.00    -0.142 NA 
HETATM   24  C   UNL     1      -9.427   7.702  63.351  1.00  0.00     3.079 A  
HETATM   25  C   UNL     1      -8.803   6.447  63.326  1.00  0.00     0.701 A  
BRANCH  20  26
HETATM   26  C   UNL     1      -8.552   8.349  67.816  1.00  0.00    -0.130 C  
HETATM   27  O   UNL     1      -9.034   6.374  66.476  1.00  0.00    -0.136 OA 
HETATM   28  C   UNL     1      -8.638   6.853  67.668  1.00  0.00    -0.121 C  
HETATM   29  O   UNL     1      -8.452   6.106  68.623  1.00  0.00    -0.113 OA 
ENDBRANCH  20  26
BRANCH  23  30
HETATM   30  C   UNL     1      -8.900  11.228  67.705  1.00  0.00    -0.141 A  
HETATM   31  C   UNL     1      -7.709  12.271  69.592  1.00  0.00     1.008 A  
HETATM   32  C   UNL     1      -7.716  11.668  68.326  1.00  0.00    -0.128 A  
HETATM   33  C   UNL     1      -6.457  12.289  70.433  1.00  0.00     0.474 C  
HETATM   34  C   UNL     1      -8.904  12.747  70.109  1.00  0.00     4.215 A  
HETATM   35  F   UNL     1      -5.437  11.565  69.902  1.00  0.00    -0.055 F  
HETATM   36  F   UNL     1      -5.976  13.544  70.644  1.00  0.00    -0.159 F  
HETATM   37  F   UNL     1      -6.685  11.755  71.667  1.00  0.00     2.063 F  
HETATM   38  C   UNL     1     -10.100  12.430  69.477  1.00  0.00     0.883 A  
HETATM   39  C   UNL     1     -10.118  11.578  68.361  1.00  0.00    -0.204 A  
BRANCH  39  40
HETATM   40  O   UNL     1     -11.307  11.148  67.822  1.00  0.00    -0.287 OA 
HETATM   41  C   UNL     1     -12.381  10.871  68.718  1.00  0.00     0.313 C  
ENDBRANCH  39  40
ENDBRANCH  23  30
ENDBRANCH  12  15
ENDBRANCH   7   9
ENDBRANCH   2   3
TORSDOF 6
ENDMDL
MODEL      168
REMARK 921   NORMALIZED FREE ENERGY PREDICTED BY IDOCK:   51.06 KCAL/MOL
REMARK 922        TOTAL FREE ENERGY PREDICTED BY IDOCK:   67.73 KCAL/MOL
REMARK 923 INTER-LIGAND FREE ENERGY PREDICTED BY IDOCK:   54.76 KCAL/MOL
REMARK 924 INTRA-LIGAND FREE ENERGY PREDICTED BY IDOCK:   12.97 KCAL/MOL
REMARK 927      BINDING AFFINITY PREDICTED BY RF-SCORE:    0.00 PKD
ROOT
HETATM    1  C   UNL     1      -8.118   7.815  72.954  1.00  0.00    -0.126 C  
HETATM    2  O   UNL     1      -9.538   7.860  73.055  1.00  0.00    -0.225 OA 
ENDROOT
BRANCH   2   3
HETATM    3  C   UNL     1     -10.220   8.463  72.029  1.00  0.00    -0.294 A  
HETATM    4  C   UNL     1     -10.950   7.805  71.046  1.00  0.00    -0.260 A  
HETATM    5  C   UNL     1     -11.570   8.551  70.047  1.00  0.00     0.182 A  
HETATM    6  C   UNL     1     -11.468   9.950  70.034  1.00  0.00    -0.274 A  
HETATM    7  C   UNL     1     -10.762  10.657  71.020  1.00  0.00     1.136 A  
HETATM    8  C   UNL     1     -10.140   9.867  72.006  1.00  0.00     2.382 A  
BRANCH   7   9
HETATM    9  N   UNL     1     -10.685  12.035  71.021  1.00  0.00     3.618 NA 
HETATM   10  C   UNL     1      -9.948  12.805  72.037  1.00  0.00    15.093 C  
HETATM   11  C   UNL     1      -8.853  13.649  71.369  1.00  0.00     9.823 C  
HETATM   12  N   UNL     1      -9.338  14.501  70.258  1.00  0.00     1.096 NA 
HETATM   13  C   UNL     1     -10.330  13.849  69.350  1.00  0.00     0.188 C  
HETATM   14  C   UNL     1     -11.351  12.905  70.039  1.00  0.00     0.127 C  
BRANCH  12  15
HETATM   15  C   UNL     1      -8.769  15.724  69.889  1.00  0.00     0.299 C  
HETATM   16  N   UNL     1      -8.502  16.551  70.875  1.00  0.00     4.243 NA 
HETATM   17  C   UNL     1      -7.785  17.743  70.657  1.00  0.00     4.107 A  
HETATM   18  C   UNL     1      -7.285  18.065  69.407  1.00  0.00     0.027 A  
HETATM   19  C   UNL     1      -6.443  19.190  69.247  1.00  0.00    -0.332 A  
HETATM   20  C   UNL     1      -7.731  17.267  68.199  1.00  0.00    -0.217 C  
HETATM   21  F   UNL     1      -8.003  18.380  72.947  1.00  0.00     7.337 F  
HETATM   22  C   UNL     1      -6.178  20.049  70.306  1.00  0.00    -0.386 A  
HETATM   23  N   UNL     1      -8.534  16.042  68.535  1.00  0.00    -0.180 NA 
HETATM   24  C   UNL     1      -7.509  18.621  71.722  1.00  0.00     6.179 A  
HETATM   25  C   UNL     1      -6.733  19.774  71.546  1.00  0.00     0.585 A  
BRANCH  20  26
HETATM   26  C   UNL     1      -8.458  18.247  67.241  1.00  0.00    -0.250 C  
HETATM   27  O   UNL     1     -10.660  17.594  68.053  1.00  0.00    -0.379 OA 
HETATM   28  C   UNL     1      -9.900  18.572  67.530  1.00  0.00    -0.310 C  
HETATM   29  O   UNL     1     -10.387  19.651  67.208  1.00  0.00    -0.392 OA 
ENDBRANCH  20  26
BRANCH  23  30
HETATM   30  C   UNL     1      -9.184  15.441  67.392  1.00  0.00    -0.197 A  
HETATM   31  C   UNL     1     -10.930  13.923  66.548  1.00  0.00    -0.300 A  
HETATM   32  C   UNL     1     -10.320  14.634  67.592  1.00  0.00    -0.233 A  
HETATM   33  C   UNL     1     -11.800  12.724  66.834  1.00  0.00    -0.371 C  
HETATM   34  C   UNL     1     -10.625  14.267  65.240  1.00  0.00    -0.396 A  
HETATM   35  F   UNL     1     -11.802  12.356  68.142  1.00  0.00    -0.341 F  
HETATM   36  F   UNL     1     -13.100  12.914  66.481  1.00  0.00     0.462 F  
HETATM   37  F   UNL     1     -11.372  11.629  66.144  1.00  0.00    -0.350 F  
HETATM   38  C   UNL     1      -9.577  15.144  64.988  1.00  0.00     0.321 A  
HETATM   39  C   UNL     1      -8.782  15.631  66.037  1.00  0.00    -0.069 A  
BRANCH  39  40
HETATM   40  O   UNL     1      -7.659  16.382  65.779  1.00  0.00     0.385 OA 
HETATM   41  C   UNL     1      -7.827  17.603  65.063  1.00  0.00     3.057 C  
ENDBRANCH  39  40
ENDBRANCH  23  30
ENDBRANCH  12  15
ENDBRANCH   7   9
ENDBRANCH   2   3
TORSDOF 6
ENDMDL
MODEL      169
REMARK 921   NORMALIZED FREE ENERGY PREDICTED BY IDOCK:   51.08 KCAL/MOL
REMARK 922        TOTAL FREE ENERGY PREDICTED BY IDOCK:   67.76 KCAL/MOL
REMARK 923 INTER-LIGAND FREE ENERGY PREDICTED BY IDOCK:   55.77 KCAL/MOL
REMARK 924 INTRA-LIGAND FREE ENERGY PREDICTED BY IDOCK:   11.98 KCAL/MOL
REMARK 927      BINDING AFFINITY PREDICTED BY RF-SCORE:    0.00 PKD
ROOT
HETATM    1  C   UNL     1      -8.347   4.432  64.867  1.00  0.00    -0.118 C  
HETATM    2  O   UNL     1      -9.700   4.674  64.496  1.00  0.00    -0.069 OA 
ENDROOT
BRANCH   2   3
HETATM    3  C   UNL     1      -9.991   5.902  63.957  1.00  0.00     2.762 A  
HETATM    4  C   UNL     1     -11.023   6.169  63.065  1.00  0.00     7.289 A  
HETATM    5  C   UNL     1     -11.181   7.464  62.578  1.00  0.00    12.868 A  
HETATM    6  C   UNL     1     -10.317   8.491  62.988  1.00  0.00     6.698 A  
HETATM    7  C   UNL     1      -9.279   8.271  63.905  1.00  0.00     1.394 A  
HETATM    8  C   UNL     1      -9.143   6.947  64.365  1.00  0.00     1.204 A  
BRANCH   7   9
HETATM    9  N   UNL     1      -8.445   9.288  64.327  1.00  0.00    -0.181 NA 
HETATM   10  C   UNL     1      -8.381  10.607  63.676  1.00  0.00    -0.043 C  
HETATM   11  C   UNL     1      -8.741  11.711  64.680  1.00  0.00     0.637 C  
HETATM   12  N   UNL     1      -7.958  11.664  65.938  1.00  0.00     0.256 NA 
HETATM   13  C   UNL     1      -7.741  10.295  66.496  1.00  0.00    -0.113 C  
HETATM   14  C   UNL     1      -7.500   9.175  65.448  1.00  0.00    -0.093 C  
BRANCH  12  15
HETATM   15  C   UNL     1      -7.640  12.782  66.717  1.00  0.00     0.335 C  
HETATM   16  N   UNL     1      -6.919  13.706  66.123  1.00  0.00     2.998 NA 
HETATM   17  C   UNL     1      -6.667  14.946  66.741  1.00  0.00     1.325 A  
HETATM   18  C   UNL     1      -7.214  15.263  67.972  1.00  0.00    -0.138 A  
HETATM   19  C   UNL     1      -7.068  16.567  68.500  1.00  0.00    -0.164 A  
HETATM   20  C   UNL     1      -7.876  14.175  68.794  1.00  0.00    -0.114 C  
HETATM   21  F   UNL     1      -5.301  15.659  64.918  1.00  0.00     6.667 F  
HETATM   22  C   UNL     1      -6.299  17.525  67.853  1.00  0.00    -0.170 A  
HETATM   23  N   UNL     1      -8.052  12.874  68.062  1.00  0.00    -0.148 NA 
HETATM   24  C   UNL     1      -5.889  15.926  66.094  1.00  0.00     2.774 A  
HETATM   25  C   UNL     1      -5.688  17.195  66.653  1.00  0.00    -0.221 A  
BRANCH  20  26
HETATM   26  C   UNL     1      -7.075  14.045  70.116  1.00  0.00     0.402 C  
HETATM   27  O   UNL     1      -6.436  16.395  70.100  1.00  0.00    -0.080 OA 
HETATM   28  C   UNL     1      -6.712  15.311  70.846  1.00  0.00     0.695 C  
HETATM   29  O   UNL     1      -6.574  15.327  72.065  1.00  0.00     1.468 OA 
ENDBRANCH  20  26
BRANCH  23  30
HETATM   30  C   UNL     1      -8.425  11.772  68.920  1.00  0.00     0.099 A  
HETATM   31  C   UNL     1      -9.877   9.817  69.285  1.00  0.00    -0.208 A  
HETATM   32  C   UNL     1      -9.378  10.839  68.467  1.00  0.00    -0.174 A  
HETATM   33  C   UNL     1     -11.198   9.156  68.978  1.00  0.00     0.216 C  
HETATM   34  C   UNL     1      -9.194   9.502  70.450  1.00  0.00    -0.305 A  
HETATM   35  F   UNL     1     -11.871   9.740  67.952  1.00  0.00     0.119 F  
HETATM   36  F   UNL     1     -11.074   7.839  68.662  1.00  0.00    -0.102 F  
HETATM   37  F   UNL     1     -12.039   9.214  70.050  1.00  0.00    -0.006 F  
HETATM   38  C   UNL     1      -8.172  10.333  70.891  1.00  0.00     1.657 A  
HETATM   39  C   UNL     1      -7.869  11.522  70.209  1.00  0.00     2.426 A  
BRANCH  39  40
HETATM   40  O   UNL     1      -6.958  12.415  70.721  1.00  0.00     1.209 OA 
HETATM   41  C   UNL     1      -6.280  12.057  71.923  1.00  0.00     2.722 C  
ENDBRANCH  39  40
ENDBRANCH  23  30
ENDBRANCH  12  15
ENDBRANCH   7   9
ENDBRANCH   2   3
TORSDOF 6
ENDMDL
MODEL      170
REMARK 921   NORMALIZED FREE ENERGY PREDICTED BY IDOCK:   52.23 KCAL/MOL
REMARK 922        TOTAL FREE ENERGY PREDICTED BY IDOCK:   69.32 KCAL/MOL
REMARK 923 INTER-LIGAND FREE ENERGY PREDICTED BY IDOCK:   70.32 KCAL/MOL
REMARK 924 INTRA-LIGAND FREE ENERGY PREDICTED BY IDOCK:   -1.00 KCAL/MOL
REMARK 927      BINDING AFFINITY PREDICTED BY RF-SCORE:    0.00 PKD
ROOT
HETATM    1  C   UNL     1     -11.135  20.347  72.853  1.00  0.00     9.714 C  
HETATM    2  O   UNL     1     -11.332  18.977  72.520  1.00  0.00     3.521 OA 
ENDROOT
BRANCH   2   3
HETATM    3  C   UNL     1     -10.223  18.169  72.514  1.00  0.00     5.759 A  
HETATM    4  C   UNL     1      -9.030  18.427  73.178  1.00  0.00    11.168 A  
HETATM    5  C   UNL     1      -7.976  17.525  73.058  1.00  0.00    15.471 A  
HETATM    6  C   UNL     1      -8.117  16.363  72.285  1.00  0.00    12.664 A  
HETATM    7  C   UNL     1      -9.311  16.049  71.618  1.00  0.00     5.434 A  
HETATM    8  C   UNL     1     -10.349  16.992  71.754  1.00  0.00     3.912 A  
BRANCH   7   9
HETATM    9  N   UNL     1      -9.457  14.893  70.879  1.00  0.00     1.568 NA 
HETATM   10  C   UNL     1     -10.710  14.122  70.818  1.00  0.00     1.294 C  
HETATM   11  C   UNL     1     -11.207  14.033  69.368  1.00  0.00    -0.237 C  
HETATM   12  N   UNL     1     -10.192  13.536  68.409  1.00  0.00    -0.242 NA 
HETATM   13  C   UNL     1      -8.814  14.075  68.614  1.00  0.00    -0.104 C  
HETATM   14  C   UNL     1      -8.382  14.269  70.092  1.00  0.00     1.485 C  
BRANCH  12  15
HETATM   15  C   UNL     1     -10.486  12.824  67.242  1.00  0.00    -0.232 C  
HETATM   16  N   UNL     1     -11.310  13.412  66.404  1.00  0.00    -0.305 NA 
HETATM   17  C   UNL     1     -11.561  12.877  65.127  1.00  0.00    -0.332 A  
HETATM   18  C   UNL     1     -10.908  11.742  64.680  1.00  0.00    -0.363 A  
HETATM   19  C   UNL     1     -11.066  11.312  63.342  1.00  0.00    -0.187 A  
HETATM   20  C   UNL     1     -10.112  10.906  65.662  1.00  0.00    -0.261 C  
HETATM   21  F   UNL     1     -13.139  14.599  64.635  1.00  0.00    -0.216 F  
HETATM   22  C   UNL     1     -11.944  11.952  62.478  1.00  0.00     1.398 A  
HETATM   23  N   UNL     1      -9.944  11.542  67.014  1.00  0.00    -0.198 NA 
HETATM   24  C   UNL     1     -12.449  13.518  64.241  1.00  0.00    -0.252 A  
HETATM   25  C   UNL     1     -12.657  13.048  62.937  1.00  0.00     0.455 A  
BRANCH  20  26
HETATM   26  C   UNL     1     -10.766   9.501  65.709  1.00  0.00     0.778 C  
HETATM   27  O   UNL     1      -8.615   8.365  65.595  1.00  0.00    -0.157 OA 
HETATM   28  C   UNL     1      -9.884   8.325  66.037  1.00  0.00     0.046 C  
HETATM   29  O   UNL     1     -10.331   7.328  66.595  1.00  0.00    -0.239 OA 
ENDBRANCH  20  26
BRANCH  23  30
HETATM   30  C   UNL     1      -9.431  10.640  68.020  1.00  0.00    -0.158 A  
HETATM   31  C   UNL     1      -7.462   9.625  69.097  1.00  0.00    -0.079 A  
HETATM   32  C   UNL     1      -8.040  10.560  68.228  1.00  0.00    -0.115 A  
HETATM   33  C   UNL     1      -6.015   9.225  68.952  1.00  0.00    -0.043 C  
HETATM   34  C   UNL     1      -8.274   8.984  70.021  1.00  0.00    -0.128 A  
HETATM   35  F   UNL     1      -5.417   9.746  67.849  1.00  0.00    -0.039 F  
HETATM   36  F   UNL     1      -5.252   9.589  70.017  1.00  0.00    -0.031 F  
HETATM   37  F   UNL     1      -5.887   7.872  68.835  1.00  0.00    -0.030 F  
HETATM   38  C   UNL     1      -9.654   9.111  69.926  1.00  0.00    -0.206 A  
HETATM   39  C   UNL     1     -10.238   9.825  68.868  1.00  0.00    -0.200 A  
BRANCH  39  40
HETATM   40  O   UNL     1     -11.601   9.833  68.691  1.00  0.00     0.092 OA 
HETATM   41  C   UNL     1     -12.376  10.679  69.537  1.00  0.00    -0.083 C  
ENDBRANCH  39  40
ENDBRANCH  23  30
ENDBRANCH  12  15
ENDBRANCH   7   9
ENDBRANCH   2   3
TORSDOF 6
ENDMDL
MODEL      171
REMARK 921   NORMALIZED FREE ENERGY PREDICTED BY IDOCK:   52.44 KCAL/MOL
REMARK 922        TOTAL FREE ENERGY PREDICTED BY IDOCK:   69.60 KCAL/MOL
REMARK 923 INTER-LIGAND FREE ENERGY PREDICTED BY IDOCK:   69.80 KCAL/MOL
REMARK 924 INTRA-LIGAND FREE ENERGY PREDICTED BY IDOCK:   -0.20 KCAL/MOL
REMARK 927      BINDING AFFINITY PREDICTED BY RF-SCORE:    0.00 PKD
ROOT
HETATM    1  C   UNL     1      -6.855  11.411  73.154  1.00  0.00     7.609 C  
HETATM    2  O   UNL     1      -8.057  10.673  73.352  1.00  0.00     8.257 OA 
ENDROOT
BRANCH   2   3
HETATM    3  C   UNL     1      -9.107  10.951  72.513  1.00  0.00    13.893 A  
HETATM    4  C   UNL     1     -10.194  11.760  72.819  1.00  0.00    18.247 A  
HETATM    5  C   UNL     1     -11.203  11.929  71.873  1.00  0.00     5.376 A  
HETATM    6  C   UNL     1     -11.120  11.299  70.622  1.00  0.00     0.726 A  
HETATM    7  C   UNL     1     -10.029  10.494  70.262  1.00  0.00     0.455 A  
HETATM    8  C   UNL     1      -9.036  10.338  71.248  1.00  0.00     2.871 A  
BRANCH   7   9
HETATM    9  N   UNL     1      -9.936   9.896  69.021  1.00  0.00    -0.177 NA 
HETATM   10  C   UNL     1      -8.657   9.519  68.396  1.00  0.00    -0.120 C  
HETATM   11  C   UNL     1      -8.628   8.009  68.121  1.00  0.00    -0.126 C  
HETATM   12  N   UNL     1      -9.796   7.509  67.359  1.00  0.00    -0.156 NA 
HETATM   13  C   UNL     1     -11.111   8.091  67.767  1.00  0.00     0.339 C  
HETATM   14  C   UNL     1     -11.087   9.594  68.157  1.00  0.00    -0.050 C  
BRANCH  12  15
HETATM   15  C   UNL     1      -9.770   6.407  66.499  1.00  0.00    -0.129 C  
HETATM   16  N   UNL     1     -10.909   6.109  65.915  1.00  0.00     0.732 NA 
HETATM   17  C   UNL     1     -10.982   5.127  64.909  1.00  0.00     1.108 A  
HETATM   18  C   UNL     1      -9.848   4.476  64.455  1.00  0.00     0.044 A  
HETATM   19  C   UNL     1      -9.927   3.605  63.343  1.00  0.00    -0.172 A  
HETATM   20  C   UNL     1      -8.549   4.621  65.222  1.00  0.00    -0.133 C  
HETATM   21  F   UNL     1     -13.347   5.388  64.722  1.00  0.00     3.698 F  
HETATM   22  C   UNL     1     -11.144   3.307  62.746  1.00  0.00     0.002 A  
HETATM   23  N   UNL     1      -8.591   5.658  66.309  1.00  0.00    -0.123 NA 
HETATM   24  C   UNL     1     -12.210   4.817  64.295  1.00  0.00     3.859 A  
HETATM   25  C   UNL     1     -12.296   3.900  63.239  1.00  0.00     4.379 A  
BRANCH  20  26
HETATM   26  C   UNL     1      -8.148   3.208  65.721  1.00  0.00    -0.086 C  
HETATM   27  O   UNL     1      -6.762   2.780  63.765  1.00  0.00    -0.030 OA 
HETATM   28  C   UNL     1      -6.962   2.544  65.073  1.00  0.00    -0.048 C  
HETATM   29  O   UNL     1      -6.267   1.740  65.686  1.00  0.00    -0.021 OA 
ENDBRANCH  20  26
BRANCH  23  30
HETATM   30  C   UNL     1      -7.459   5.603  67.207  1.00  0.00    -0.084 A  
HETATM   31  C   UNL     1      -6.456   4.636  69.237  1.00  0.00    -0.036 A  
HETATM   32  C   UNL     1      -7.459   4.666  68.258  1.00  0.00    -0.066 A  
HETATM   33  C   UNL     1      -6.704   3.991  70.578  1.00  0.00    -0.033 C  
HETATM   34  C   UNL     1      -5.270   5.312  68.998  1.00  0.00     0.000 A  
HETATM   35  F   UNL     1      -7.992   3.595  70.759  1.00  0.00    -0.051 F  
HETATM   36  F   UNL     1      -5.926   2.897  70.795  1.00  0.00    -0.015 F  
HETATM   37  F   UNL     1      -6.440   4.856  71.598  1.00  0.00    -0.025 F  
HETATM   38  C   UNL     1      -5.179   6.173  67.911  1.00  0.00    -0.004 A  
HETATM   39  C   UNL     1      -6.294   6.418  67.094  1.00  0.00    -0.037 A  
BRANCH  39  40
HETATM   40  O   UNL     1      -6.248   7.375  66.109  1.00  0.00    -0.039 OA 
HETATM   41  C   UNL     1      -5.374   8.485  66.301  1.00  0.00    -0.031 C  
ENDBRANCH  39  40
ENDBRANCH  23  30
ENDBRANCH  12  15
ENDBRANCH   7   9
ENDBRANCH   2   3
TORSDOF 6
ENDMDL
MODEL      172
REMARK 921   NORMALIZED FREE ENERGY PREDICTED BY IDOCK:   57.88 KCAL/MOL
REMARK 922        TOTAL FREE ENERGY PREDICTED BY IDOCK:   76.95 KCAL/MOL
REMARK 923 INTER-LIGAND FREE ENERGY PREDICTED BY IDOCK:   72.34 KCAL/MOL
REMARK 924 INTRA-LIGAND FREE ENERGY PREDICTED BY IDOCK:    4.61 KCAL/MOL
REMARK 927      BINDING AFFINITY PREDICTED BY RF-SCORE:    0.00 PKD
ROOT
HETATM    1  C   UNL     1      -9.147   2.037  72.058  1.00  0.00    -0.080 C  
HETATM    2  O   UNL     1      -9.703   3.272  72.500  1.00  0.00    -0.124 OA 
ENDROOT
BRANCH   2   3
HETATM    3  C   UNL     1      -8.899   4.381  72.428  1.00  0.00    -0.113 A  
HETATM    4  C   UNL     1      -7.879   4.699  73.316  1.00  0.00    -0.096 A  
HETATM    5  C   UNL     1      -7.161   5.878  73.132  1.00  0.00    -0.086 A  
HETATM    6  C   UNL     1      -7.456   6.733  72.059  1.00  0.00    -0.093 A  
HETATM    7  C   UNL     1      -8.461   6.439  71.125  1.00  0.00    -0.124 A  
HETATM    8  C   UNL     1      -9.171   5.244  71.352  1.00  0.00    -0.176 A  
BRANCH   7   9
HETATM    9  N   UNL     1      -8.733   7.268  70.055  1.00  0.00    -0.140 NA 
HETATM   10  C   UNL     1      -9.478   8.531  70.177  1.00  0.00    -0.165 C  
HETATM   11  C   UNL     1      -8.611   9.705  69.700  1.00  0.00    -0.187 C  
HETATM   12  N   UNL     1      -8.032   9.520  68.348  1.00  0.00    -0.093 NA 
HETATM   13  C   UNL     1      -7.516   8.146  68.066  1.00  0.00    -0.097 C  
HETATM   14  C   UNL     1      -8.349   6.981  68.664  1.00  0.00    -0.122 C  
BRANCH  12  15
HETATM   15  C   UNL     1      -7.735  10.561  67.463  1.00  0.00    -0.098 C  
HETATM   16  N   UNL     1      -6.992  10.239  66.428  1.00  0.00    -0.104 NA 
HETATM   17  C   UNL     1      -6.755  11.152  65.384  1.00  0.00     0.449 A  
HETATM   18  C   UNL     1      -7.341  12.407  65.377  1.00  0.00     3.720 A  
HETATM   19  C   UNL     1      -7.207  13.246  64.246  1.00  0.00    15.414 A  
HETATM   20  C   UNL     1      -8.031  12.912  66.627  1.00  0.00     0.374 C  
HETATM   21  F   UNL     1      -5.330   9.605  64.255  1.00  0.00    -0.055 F  
HETATM   22  C   UNL     1      -6.414  12.881  63.166  1.00  0.00    10.687 A  
HETATM   23  N   UNL     1      -8.189  11.875  67.703  1.00  0.00    -0.139 NA 
HETATM   24  C   UNL     1      -5.955  10.793  64.283  1.00  0.00     0.160 A  
HETATM   25  C   UNL     1      -5.766  11.656  63.195  1.00  0.00     1.749 A  
BRANCH  20  26
HETATM   26  C   UNL     1      -7.274  14.183  67.091  1.00  0.00     0.207 C  
HETATM   27  O   UNL     1      -5.302  13.634  65.771  1.00  0.00     5.225 OA 
HETATM   28  C   UNL     1      -6.062  14.607  66.302  1.00  0.00     4.750 C  
HETATM   29  O   UNL     1      -5.726  15.784  66.233  1.00  0.00     1.053 OA 
ENDBRANCH  20  26
BRANCH  23  30
HETATM   30  C   UNL     1      -8.593  12.420  68.980  1.00  0.00     0.457 A  
HETATM   31  C   UNL     1      -7.949  13.634  71.023  1.00  0.00     5.375 A  
HETATM   32  C   UNL     1      -7.671  13.177  69.727  1.00  0.00     1.269 A  
HETATM   33  C   UNL     1      -6.834  14.001  71.970  1.00  0.00     2.775 C  
HETATM   34  C   UNL     1      -9.264  13.632  71.462  1.00  0.00    10.311 A  
HETATM   35  F   UNL     1      -5.597  13.712  71.487  1.00  0.00    -0.173 F  
HETATM   36  F   UNL     1      -6.826  15.320  72.299  1.00  0.00     1.582 F  
HETATM   37  F   UNL     1      -6.939  13.315  73.144  1.00  0.00     2.960 F  
HETATM   38  C   UNL     1     -10.238  12.987  70.710  1.00  0.00     5.150 A  
HETATM   39  C   UNL     1      -9.894  12.280  69.547  1.00  0.00     1.116 A  
BRANCH  39  40
HETATM   40  O   UNL     1     -10.828  11.522  68.881  1.00  0.00    -0.202 OA 
HETATM   41  C   UNL     1     -12.174  11.993  68.863  1.00  0.00     0.020 C  
ENDBRANCH  39  40
ENDBRANCH  23  30
ENDBRANCH  12  15
ENDBRANCH   7   9
ENDBRANCH   2   3
TORSDOF 6
ENDMDL
MODEL      173
REMARK 921   NORMALIZED FREE ENERGY PREDICTED BY IDOCK:   62.54 KCAL/MOL
REMARK 922        TOTAL FREE ENERGY PREDICTED BY IDOCK:   83.24 KCAL/MOL
REMARK 923 INTER-LIGAND FREE ENERGY PREDICTED BY IDOCK:   81.10 KCAL/MOL
REMARK 924 INTRA-LIGAND FREE ENERGY PREDICTED BY IDOCK:    2.14 KCAL/MOL
REMARK 927      BINDING AFFINITY PREDICTED BY RF-SCORE:    0.00 PKD
ROOT
HETATM    1  C   UNL     1      -6.104   8.574  68.040  1.00  0.00    -0.051 C  
HETATM    2  O   UNL     1      -5.718   8.666  69.408  1.00  0.00    -0.034 OA 
ENDROOT
BRANCH   2   3
HETATM    3  C   UNL     1      -6.722   8.677  70.342  1.00  0.00    -0.038 A  
HETATM    4  C   UNL     1      -6.852   7.785  71.400  1.00  0.00    -0.049 A  
HETATM    5  C   UNL     1      -7.943   7.902  72.257  1.00  0.00    -0.151 A  
HETATM    6  C   UNL     1      -8.898   8.912  72.063  1.00  0.00    -0.069 A  
HETATM    7  C   UNL     1      -8.793   9.848  71.023  1.00  0.00     0.977 A  
HETATM    8  C   UNL     1      -7.683   9.690  70.172  1.00  0.00    -0.179 A  
BRANCH   7   9
HETATM    9  N   UNL     1      -9.719  10.858  70.849  1.00  0.00     2.559 NA 
HETATM   10  C   UNL     1      -9.502  12.243  71.299  1.00  0.00    12.517 C  
HETATM   11  C   UNL     1      -9.575  13.205  70.104  1.00  0.00     3.488 C  
HETATM   12  N   UNL     1     -10.803  13.063  69.287  1.00  0.00    -0.075 NA 
HETATM   13  C   UNL     1     -11.239  11.655  69.042  1.00  0.00    -0.262 C  
HETATM   14  C   UNL     1     -11.040  10.675  70.230  1.00  0.00    -0.233 C  
BRANCH  12  15
HETATM   15  C   UNL     1     -11.403  14.103  68.569  1.00  0.00    -0.283 C  
HETATM   16  N   UNL     1     -11.903  13.776  67.399  1.00  0.00    -0.380 NA 
HETATM   17  C   UNL     1     -12.671  14.688  66.650  1.00  0.00     0.624 A  
HETATM   18  C   UNL     1     -12.976  15.946  67.141  1.00  0.00     3.636 A  
HETATM   19  C   UNL     1     -13.870  16.785  66.436  1.00  0.00    10.856 A  
HETATM   20  C   UNL     1     -12.263  16.456  68.377  1.00  0.00     0.932 C  
HETATM   21  F   UNL     1     -12.902  13.133  64.855  1.00  0.00    -0.469 F  
HETATM   22  C   UNL     1     -14.383  16.415  65.200  1.00  0.00     6.816 A  
HETATM   23  N   UNL     1     -11.428  15.419  69.075  1.00  0.00    -0.315 NA 
HETATM   24  C   UNL     1     -13.198  14.325  65.396  1.00  0.00     0.138 A  
HETATM   25  C   UNL     1     -14.028  15.186  64.667  1.00  0.00     3.568 A  
BRANCH  20  26
HETATM   26  C   UNL     1     -11.469  17.722  67.963  1.00  0.00     0.819 C  
HETATM   27  O   UNL     1     -13.498  19.017  67.590  1.00  0.00     5.759 OA 
HETATM   28  C   UNL     1     -12.202  19.038  67.948  1.00  0.00     3.917 C  
HETATM   29  O   UNL     1     -11.617  20.096  68.154  1.00  0.00     1.151 OA 
ENDBRANCH  20  26
BRANCH  23  30
HETATM   30  C   UNL     1     -10.544  15.966  70.080  1.00  0.00    -0.316 A  
HETATM   31  C   UNL     1      -8.601  17.390  70.592  1.00  0.00     4.888 A  
HETATM   32  C   UNL     1      -9.569  16.908  69.700  1.00  0.00     0.324 A  
HETATM   33  C   UNL     1      -7.313  17.990  70.085  1.00  0.00     1.525 C  
HETATM   34  C   UNL     1      -8.794  17.199  71.951  1.00  0.00    12.125 A  
HETATM   35  F   UNL     1      -7.157  17.880  68.740  1.00  0.00    -0.228 F  
HETATM   36  F   UNL     1      -7.187  19.310  70.385  1.00  0.00     0.178 F  
HETATM   37  F   UNL     1      -6.231  17.368  70.634  1.00  0.00     0.024 F  
HETATM   38  C   UNL     1      -9.811  16.358  72.388  1.00  0.00     7.273 A  
HETATM   39  C   UNL     1     -10.600  15.649  71.469  1.00  0.00     0.643 A  
BRANCH  39  40
HETATM   40  O   UNL     1     -11.508  14.710  71.898  1.00  0.00    -0.163 OA 
HETATM   41  C   UNL     1     -12.825  15.156  72.213  1.00  0.00    -0.343 C  
ENDBRANCH  39  40
ENDBRANCH  23  30
ENDBRANCH  12  15
ENDBRANCH   7   9
ENDBRANCH   2   3
TORSDOF 6
ENDMDL
MODEL      174
REMARK 921   NORMALIZED FREE ENERGY PREDICTED BY IDOCK:   94.65 KCAL/MOL
REMARK 922        TOTAL FREE ENERGY PREDICTED BY IDOCK:  126.61 KCAL/MOL
REMARK 923 INTER-LIGAND FREE ENERGY PREDICTED BY IDOCK:  117.96 KCAL/MOL
REMARK 924 INTRA-LIGAND FREE ENERGY PREDICTED BY IDOCK:    8.65 KCAL/MOL
REMARK 927      BINDING AFFINITY PREDICTED BY RF-SCORE:    0.00 PKD
ROOT
HETATM    1  C   UNL     1     -13.515  19.574  64.605  1.00  0.00    20.169 C  
HETATM    2  O   UNL     1     -12.238  20.187  64.749  1.00  0.00     3.053 OA 
ENDROOT
BRANCH   2   3
HETATM    3  C   UNL     1     -11.273  19.475  65.416  1.00  0.00     0.588 A  
HETATM    4  C   UNL     1      -9.991  19.926  65.707  1.00  0.00    -0.394 A  
HETATM    5  C   UNL     1      -9.107  19.078  66.369  1.00  0.00    -0.339 A  
HETATM    6  C   UNL     1      -9.504  17.787  66.747  1.00  0.00    -0.289 A  
HETATM    7  C   UNL     1     -10.796  17.299  66.495  1.00  0.00     0.059 A  
HETATM    8  C   UNL     1     -11.657  18.181  65.814  1.00  0.00     2.297 A  
BRANCH   7   9
HETATM    9  N   UNL     1     -11.194  16.038  66.891  1.00  0.00    -0.037 NA 
HETATM   10  C   UNL     1     -10.916  14.819  66.113  1.00  0.00    -0.332 C  
HETATM   11  C   UNL     1     -10.091  13.833  66.954  1.00  0.00    -0.260 C  
HETATM   12  N   UNL     1     -10.674  13.534  68.282  1.00  0.00    -0.250 NA 
HETATM   13  C   UNL     1     -11.245  14.713  69.001  1.00  0.00    -0.269 C  
HETATM   14  C   UNL     1     -11.970  15.756  68.108  1.00  0.00     0.123 C  
BRANCH  12  15
HETATM   15  C   UNL     1     -10.510  12.325  68.967  1.00  0.00    -0.015 C  
HETATM   16  N   UNL     1     -10.209  12.426  70.242  1.00  0.00     2.557 NA 
HETATM   17  C   UNL     1     -10.174  11.294  71.078  1.00  0.00     4.308 A  
HETATM   18  C   UNL     1     -10.509  10.038  70.604  1.00  0.00    -0.211 A  
HETATM   19  C   UNL     1     -10.610   8.946  71.497  1.00  0.00    -0.399 A  
HETATM   20  C   UNL     1     -10.661   9.821  69.112  1.00  0.00    -0.218 C  
HETATM   21  F   UNL     1      -9.475  12.604  72.946  1.00  0.00    15.903 F  
HETATM   22  C   UNL     1     -10.284   9.080  72.840  1.00  0.00     1.137 A  
HETATM   23  N   UNL     1     -10.633  11.088  68.302  1.00  0.00    -0.177 NA 
HETATM   24  C   UNL     1      -9.846  11.418  72.442  1.00  0.00    15.766 A  
HETATM   25  C   UNL     1      -9.879  10.319  73.311  1.00  0.00    10.799 A  
BRANCH  20  26
HETATM   26  C   UNL     1      -9.591   8.783  68.685  1.00  0.00    -0.159 C  
HETATM   27  O   UNL     1     -10.995   6.897  69.318  1.00  0.00    -0.244 OA 
HETATM   28  C   UNL     1     -10.031   7.354  68.501  1.00  0.00    -0.165 C  
HETATM   29  O   UNL     1      -9.463   6.609  67.710  1.00  0.00    -0.122 OA 
ENDBRANCH  20  26
BRANCH  23  30
HETATM   30  C   UNL     1     -10.503  10.865  66.880  1.00  0.00    -0.249 A  
HETATM   31  C   UNL     1     -11.006   9.431  64.942  1.00  0.00     4.154 A  
HETATM   32  C   UNL     1     -11.180   9.781  66.288  1.00  0.00     1.006 A  
HETATM   33  C   UNL     1     -11.330   8.040  64.456  1.00  0.00    14.047 C  
HETATM   34  C   UNL     1     -10.419  10.349  64.085  1.00  0.00     0.197 A  
HETATM   35  F   UNL     1     -11.656   7.180  65.456  1.00  0.00     3.560 F  
HETATM   36  F   UNL     1     -12.360   8.013  63.568  1.00  0.00    18.532 F  
HETATM   37  F   UNL     1     -10.262   7.478  63.821  1.00  0.00     4.736 F  
HETATM   38  C   UNL     1      -9.825  11.492  64.607  1.00  0.00    -0.283 A  
HETATM   39  C   UNL     1      -9.752  11.693  65.994  1.00  0.00    -0.232 A  
BRANCH  39  40
HETATM   40  O   UNL     1      -9.041  12.747  66.517  1.00  0.00    -0.218 OA 
HETATM   41  C   UNL     1      -7.846  12.450  67.235  1.00  0.00    -0.166 C  
ENDBRANCH  39  40
ENDBRANCH  23  30
ENDBRANCH  12  15
ENDBRANCH   7   9
ENDBRANCH   2   3
TORSDOF 6
ENDMDL
MODEL      175
REMARK 921   NORMALIZED FREE ENERGY PREDICTED BY IDOCK:  112.68 KCAL/MOL
REMARK 922        TOTAL FREE ENERGY PREDICTED BY IDOCK:  150.97 KCAL/MOL
REMARK 923 INTER-LIGAND FREE ENERGY PREDICTED BY IDOCK:  136.70 KCAL/MOL
REMARK 924 INTRA-LIGAND FREE ENERGY PREDICTED BY IDOCK:   14.27 KCAL/MOL
REMARK 927      BINDING AFFINITY PREDICTED BY RF-SCORE:    0.00 PKD
ROOT
HETATM    1  C   UNL     1      -8.945   7.035  63.499  1.00  0.00     1.302 C  
HETATM    2  O   UNL     1      -8.510   8.154  64.265  1.00  0.00    -0.082 OA 
ENDROOT
BRANCH   2   3
HETATM    3  C   UNL     1      -8.587   8.047  65.630  1.00  0.00    -0.145 A  
HETATM    4  C   UNL     1      -8.030   7.028  66.394  1.00  0.00    -0.109 A  
HETATM    5  C   UNL     1      -8.213   7.035  67.774  1.00  0.00    -0.114 A  
HETATM    6  C   UNL     1      -8.943   8.062  68.391  1.00  0.00    -0.133 A  
HETATM    7  C   UNL     1      -9.501   9.123  67.663  1.00  0.00    -0.140 A  
HETATM    8  C   UNL     1      -9.304   9.074  66.269  1.00  0.00    -0.284 A  
BRANCH   7   9
HETATM    9  N   UNL     1     -10.197  10.147  68.274  1.00  0.00    -0.159 NA 
HETATM   10  C   UNL     1      -9.901  10.630  69.633  1.00  0.00    -0.013 C  
HETATM   11  C   UNL     1      -9.532  12.121  69.595  1.00  0.00     1.701 C  
HETATM   12  N   UNL     1     -10.524  12.972  68.898  1.00  0.00    -0.146 NA 
HETATM   13  C   UNL     1     -11.085  12.388  67.642  1.00  0.00    -0.259 C  
HETATM   14  C   UNL     1     -11.334  10.856  67.667  1.00  0.00    -0.270 C  
BRANCH  12  15
HETATM   15  C   UNL     1     -10.768  14.316  69.199  1.00  0.00    -0.220 C  
HETATM   16  N   UNL     1     -10.781  15.139  68.175  1.00  0.00    -0.248 NA 
HETATM   17  C   UNL     1     -11.170  16.484  68.322  1.00  0.00    -0.265 A  
HETATM   18  C   UNL     1     -11.607  16.979  69.538  1.00  0.00     1.015 A  
HETATM   19  C   UNL     1     -12.133  18.290  69.623  1.00  0.00     8.018 A  
HETATM   20  C   UNL     1     -11.419  16.148  70.791  1.00  0.00    -0.378 C  
HETATM   21  F   UNL     1     -10.726  16.940  66.021  1.00  0.00    -0.312 F  
HETATM   22  C   UNL     1     -12.134  19.140  68.525  1.00  0.00     4.687 A  
HETATM   23  N   UNL     1     -10.952  14.744  70.531  1.00  0.00    -0.096 NA 
HETATM   24  C   UNL     1     -11.177  17.355  67.215  1.00  0.00     0.328 A  
HETATM   25  C   UNL     1     -11.632  18.676  67.319  1.00  0.00     1.250 A  
BRANCH  20  26
HETATM   26  C   UNL     1     -10.492  16.949  71.741  1.00  0.00     3.182 C  
HETATM   27  O   UNL     1     -10.106  15.024  73.181  1.00  0.00     3.363 OA 
HETATM   28  C   UNL     1      -9.614  16.172  72.687  1.00  0.00     8.937 C  
HETATM   29  O   UNL     1      -8.537  16.619  73.069  1.00  0.00    15.437 OA 
ENDBRANCH  20  26
BRANCH  23  30
HETATM   30  C   UNL     1     -10.514  14.048  71.720  1.00  0.00     4.647 A  
HETATM   31  C   UNL     1      -8.650  13.051  72.982  1.00  0.00    18.643 A  
HETATM   32  C   UNL     1      -9.139  13.821  71.918  1.00  0.00    11.121 A  
HETATM   33  C   UNL     1      -7.280  12.423  72.917  1.00  0.00    11.222 C  
HETATM   34  C   UNL     1      -9.492  12.777  74.049  1.00  0.00    18.508 A  
HETATM   35  F   UNL     1      -6.674  12.570  71.709  1.00  0.00     2.348 F  
HETATM   36  F   UNL     1      -6.421  12.921  73.846  1.00  0.00     1.561 F  
HETATM   37  F   UNL     1      -7.342  11.079  73.136  1.00  0.00     6.092 F  
HETATM   38  C   UNL     1     -10.845  13.076  73.948  1.00  0.00    12.816 A  
HETATM   39  C   UNL     1     -11.380  13.588  72.756  1.00  0.00     4.562 A  
BRANCH  39  40
HETATM   40  O   UNL     1     -12.737  13.750  72.605  1.00  0.00    -0.227 OA 
HETATM   41  C   UNL     1     -13.510  12.597  72.280  1.00  0.00    -0.438 C  
ENDBRANCH  39  40
ENDBRANCH  23  30
ENDBRANCH  12  15
ENDBRANCH   7   9
ENDBRANCH   2   3
TORSDOF 6
ENDMDL
