MODEL        1
REMARK 921   NORMALIZED FREE ENERGY PREDICTED BY IDOCK:   -6.81 KCAL/MOL
REMARK 922        TOTAL FREE ENERGY PREDICTED BY IDOCK:   -8.70 KCAL/MOL
REMARK 923 INTER-LIGAND FREE ENERGY PREDICTED BY IDOCK:   -8.01 KCAL/MOL
REMARK 924 INTRA-LIGAND FREE ENERGY PREDICTED BY IDOCK:   -0.69 KCAL/MOL
REMARK 927      BINDING AFFINITY PREDICTED BY RF-SCORE:    0.00 PKD
ROOT
HETATM    1  N   UNL     1      -6.590  18.210  65.952  1.00  0.00    -0.257 NA 
HETATM    2  C   UNL     1      -7.473  17.473  66.108  1.00  0.00    -0.299 C  
HETATM    3  C   UNL     1      -8.563  16.554  66.277  1.00  0.00    -0.367 A  
HETATM    4  C   UNL     1      -8.345  15.302  66.858  1.00  0.00    -0.278 A  
HETATM    5  C   UNL     1      -9.391  14.376  66.942  1.00  0.00    -0.269 A  
HETATM    6  C   UNL     1     -10.674  14.679  66.443  1.00  0.00    -0.309 A  
HETATM    7  C   UNL     1      -9.847  16.893  65.840  1.00  0.00    -0.241 A  
HETATM    8  C   UNL     1     -10.900  15.973  65.944  1.00  0.00    -0.210 A  
ENDROOT
BRANCH   6   9
HETATM    9  C   UNL     1     -11.758  13.593  66.465  1.00  0.00    -0.382 C  
BRANCH   9  10
HETATM   10  N   UNL     1     -11.832  12.953  65.144  1.00  0.00    -0.357 NA 
HETATM   11  N   UNL     1     -13.024  12.557  64.639  1.00  0.00    -0.844 NA 
HETATM   12  C   UNL     1     -12.651  11.985  63.492  1.00  0.00    -0.507 A  
HETATM   13  C   UNL     1     -10.819  12.619  64.294  1.00  0.00    -0.379 A  
HETATM   14  N   UNL     1     -11.308  11.987  63.252  1.00  0.00    -0.358 NA 
ENDBRANCH   9  10
BRANCH   9  15
HETATM   15  C   UNL     1     -11.749  12.603  67.650  1.00  0.00    -0.420 A  
HETATM   16  C   UNL     1     -11.566  10.803  69.845  1.00  0.00    -0.410 A  
HETATM   17  C   UNL     1     -11.313  11.272  67.477  1.00  0.00    -0.360 A  
HETATM   18  C   UNL     1     -11.476   9.899  70.951  1.00  0.00    -0.376 C  
HETATM   19  C   UNL     1     -11.960  12.126  70.047  1.00  0.00    -0.391 A  
HETATM   20  C   UNL     1     -11.237  10.381  68.555  1.00  0.00    -0.308 A  
HETATM   21  C   UNL     1     -12.033  13.015  68.969  1.00  0.00    -0.312 A  
HETATM   22  N   UNL     1     -11.402   9.169  71.853  1.00  0.00    -0.375 NA 
ENDBRANCH   9  15
ENDBRANCH   6   9
TORSDOF 3
ENDMDL
MODEL        2
REMARK 921   NORMALIZED FREE ENERGY PREDICTED BY IDOCK:   -6.77 KCAL/MOL
REMARK 922        TOTAL FREE ENERGY PREDICTED BY IDOCK:   -8.65 KCAL/MOL
REMARK 923 INTER-LIGAND FREE ENERGY PREDICTED BY IDOCK:   -7.96 KCAL/MOL
REMARK 924 INTRA-LIGAND FREE ENERGY PREDICTED BY IDOCK:   -0.68 KCAL/MOL
REMARK 927      BINDING AFFINITY PREDICTED BY RF-SCORE:    0.00 PKD
ROOT
HETATM    1  N   UNL     1      -7.156  19.680  68.993  1.00  0.00    -0.355 NA 
HETATM    2  C   UNL     1      -7.880  18.824  68.697  1.00  0.00    -0.328 C  
HETATM    3  C   UNL     1      -8.788  17.766  68.353  1.00  0.00    -0.285 A  
HETATM    4  C   UNL     1      -9.919  18.033  67.579  1.00  0.00    -0.330 A  
HETATM    5  C   UNL     1     -10.847  17.017  67.318  1.00  0.00    -0.123 A  
HETATM    6  C   UNL     1     -10.666  15.717  67.830  1.00  0.00    -0.294 A  
HETATM    7  C   UNL     1      -8.561  16.463  68.809  1.00  0.00    -0.250 A  
HETATM    8  C   UNL     1      -9.479  15.442  68.530  1.00  0.00    -0.202 A  
ENDROOT
BRANCH   6   9
HETATM    9  C   UNL     1     -11.762  14.667  67.603  1.00  0.00    -0.363 C  
BRANCH   9  10
HETATM   10  N   UNL     1     -11.726  14.221  66.203  1.00  0.00    -0.378 NA 
HETATM   11  N   UNL     1     -10.544  13.972  65.591  1.00  0.00    -0.295 NA 
HETATM   12  C   UNL     1     -10.943  13.667  64.354  1.00  0.00    -0.366 A  
HETATM   13  C   UNL     1     -12.760  14.048  65.330  1.00  0.00    -0.471 A  
HETATM   14  N   UNL     1     -12.291  13.719  64.149  1.00  0.00    -0.659 NA 
ENDBRANCH   9  10
BRANCH   9  15
HETATM   15  C   UNL     1     -11.871  13.519  68.631  1.00  0.00    -0.404 A  
HETATM   16  C   UNL     1     -12.239  11.405  70.499  1.00  0.00    -0.478 A  
HETATM   17  C   UNL     1     -12.284  13.770  69.956  1.00  0.00    -0.407 A  
HETATM   18  C   UNL     1     -12.423  10.340  71.437  1.00  0.00    -0.424 C  
HETATM   19  C   UNL     1     -11.870  11.128  69.182  1.00  0.00    -0.419 A  
HETATM   20  C   UNL     1     -12.451  12.732  70.881  1.00  0.00    -0.373 A  
HETATM   21  C   UNL     1     -11.706  12.168  68.260  1.00  0.00    -0.401 A  
HETATM   22  N   UNL     1     -12.573   9.471  72.195  1.00  0.00    -0.359 NA 
ENDBRANCH   9  15
ENDBRANCH   6   9
TORSDOF 3
ENDMDL
MODEL        3
REMARK 921   NORMALIZED FREE ENERGY PREDICTED BY IDOCK:   -6.74 KCAL/MOL
REMARK 922        TOTAL FREE ENERGY PREDICTED BY IDOCK:   -8.62 KCAL/MOL
REMARK 923 INTER-LIGAND FREE ENERGY PREDICTED BY IDOCK:   -7.93 KCAL/MOL
REMARK 924 INTRA-LIGAND FREE ENERGY PREDICTED BY IDOCK:   -0.69 KCAL/MOL
REMARK 927      BINDING AFFINITY PREDICTED BY RF-SCORE:    0.00 PKD
ROOT
HETATM    1  N   UNL     1     -13.193  10.717  72.011  1.00  0.00    -0.450 NA 
HETATM    2  C   UNL     1     -12.636  11.133  71.082  1.00  0.00    -0.409 C  
HETATM    3  C   UNL     1     -11.969  11.644  69.918  1.00  0.00    -0.414 A  
HETATM    4  C   UNL     1     -11.866  13.022  69.713  1.00  0.00    -0.381 A  
HETATM    5  C   UNL     1     -11.292  13.516  68.536  1.00  0.00    -0.327 A  
HETATM    6  C   UNL     1     -10.814  12.644  67.538  1.00  0.00    -0.267 A  
HETATM    7  C   UNL     1     -11.436  10.768  68.967  1.00  0.00    -0.368 A  
HETATM    8  C   UNL     1     -10.842  11.263  67.797  1.00  0.00    -0.284 A  
ENDROOT
BRANCH   6   9
HETATM    9  C   UNL     1     -10.288  13.234  66.222  1.00  0.00    -0.290 C  
BRANCH   9  10
HETATM   10  N   UNL     1     -11.206  12.880  65.130  1.00  0.00    -0.283 NA 
HETATM   11  N   UNL     1     -10.730  12.621  63.889  1.00  0.00    -0.419 NA 
HETATM   12  C   UNL     1     -11.859  12.416  63.207  1.00  0.00    -0.402 A  
HETATM   13  C   UNL     1     -12.568  12.811  65.141  1.00  0.00    -0.444 A  
HETATM   14  N   UNL     1     -13.007  12.541  63.934  1.00  0.00    -0.750 NA 
ENDBRANCH   9  10
BRANCH   9  15
HETATM   15  C   UNL     1      -9.854  14.716  66.230  1.00  0.00    -0.320 A  
HETATM   16  C   UNL     1      -9.132  17.463  66.391  1.00  0.00    -0.274 A  
HETATM   17  C   UNL     1     -10.758  15.737  65.870  1.00  0.00    -0.320 A  
HETATM   18  C   UNL     1      -8.767  18.844  66.473  1.00  0.00    -0.316 C  
HETATM   19  C   UNL     1      -8.236  16.472  66.792  1.00  0.00    -0.279 A  
HETATM   20  C   UNL     1     -10.399  17.089  65.935  1.00  0.00    -0.310 A  
HETATM   21  C   UNL     1      -8.598  15.122  66.728  1.00  0.00    -0.297 A  
HETATM   22  N   UNL     1      -8.466  19.965  66.543  1.00  0.00    -0.330 NA 
ENDBRANCH   9  15
ENDBRANCH   6   9
TORSDOF 3
ENDMDL
MODEL        4
REMARK 921   NORMALIZED FREE ENERGY PREDICTED BY IDOCK:   -6.65 KCAL/MOL
REMARK 922        TOTAL FREE ENERGY PREDICTED BY IDOCK:   -8.51 KCAL/MOL
REMARK 923 INTER-LIGAND FREE ENERGY PREDICTED BY IDOCK:   -7.95 KCAL/MOL
REMARK 924 INTRA-LIGAND FREE ENERGY PREDICTED BY IDOCK:   -0.56 KCAL/MOL
REMARK 927      BINDING AFFINITY PREDICTED BY RF-SCORE:    0.00 PKD
ROOT
HETATM    1  N   UNL     1     -14.021  13.273  72.592  1.00  0.00    -0.712 NA 
HETATM    2  C   UNL     1     -13.327  13.405  71.671  1.00  0.00    -0.338 C  
HETATM    3  C   UNL     1     -12.489  13.564  70.517  1.00  0.00    -0.373 A  
HETATM    4  C   UNL     1     -12.230  14.838  70.005  1.00  0.00    -0.383 A  
HETATM    5  C   UNL     1     -11.484  14.983  68.829  1.00  0.00    -0.337 A  
HETATM    6  C   UNL     1     -10.986  13.860  68.139  1.00  0.00    -0.267 A  
HETATM    7  C   UNL     1     -11.943  12.445  69.880  1.00  0.00    -0.369 A  
HETATM    8  C   UNL     1     -11.178  12.592  68.715  1.00  0.00    -0.325 A  
ENDROOT
BRANCH   6   9
HETATM    9  C   UNL     1     -10.264  14.066  66.801  1.00  0.00    -0.264 C  
BRANCH   9  10
HETATM   10  N   UNL     1     -11.146  13.650  65.702  1.00  0.00    -0.293 NA 
HETATM   11  N   UNL     1     -10.627  13.149  64.556  1.00  0.00    -0.386 NA 
HETATM   12  C   UNL     1     -11.728  12.966  63.822  1.00  0.00    -0.492 A  
HETATM   13  C   UNL     1     -12.505  13.734  65.613  1.00  0.00    -0.503 A  
HETATM   14  N   UNL     1     -12.896  13.328  64.428  1.00  0.00    -0.664 NA 
ENDBRANCH   9  10
BRANCH   9  15
HETATM   15  C   UNL     1      -9.565  15.424  66.572  1.00  0.00    -0.298 A  
HETATM   16  C   UNL     1      -8.323  17.970  66.305  1.00  0.00    -0.229 A  
HETATM   17  C   UNL     1     -10.310  16.577  66.247  1.00  0.00    -0.327 A  
HETATM   18  C   UNL     1      -7.697  19.250  66.172  1.00  0.00    -0.290 C  
HETATM   19  C   UNL     1      -7.572  16.852  66.669  1.00  0.00    -0.301 A  
HETATM   20  C   UNL     1      -9.698  17.828  66.101  1.00  0.00    -0.230 A  
HETATM   21  C   UNL     1      -8.187  15.604  66.816  1.00  0.00    -0.300 A  
HETATM   22  N   UNL     1      -7.184  20.288  66.066  1.00  0.00    -0.268 NA 
ENDBRANCH   9  15
ENDBRANCH   6   9
TORSDOF 3
ENDMDL
MODEL        5
REMARK 921   NORMALIZED FREE ENERGY PREDICTED BY IDOCK:   -6.65 KCAL/MOL
REMARK 922        TOTAL FREE ENERGY PREDICTED BY IDOCK:   -8.50 KCAL/MOL
REMARK 923 INTER-LIGAND FREE ENERGY PREDICTED BY IDOCK:   -8.36 KCAL/MOL
REMARK 924 INTRA-LIGAND FREE ENERGY PREDICTED BY IDOCK:   -0.14 KCAL/MOL
REMARK 927      BINDING AFFINITY PREDICTED BY RF-SCORE:    0.00 PKD
ROOT
HETATM    1  N   UNL     1     -12.530   7.427  71.396  1.00  0.00    -0.353 NA 
HETATM    2  C   UNL     1     -12.474   8.580  71.271  1.00  0.00    -0.249 C  
HETATM    3  C   UNL     1     -12.422  10.004  71.100  1.00  0.00    -0.480 A  
HETATM    4  C   UNL     1     -13.110  10.844  71.979  1.00  0.00    -0.462 A  
HETATM    5  C   UNL     1     -13.130  12.227  71.758  1.00  0.00    -0.449 A  
HETATM    6  C   UNL     1     -12.467  12.796  70.652  1.00  0.00    -0.328 A  
HETATM    7  C   UNL     1     -11.704  10.563  70.038  1.00  0.00    -0.394 A  
HETATM    8  C   UNL     1     -11.706  11.949  69.829  1.00  0.00    -0.403 A  
ENDROOT
BRANCH   6   9
HETATM    9  C   UNL     1     -12.604  14.304  70.396  1.00  0.00    -0.343 C  
BRANCH   9  10
HETATM   10  N   UNL     1     -12.728  15.006  71.682  1.00  0.00    -0.317 NA 
HETATM   11  N   UNL     1     -11.701  15.008  72.565  1.00  0.00    -0.345 NA 
HETATM   12  C   UNL     1     -12.233  15.677  73.591  1.00  0.00    -0.546 A  
HETATM   13  C   UNL     1     -13.803  15.667  72.199  1.00  0.00    -0.460 A  
HETATM   14  N   UNL     1     -13.524  16.082  73.413  1.00  0.00    -0.585 NA 
ENDBRANCH   9  10
BRANCH   9  15
HETATM   15  C   UNL     1     -11.604  14.952  69.414  1.00  0.00    -0.337 A  
HETATM   16  C   UNL     1      -9.874  16.271  67.580  1.00  0.00    -0.238 A  
HETATM   17  C   UNL     1     -11.771  14.821  68.019  1.00  0.00    -0.360 A  
HETATM   18  C   UNL     1      -9.002  16.935  66.660  1.00  0.00    -0.252 C  
HETATM   19  C   UNL     1      -9.715  16.448  68.955  1.00  0.00    -0.262 A  
HETATM   20  C   UNL     1     -10.911  15.458  67.115  1.00  0.00    -0.317 A  
HETATM   21  C   UNL     1     -10.577  15.813  69.855  1.00  0.00    -0.332 A  
HETATM   22  N   UNL     1      -8.293  17.478  65.916  1.00  0.00    -0.549 NA 
ENDBRANCH   9  15
ENDBRANCH   6   9
TORSDOF 3
ENDMDL
MODEL        6
REMARK 921   NORMALIZED FREE ENERGY PREDICTED BY IDOCK:   -6.59 KCAL/MOL
REMARK 922        TOTAL FREE ENERGY PREDICTED BY IDOCK:   -8.44 KCAL/MOL
REMARK 923 INTER-LIGAND FREE ENERGY PREDICTED BY IDOCK:   -7.76 KCAL/MOL
REMARK 924 INTRA-LIGAND FREE ENERGY PREDICTED BY IDOCK:   -0.68 KCAL/MOL
REMARK 927      BINDING AFFINITY PREDICTED BY RF-SCORE:    0.00 PKD
ROOT
HETATM    1  N   UNL     1     -12.920  10.233  72.200  1.00  0.00    -0.388 NA 
HETATM    2  C   UNL     1     -12.571  10.714  71.203  1.00  0.00    -0.423 C  
HETATM    3  C   UNL     1     -12.117  11.312  69.979  1.00  0.00    -0.425 A  
HETATM    4  C   UNL     1     -11.704  10.508  68.914  1.00  0.00    -0.217 A  
HETATM    5  C   UNL     1     -11.180  11.094  67.755  1.00  0.00    -0.359 A  
HETATM    6  C   UNL     1     -11.054  12.493  67.640  1.00  0.00    -0.301 A  
HETATM    7  C   UNL     1     -12.062  12.703  69.851  1.00  0.00    -0.322 A  
HETATM    8  C   UNL     1     -11.557  13.290  68.682  1.00  0.00    -0.362 A  
ENDROOT
BRANCH   6   9
HETATM    9  C   UNL     1     -10.380  13.080  66.393  1.00  0.00    -0.281 C  
BRANCH   9  10
HETATM   10  N   UNL     1     -11.155  12.710  65.200  1.00  0.00    -0.287 NA 
HETATM   11  N   UNL     1     -10.526  12.331  64.062  1.00  0.00    -0.366 NA 
HETATM   12  C   UNL     1     -11.558  12.152  63.234  1.00  0.00    -0.332 A  
HETATM   13  C   UNL     1     -12.506  12.731  65.014  1.00  0.00    -0.506 A  
HETATM   14  N   UNL     1     -12.786  12.403  63.774  1.00  0.00    -0.781 NA 
ENDBRANCH   9  10
BRANCH   9  15
HETATM   15  C   UNL     1      -9.965  14.567  66.442  1.00  0.00    -0.304 A  
HETATM   16  C   UNL     1      -9.116  17.282  66.390  1.00  0.00    -0.281 A  
HETATM   17  C   UNL     1      -8.683  14.947  66.892  1.00  0.00    -0.276 A  
HETATM   18  C   UNL     1      -8.691  18.649  66.363  1.00  0.00    -0.276 C  
HETATM   19  C   UNL     1     -10.373  16.925  65.900  1.00  0.00    -0.327 A  
HETATM   20  C   UNL     1      -8.269  16.285  66.881  1.00  0.00    -0.261 A  
HETATM   21  C   UNL     1     -10.782  15.587  65.911  1.00  0.00    -0.346 A  
HETATM   22  N   UNL     1      -8.350  19.759  66.337  1.00  0.00    -0.338 NA 
ENDBRANCH   9  15
ENDBRANCH   6   9
TORSDOF 3
ENDMDL
MODEL        7
REMARK 921   NORMALIZED FREE ENERGY PREDICTED BY IDOCK:   -6.57 KCAL/MOL
REMARK 922        TOTAL FREE ENERGY PREDICTED BY IDOCK:   -8.41 KCAL/MOL
REMARK 923 INTER-LIGAND FREE ENERGY PREDICTED BY IDOCK:   -7.72 KCAL/MOL
REMARK 924 INTRA-LIGAND FREE ENERGY PREDICTED BY IDOCK:   -0.69 KCAL/MOL
REMARK 927      BINDING AFFINITY PREDICTED BY RF-SCORE:    0.00 PKD
ROOT
HETATM    1  N   UNL     1     -11.170   9.098  71.713  1.00  0.00    -0.375 NA 
HETATM    2  C   UNL     1     -11.042   9.751  70.762  1.00  0.00    -0.345 C  
HETATM    3  C   UNL     1     -10.884  10.579  69.600  1.00  0.00    -0.320 A  
HETATM    4  C   UNL     1      -9.618  10.784  69.048  1.00  0.00    -0.193 A  
HETATM    5  C   UNL     1      -9.456  11.661  67.969  1.00  0.00    -0.185 A  
HETATM    6  C   UNL     1     -10.555  12.354  67.423  1.00  0.00    -0.237 A  
HETATM    7  C   UNL     1     -11.993  11.208  69.024  1.00  0.00    -0.389 A  
HETATM    8  C   UNL     1     -11.834  12.070  67.930  1.00  0.00    -0.320 A  
ENDROOT
BRANCH   6   9
HETATM    9  C   UNL     1     -10.310  13.381  66.309  1.00  0.00    -0.291 C  
BRANCH   9  10
HETATM   10  N   UNL     1     -11.134  13.039  65.142  1.00  0.00    -0.287 NA 
HETATM   11  N   UNL     1     -10.917  11.888  64.461  1.00  0.00    -0.307 NA 
HETATM   12  C   UNL     1     -11.806  11.992  63.470  1.00  0.00    -0.492 A  
HETATM   13  C   UNL     1     -12.127  13.762  64.549  1.00  0.00    -0.428 A  
HETATM   14  N   UNL     1     -12.554  13.133  63.479  1.00  0.00    -0.728 NA 
ENDBRANCH   9  10
BRANCH   9  15
HETATM   15  C   UNL     1     -10.352  14.876  66.697  1.00  0.00    -0.283 A  
HETATM   16  C   UNL     1     -10.310  17.597  67.526  1.00  0.00    -0.365 A  
HETATM   17  C   UNL     1     -11.042  15.305  67.850  1.00  0.00    -0.321 A  
HETATM   18  C   UNL     1     -10.288  18.967  67.941  1.00  0.00    -0.404 C  
HETATM   19  C   UNL     1      -9.586  17.188  66.406  1.00  0.00    -0.296 A  
HETATM   20  C   UNL     1     -11.035  16.647  68.251  1.00  0.00    -0.341 A  
HETATM   21  C   UNL     1      -9.594  15.846  66.009  1.00  0.00    -0.385 A  
HETATM   22  N   UNL     1     -10.266  20.080  68.275  1.00  0.00    -0.430 NA 
ENDBRANCH   9  15
ENDBRANCH   6   9
TORSDOF 3
ENDMDL
MODEL        8
REMARK 921   NORMALIZED FREE ENERGY PREDICTED BY IDOCK:   -6.54 KCAL/MOL
REMARK 922        TOTAL FREE ENERGY PREDICTED BY IDOCK:   -8.37 KCAL/MOL
REMARK 923 INTER-LIGAND FREE ENERGY PREDICTED BY IDOCK:   -7.79 KCAL/MOL
REMARK 924 INTRA-LIGAND FREE ENERGY PREDICTED BY IDOCK:   -0.58 KCAL/MOL
REMARK 927      BINDING AFFINITY PREDICTED BY RF-SCORE:    0.00 PKD
ROOT
HETATM    1  N   UNL     1      -6.982  21.241  67.436  1.00  0.00    -0.544 NA 
HETATM    2  C   UNL     1      -7.550  20.294  67.791  1.00  0.00    -0.275 C  
HETATM    3  C   UNL     1      -8.256  19.115  68.207  1.00  0.00    -0.369 A  
HETATM    4  C   UNL     1      -7.553  17.966  68.575  1.00  0.00    -0.290 A  
HETATM    5  C   UNL     1      -8.246  16.792  68.896  1.00  0.00    -0.224 A  
HETATM    6  C   UNL     1      -9.653  16.742  68.851  1.00  0.00    -0.249 A  
HETATM    7  C   UNL     1      -9.655  19.099  68.224  1.00  0.00    -0.416 A  
HETATM    8  C   UNL     1     -10.348  17.929  68.567  1.00  0.00    -0.365 A  
ENDROOT
BRANCH   6   9
HETATM    9  C   UNL     1     -10.360  15.405  69.111  1.00  0.00    -0.240 C  
BRANCH   9  10
HETATM   10  N   UNL     1     -11.360  15.582  70.174  1.00  0.00    -0.295 NA 
HETATM   11  N   UNL     1     -10.975  15.900  71.433  1.00  0.00    -0.058 NA 
HETATM   12  C   UNL     1     -12.145  15.901  72.077  1.00  0.00    -0.506 A  
HETATM   13  C   UNL     1     -12.713  15.420  70.116  1.00  0.00    -0.227 A  
HETATM   14  N   UNL     1     -13.231  15.595  71.309  1.00  0.00    -0.499 NA 
ENDBRANCH   9  10
BRANCH   9  15
HETATM   15  C   UNL     1     -10.873  14.621  67.883  1.00  0.00    -0.261 A  
HETATM   16  C   UNL     1     -11.974  13.199  65.679  1.00  0.00    -0.462 A  
HETATM   17  C   UNL     1     -11.256  13.268  67.997  1.00  0.00    -0.307 A  
HETATM   18  C   UNL     1     -12.528  12.485  64.568  1.00  0.00    -0.459 C  
HETATM   19  C   UNL     1     -11.641  14.548  65.554  1.00  0.00    -0.350 A  
HETATM   20  C   UNL     1     -11.785  12.562  66.908  1.00  0.00    -0.447 A  
HETATM   21  C   UNL     1     -11.115  15.250  66.644  1.00  0.00    -0.276 A  
HETATM   22  N   UNL     1     -12.978  11.910  63.664  1.00  0.00    -0.673 NA 
ENDBRANCH   9  15
ENDBRANCH   6   9
TORSDOF 3
ENDMDL
MODEL        9
REMARK 921   NORMALIZED FREE ENERGY PREDICTED BY IDOCK:   -6.43 KCAL/MOL
REMARK 922        TOTAL FREE ENERGY PREDICTED BY IDOCK:   -8.25 KCAL/MOL
REMARK 923 INTER-LIGAND FREE ENERGY PREDICTED BY IDOCK:   -7.81 KCAL/MOL
REMARK 924 INTRA-LIGAND FREE ENERGY PREDICTED BY IDOCK:   -0.44 KCAL/MOL
REMARK 927      BINDING AFFINITY PREDICTED BY RF-SCORE:    0.00 PKD
ROOT
HETATM    1  N   UNL     1      -9.708  19.249  68.588  1.00  0.00    -0.406 NA 
HETATM    2  C   UNL     1     -10.142  18.202  68.341  1.00  0.00    -0.388 C  
HETATM    3  C   UNL     1     -10.656  16.895  68.042  1.00  0.00    -0.367 A  
HETATM    4  C   UNL     1     -11.369  16.180  69.007  1.00  0.00    -0.340 A  
HETATM    5  C   UNL     1     -11.793  14.873  68.741  1.00  0.00    -0.328 A  
HETATM    6  C   UNL     1     -11.510  14.252  67.508  1.00  0.00    -0.368 A  
HETATM    7  C   UNL     1     -10.428  16.316  66.789  1.00  0.00    -0.287 A  
HETATM    8  C   UNL     1     -10.871  15.014  66.516  1.00  0.00    -0.320 A  
ENDROOT
BRANCH   6   9
HETATM    9  C   UNL     1     -11.906  12.783  67.305  1.00  0.00    -0.350 C  
BRANCH   9  10
HETATM   10  N   UNL     1     -11.847  12.458  65.873  1.00  0.00    -0.511 NA 
HETATM   11  N   UNL     1     -12.906  12.706  65.067  1.00  0.00    -0.816 NA 
HETATM   12  C   UNL     1     -12.475  12.218  63.901  1.00  0.00    -0.485 A  
HETATM   13  C   UNL     1     -10.845  11.855  65.170  1.00  0.00    -0.300 A  
HETATM   14  N   UNL     1     -11.225  11.672  63.927  1.00  0.00    -0.396 NA 
ENDBRANCH   9  10
BRANCH   9  15
HETATM   15  C   UNL     1     -11.241  11.733  68.221  1.00  0.00    -0.313 A  
HETATM   16  C   UNL     1      -9.978   9.923  70.016  1.00  0.00    -0.302 A  
HETATM   17  C   UNL     1      -9.840  11.575  68.243  1.00  0.00    -0.203 A  
HETATM   18  C   UNL     1      -9.345   9.011  70.919  1.00  0.00    -0.264 C  
HETATM   19  C   UNL     1     -11.363  10.093  70.041  1.00  0.00    -0.351 A  
HETATM   20  C   UNL     1      -9.218  10.673  69.116  1.00  0.00    -0.162 A  
HETATM   21  C   UNL     1     -11.981  10.996  69.170  1.00  0.00    -0.394 A  
HETATM   22  N   UNL     1      -8.835   8.271  71.656  1.00  0.00    -0.155 NA 
ENDBRANCH   9  15
ENDBRANCH   6   9
TORSDOF 3
ENDMDL
MODEL       10
REMARK 921   NORMALIZED FREE ENERGY PREDICTED BY IDOCK:   -6.37 KCAL/MOL
REMARK 922        TOTAL FREE ENERGY PREDICTED BY IDOCK:   -8.18 KCAL/MOL
REMARK 923 INTER-LIGAND FREE ENERGY PREDICTED BY IDOCK:   -8.42 KCAL/MOL
REMARK 924 INTRA-LIGAND FREE ENERGY PREDICTED BY IDOCK:    0.24 KCAL/MOL
REMARK 927      BINDING AFFINITY PREDICTED BY RF-SCORE:    0.00 PKD
ROOT
HETATM    1  N   UNL     1      -9.228  19.844  66.947  1.00  0.00    -0.350 NA 
HETATM    2  C   UNL     1      -9.622  18.753  66.941  1.00  0.00    -0.309 C  
HETATM    3  C   UNL     1     -10.134  17.412  66.936  1.00  0.00    -0.314 A  
HETATM    4  C   UNL     1     -10.266  16.714  65.733  1.00  0.00    -0.328 A  
HETATM    5  C   UNL     1     -10.847  15.439  65.721  1.00  0.00    -0.349 A  
HETATM    6  C   UNL     1     -11.310  14.840  66.909  1.00  0.00    -0.358 A  
HETATM    7  C   UNL     1     -10.527  16.800  68.130  1.00  0.00    -0.332 A  
HETATM    8  C   UNL     1     -11.089  15.516  68.121  1.00  0.00    -0.325 A  
ENDROOT
BRANCH   6   9
HETATM    9  C   UNL     1     -12.031  13.487  66.829  1.00  0.00    -0.404 C  
BRANCH   9  10
HETATM   10  N   UNL     1     -11.877  12.933  65.477  1.00  0.00    -0.386 NA 
HETATM   11  N   UNL     1     -12.963  12.693  64.705  1.00  0.00    -0.867 NA 
HETATM   12  C   UNL     1     -12.406  12.150  63.620  1.00  0.00    -0.568 A  
HETATM   13  C   UNL     1     -10.740  12.543  64.833  1.00  0.00    -0.295 A  
HETATM   14  N   UNL     1     -11.047  12.025  63.667  1.00  0.00    -0.420 NA 
ENDBRANCH   9  10
BRANCH   9  15
HETATM   15  C   UNL     1     -11.768  12.472  67.963  1.00  0.00    -0.410 A  
HETATM   16  C   UNL     1     -11.444  10.560  70.045  1.00  0.00    -0.393 A  
HETATM   17  C   UNL     1     -12.124  12.767  69.296  1.00  0.00    -0.224 A  
HETATM   18  C   UNL     1     -11.280   9.596  71.090  1.00  0.00    -0.384 C  
HETATM   19  C   UNL     1     -11.123  10.232  68.727  1.00  0.00    -0.276 A  
HETATM   20  C   UNL     1     -11.952  11.831  70.324  1.00  0.00    -0.429 A  
HETATM   21  C   UNL     1     -11.299  11.167  67.702  1.00  0.00    -0.356 A  
HETATM   22  N   UNL     1     -11.147   8.810  71.935  1.00  0.00    -0.342 NA 
ENDBRANCH   9  15
ENDBRANCH   6   9
TORSDOF 3
ENDMDL
MODEL       11
REMARK 921   NORMALIZED FREE ENERGY PREDICTED BY IDOCK:   -6.35 KCAL/MOL
REMARK 922        TOTAL FREE ENERGY PREDICTED BY IDOCK:   -8.15 KCAL/MOL
REMARK 923 INTER-LIGAND FREE ENERGY PREDICTED BY IDOCK:   -7.62 KCAL/MOL
REMARK 924 INTRA-LIGAND FREE ENERGY PREDICTED BY IDOCK:   -0.54 KCAL/MOL
REMARK 927      BINDING AFFINITY PREDICTED BY RF-SCORE:    0.00 PKD
ROOT
HETATM    1  N   UNL     1     -10.737   8.894  67.669  1.00  0.00    -0.213 NA 
HETATM    2  C   UNL     1     -11.019   9.985  67.945  1.00  0.00    -0.252 C  
HETATM    3  C   UNL     1     -11.344  11.340  68.293  1.00  0.00    -0.359 A  
HETATM    4  C   UNL     1     -11.439  12.318  67.300  1.00  0.00    -0.426 A  
HETATM    5  C   UNL     1     -11.670  13.654  67.651  1.00  0.00    -0.398 A  
HETATM    6  C   UNL     1     -11.805  14.039  68.999  1.00  0.00    -0.391 A  
HETATM    7  C   UNL     1     -11.544  11.698  69.629  1.00  0.00    -0.401 A  
HETATM    8  C   UNL     1     -11.796  13.032  69.979  1.00  0.00    -0.355 A  
ENDROOT
BRANCH   6   9
HETATM    9  C   UNL     1     -11.953  15.529  69.337  1.00  0.00    -0.336 C  
BRANCH   9  10
HETATM   10  N   UNL     1     -12.498  15.668  70.695  1.00  0.00    -0.429 NA 
HETATM   11  N   UNL     1     -11.719  16.126  71.704  1.00  0.00    -0.494 NA 
HETATM   12  C   UNL     1     -12.551  16.038  72.745  1.00  0.00    -0.472 A  
HETATM   13  C   UNL     1     -13.737  15.341  71.161  1.00  0.00    -0.443 A  
HETATM   14  N   UNL     1     -13.791  15.545  72.457  1.00  0.00    -0.559 NA 
ENDBRANCH   9  10
BRANCH   9  15
HETATM   15  C   UNL     1     -10.749  16.449  69.040  1.00  0.00    -0.322 A  
HETATM   16  C   UNL     1      -8.508  18.061  68.351  1.00  0.00    -0.306 A  
HETATM   17  C   UNL     1      -9.428  16.009  69.265  1.00  0.00    -0.245 A  
HETATM   18  C   UNL     1      -7.382  18.873  68.003  1.00  0.00    -0.250 C  
HETATM   19  C   UNL     1      -9.805  18.500  68.081  1.00  0.00    -0.376 A  
HETATM   20  C   UNL     1      -8.324  16.807  68.939  1.00  0.00    -0.222 A  
HETATM   21  C   UNL     1     -10.905  17.700  68.406  1.00  0.00    -0.148 A  
HETATM   22  N   UNL     1      -6.471  19.535  67.718  1.00  0.00    -0.219 NA 
ENDBRANCH   9  15
ENDBRANCH   6   9
TORSDOF 3
ENDMDL
MODEL       12
REMARK 921   NORMALIZED FREE ENERGY PREDICTED BY IDOCK:   -6.30 KCAL/MOL
REMARK 922        TOTAL FREE ENERGY PREDICTED BY IDOCK:   -8.10 KCAL/MOL
REMARK 923 INTER-LIGAND FREE ENERGY PREDICTED BY IDOCK:   -8.07 KCAL/MOL
REMARK 924 INTRA-LIGAND FREE ENERGY PREDICTED BY IDOCK:   -0.03 KCAL/MOL
REMARK 927      BINDING AFFINITY PREDICTED BY RF-SCORE:    0.00 PKD
ROOT
HETATM    1  N   UNL     1     -13.712  13.290  72.621  1.00  0.00    -0.695 NA 
HETATM    2  C   UNL     1     -13.191  13.643  71.646  1.00  0.00    -0.367 C  
HETATM    3  C   UNL     1     -12.526  14.088  70.454  1.00  0.00    -0.418 A  
HETATM    4  C   UNL     1     -11.828  13.179  69.656  1.00  0.00    -0.390 A  
HETATM    5  C   UNL     1     -11.108  13.631  68.543  1.00  0.00    -0.301 A  
HETATM    6  C   UNL     1     -11.069  14.999  68.207  1.00  0.00    -0.292 A  
HETATM    7  C   UNL     1     -12.552  15.439  70.093  1.00  0.00    -0.329 A  
HETATM    8  C   UNL     1     -11.849  15.888  68.966  1.00  0.00    -0.328 A  
ENDROOT
BRANCH   6   9
HETATM    9  C   UNL     1     -10.184  15.455  67.039  1.00  0.00    -0.262 C  
BRANCH   9  10
HETATM   10  N   UNL     1     -10.972  15.444  65.799  1.00  0.00    -0.327 NA 
HETATM   11  N   UNL     1     -11.610  14.318  65.400  1.00  0.00    -0.337 NA 
HETATM   12  C   UNL     1     -12.133  14.706  64.234  1.00  0.00    -0.415 A  
HETATM   13  C   UNL     1     -11.144  16.439  64.882  1.00  0.00    -0.239 A  
HETATM   14  N   UNL     1     -11.856  15.992  63.873  1.00  0.00    -0.788 NA 
ENDBRANCH   9  10
BRANCH   9  15
HETATM   15  C   UNL     1      -9.341  16.733  67.242  1.00  0.00    -0.234 A  
HETATM   16  C   UNL     1      -7.846  19.143  67.470  1.00  0.00    -0.272 A  
HETATM   17  C   UNL     1      -8.112  16.903  66.572  1.00  0.00    -0.327 A  
HETATM   18  C   UNL     1      -7.096  20.356  67.586  1.00  0.00    -0.307 C  
HETATM   19  C   UNL     1      -9.080  19.013  68.110  1.00  0.00    -0.364 A  
HETATM   20  C   UNL     1      -7.367  18.083  66.695  1.00  0.00    -0.254 A  
HETATM   21  C   UNL     1      -9.821  17.833  67.983  1.00  0.00    -0.317 A  
HETATM   22  N   UNL     1      -6.491  21.344  67.682  1.00  0.00    -0.508 NA 
ENDBRANCH   9  15
ENDBRANCH   6   9
TORSDOF 3
ENDMDL
MODEL       13
REMARK 921   NORMALIZED FREE ENERGY PREDICTED BY IDOCK:   -6.26 KCAL/MOL
REMARK 922        TOTAL FREE ENERGY PREDICTED BY IDOCK:   -8.06 KCAL/MOL
REMARK 923 INTER-LIGAND FREE ENERGY PREDICTED BY IDOCK:   -7.74 KCAL/MOL
REMARK 924 INTRA-LIGAND FREE ENERGY PREDICTED BY IDOCK:   -0.32 KCAL/MOL
REMARK 927      BINDING AFFINITY PREDICTED BY RF-SCORE:    0.00 PKD
ROOT
HETATM    1  N   UNL     1     -10.339  10.920  63.577  1.00  0.00    -0.333 NA 
HETATM    2  C   UNL     1     -10.540  11.714  64.399  1.00  0.00    -0.323 C  
HETATM    3  C   UNL     1     -10.779  12.715  65.400  1.00  0.00    -0.308 A  
HETATM    4  C   UNL     1     -12.041  13.301  65.523  1.00  0.00    -0.480 A  
HETATM    5  C   UNL     1     -12.247  14.337  66.442  1.00  0.00    -0.426 A  
HETATM    6  C   UNL     1     -11.196  14.811  67.252  1.00  0.00    -0.351 A  
HETATM    7  C   UNL     1      -9.745  13.128  66.246  1.00  0.00    -0.269 A  
HETATM    8  C   UNL     1      -9.958  14.151  67.181  1.00  0.00    -0.255 A  
ENDROOT
BRANCH   6   9
HETATM    9  C   UNL     1     -11.447  16.016  68.169  1.00  0.00    -0.250 C  
BRANCH   9  10
HETATM   10  N   UNL     1     -11.662  15.545  69.544  1.00  0.00    -0.343 NA 
HETATM   11  N   UNL     1     -11.334  16.328  70.598  1.00  0.00    -0.369 NA 
HETATM   12  C   UNL     1     -11.617  15.526  71.627  1.00  0.00    -0.430 A  
HETATM   13  C   UNL     1     -12.127  14.337  69.975  1.00  0.00    -0.340 A  
HETATM   14  N   UNL     1     -12.089  14.291  71.287  1.00  0.00    -0.346 NA 
ENDBRANCH   9  10
BRANCH   9  15
HETATM   15  C   UNL     1     -10.476  17.212  68.054  1.00  0.00    -0.369 A  
HETATM   16  C   UNL     1      -8.636  19.352  67.695  1.00  0.00    -0.343 A  
HETATM   17  C   UNL     1      -9.109  17.067  68.367  1.00  0.00    -0.256 A  
HETATM   18  C   UNL     1      -7.712  20.429  67.514  1.00  0.00    -0.299 C  
HETATM   19  C   UNL     1      -9.977  19.505  67.339  1.00  0.00    -0.498 A  
HETATM   20  C   UNL     1      -8.204  18.124  68.205  1.00  0.00    -0.300 A  
HETATM   21  C   UNL     1     -10.877  18.446  67.500  1.00  0.00    -0.304 A  
HETATM   22  N   UNL     1      -6.965  21.307  67.364  1.00  0.00    -0.544 NA 
ENDBRANCH   9  15
ENDBRANCH   6   9
TORSDOF 3
ENDMDL
MODEL       14
REMARK 921   NORMALIZED FREE ENERGY PREDICTED BY IDOCK:   -6.24 KCAL/MOL
REMARK 922        TOTAL FREE ENERGY PREDICTED BY IDOCK:   -8.03 KCAL/MOL
REMARK 923 INTER-LIGAND FREE ENERGY PREDICTED BY IDOCK:   -7.59 KCAL/MOL
REMARK 924 INTRA-LIGAND FREE ENERGY PREDICTED BY IDOCK:   -0.43 KCAL/MOL
REMARK 927      BINDING AFFINITY PREDICTED BY RF-SCORE:    0.00 PKD
ROOT
HETATM    1  N   UNL     1     -11.372  16.006  63.920  1.00  0.00    -0.554 NA 
HETATM    2  C   UNL     1     -11.354  15.570  64.995  1.00  0.00    -0.299 C  
HETATM    3  C   UNL     1     -11.351  15.045  66.332  1.00  0.00    -0.275 A  
HETATM    4  C   UNL     1     -12.006  13.845  66.619  1.00  0.00    -0.474 A  
HETATM    5  C   UNL     1     -12.076  13.382  67.938  1.00  0.00    -0.289 A  
HETATM    6  C   UNL     1     -11.497  14.110  68.997  1.00  0.00    -0.322 A  
HETATM    7  C   UNL     1     -10.714  15.743  67.363  1.00  0.00    -0.317 A  
HETATM    8  C   UNL     1     -10.766  15.267  68.681  1.00  0.00    -0.245 A  
ENDROOT
BRANCH   6   9
HETATM    9  C   UNL     1     -11.690  13.613  70.436  1.00  0.00    -0.151 C  
BRANCH   9  10
HETATM   10  N   UNL     1     -12.576  14.538  71.156  1.00  0.00    -0.313 NA 
HETATM   11  N   UNL     1     -12.269  14.948  72.409  1.00  0.00    -0.340 NA 
HETATM   12  C   UNL     1     -13.330  15.700  72.712  1.00  0.00    -0.549 A  
HETATM   13  C   UNL     1     -13.775  15.058  70.765  1.00  0.00    -0.141 A  
HETATM   14  N   UNL     1     -14.283  15.779  71.738  1.00  0.00    -0.407 NA 
ENDBRANCH   9  10
BRANCH   9  15
HETATM   15  C   UNL     1     -12.037  12.121  70.633  1.00  0.00    -0.344 A  
HETATM   16  C   UNL     1     -12.550   9.362  71.104  1.00  0.00    -0.357 A  
HETATM   17  C   UNL     1     -11.293  11.113  69.987  1.00  0.00    -0.326 A  
HETATM   18  C   UNL     1     -12.810   7.975  71.342  1.00  0.00    -0.269 C  
HETATM   19  C   UNL     1     -13.272  10.343  71.786  1.00  0.00    -0.529 A  
HETATM   20  C   UNL     1     -11.553   9.754  70.206  1.00  0.00    -0.283 A  
HETATM   21  C   UNL     1     -13.008  11.698  71.566  1.00  0.00    -0.463 A  
HETATM   22  N   UNL     1     -13.024   6.850  71.540  1.00  0.00    -0.347 NA 
ENDBRANCH   9  15
ENDBRANCH   6   9
TORSDOF 3
ENDMDL
MODEL       15
REMARK 921   NORMALIZED FREE ENERGY PREDICTED BY IDOCK:   -6.20 KCAL/MOL
REMARK 922        TOTAL FREE ENERGY PREDICTED BY IDOCK:   -7.98 KCAL/MOL
REMARK 923 INTER-LIGAND FREE ENERGY PREDICTED BY IDOCK:   -7.71 KCAL/MOL
REMARK 924 INTRA-LIGAND FREE ENERGY PREDICTED BY IDOCK:   -0.27 KCAL/MOL
REMARK 927      BINDING AFFINITY PREDICTED BY RF-SCORE:    0.00 PKD
ROOT
HETATM    1  N   UNL     1     -13.373  16.211  73.512  1.00  0.00    -0.634 NA 
HETATM    2  C   UNL     1     -13.214  15.264  72.859  1.00  0.00    -0.508 C  
HETATM    3  C   UNL     1     -12.994  14.091  72.062  1.00  0.00    -0.450 A  
HETATM    4  C   UNL     1     -13.543  12.865  72.447  1.00  0.00    -0.577 A  
HETATM    5  C   UNL     1     -13.255  11.706  71.717  1.00  0.00    -0.438 A  
HETATM    6  C   UNL     1     -12.409  11.748  70.590  1.00  0.00    -0.421 A  
HETATM    7  C   UNL     1     -12.208  14.157  70.907  1.00  0.00    -0.434 A  
HETATM    8  C   UNL     1     -11.938  13.000  70.163  1.00  0.00    -0.374 A  
ENDROOT
BRANCH   6   9
HETATM    9  C   UNL     1     -12.042  10.435  69.885  1.00  0.00    -0.181 C  
BRANCH   9  10
HETATM   10  N   UNL     1     -11.075  10.712  68.813  1.00  0.00    -0.246 NA 
HETATM   11  N   UNL     1     -11.502  11.029  67.568  1.00  0.00    -0.515 NA 
HETATM   12  C   UNL     1     -10.346  11.134  66.908  1.00  0.00    -0.231 A  
HETATM   13  C   UNL     1      -9.713  10.652  68.849  1.00  0.00    -0.202 A  
HETATM   14  N   UNL     1      -9.228  10.893  67.653  1.00  0.00    -0.151 NA 
ENDBRANCH   9  10
BRANCH   9  15
HETATM   15  C   UNL     1     -11.672   9.228  70.775  1.00  0.00    -0.328 A  
HETATM   16  C   UNL     1     -11.043   7.094  72.548  1.00  0.00    -0.317 A  
HETATM   17  C   UNL     1     -10.473   9.217  71.518  1.00  0.00    -0.385 A  
HETATM   18  C   UNL     1     -10.728   6.019  73.439  1.00  0.00    -0.262 C  
HETATM   19  C   UNL     1     -12.254   7.104  71.855  1.00  0.00    -0.358 A  
HETATM   20  C   UNL     1     -10.155   8.160  72.380  1.00  0.00    -0.355 A  
HETATM   21  C   UNL     1     -12.569   8.162  70.996  1.00  0.00    -0.068 A  
HETATM   22  N   UNL     1     -10.477   5.145  74.163  1.00  0.00    -0.274 NA 
ENDBRANCH   9  15
ENDBRANCH   6   9
TORSDOF 3
ENDMDL
MODEL       16
REMARK 921   NORMALIZED FREE ENERGY PREDICTED BY IDOCK:   -6.15 KCAL/MOL
REMARK 922        TOTAL FREE ENERGY PREDICTED BY IDOCK:   -7.92 KCAL/MOL
REMARK 923 INTER-LIGAND FREE ENERGY PREDICTED BY IDOCK:   -7.60 KCAL/MOL
REMARK 924 INTRA-LIGAND FREE ENERGY PREDICTED BY IDOCK:   -0.32 KCAL/MOL
REMARK 927      BINDING AFFINITY PREDICTED BY RF-SCORE:    0.00 PKD
ROOT
HETATM    1  N   UNL     1     -10.461   6.131  66.859  1.00  0.00    -0.248 NA 
HETATM    2  C   UNL     1     -10.388   7.288  66.912  1.00  0.00    -0.288 C  
HETATM    3  C   UNL     1     -10.317   8.721  66.964  1.00  0.00    -0.353 A  
HETATM    4  C   UNL     1     -10.852   9.414  68.052  1.00  0.00    -0.197 A  
HETATM    5  C   UNL     1     -10.859  10.814  68.058  1.00  0.00    -0.302 A  
HETATM    6  C   UNL     1     -10.338  11.549  66.975  1.00  0.00    -0.254 A  
HETATM    7  C   UNL     1      -9.735   9.438  65.914  1.00  0.00    -0.355 A  
HETATM    8  C   UNL     1      -9.723  10.840  65.930  1.00  0.00    -0.272 A  
ENDROOT
BRANCH   6   9
HETATM    9  C   UNL     1     -10.463  13.079  66.984  1.00  0.00    -0.247 C  
BRANCH   9  10
HETATM   10  N   UNL     1     -11.309  13.504  65.860  1.00  0.00    -0.305 NA 
HETATM   11  N   UNL     1     -11.112  14.706  65.268  1.00  0.00    -0.340 NA 
HETATM   12  C   UNL     1     -12.100  14.726  64.370  1.00  0.00    -0.440 A  
HETATM   13  C   UNL     1     -12.375  12.865  65.298  1.00  0.00    -0.490 A  
HETATM   14  N   UNL     1     -12.906  13.625  64.368  1.00  0.00    -0.586 NA 
ENDBRANCH   9  10
BRANCH   9  15
HETATM   15  C   UNL     1     -10.807  13.757  68.328  1.00  0.00    -0.266 A  
HETATM   16  C   UNL     1     -11.505  15.135  70.717  1.00  0.00    -0.350 A  
HETATM   17  C   UNL     1      -9.991  14.781  68.853  1.00  0.00    -0.233 A  
HETATM   18  C   UNL     1     -11.858  15.828  71.919  1.00  0.00    -0.480 C  
HETATM   19  C   UNL     1     -12.349  14.155  70.194  1.00  0.00    -0.413 A  
HETATM   20  C   UNL     1     -10.326  15.451  70.037  1.00  0.00    -0.288 A  
HETATM   21  C   UNL     1     -12.013  13.490  69.010  1.00  0.00    -0.376 A  
HETATM   22  N   UNL     1     -12.149  16.388  72.895  1.00  0.00    -0.522 NA 
ENDBRANCH   9  15
ENDBRANCH   6   9
TORSDOF 3
ENDMDL
MODEL       17
REMARK 921   NORMALIZED FREE ENERGY PREDICTED BY IDOCK:   -6.14 KCAL/MOL
REMARK 922        TOTAL FREE ENERGY PREDICTED BY IDOCK:   -7.91 KCAL/MOL
REMARK 923 INTER-LIGAND FREE ENERGY PREDICTED BY IDOCK:   -7.15 KCAL/MOL
REMARK 924 INTRA-LIGAND FREE ENERGY PREDICTED BY IDOCK:   -0.76 KCAL/MOL
REMARK 927      BINDING AFFINITY PREDICTED BY RF-SCORE:    0.00 PKD
ROOT
HETATM    1  N   UNL     1      -8.752   6.818  68.861  1.00  0.00    -0.130 NA 
HETATM    2  C   UNL     1      -9.028   7.914  68.599  1.00  0.00    -0.134 C  
HETATM    3  C   UNL     1      -9.382   9.272  68.297  1.00  0.00    -0.141 A  
HETATM    4  C   UNL     1      -8.458  10.301  68.494  1.00  0.00    -0.121 A  
HETATM    5  C   UNL     1      -8.835  11.633  68.282  1.00  0.00    -0.167 A  
HETATM    6  C   UNL     1     -10.142  11.963  67.874  1.00  0.00    -0.199 A  
HETATM    7  C   UNL     1     -10.662   9.581  67.827  1.00  0.00    -0.302 A  
HETATM    8  C   UNL     1     -11.033  10.913  67.594  1.00  0.00    -0.350 A  
ENDROOT
BRANCH   6   9
HETATM    9  C   UNL     1     -10.534  13.442  67.755  1.00  0.00    -0.243 C  
BRANCH   9  10
HETATM   10  N   UNL     1     -11.273  13.650  66.501  1.00  0.00    -0.305 NA 
HETATM   11  N   UNL     1     -10.623  13.653  65.313  1.00  0.00    -0.328 NA 
HETATM   12  C   UNL     1     -11.616  13.931  64.466  1.00  0.00    -0.393 A  
HETATM   13  C   UNL     1     -12.599  13.911  66.319  1.00  0.00    -0.330 A  
HETATM   14  N   UNL     1     -12.838  14.113  65.044  1.00  0.00    -0.713 NA 
ENDBRANCH   9  10
BRANCH   9  15
HETATM   15  C   UNL     1     -11.181  14.108  68.989  1.00  0.00    -0.303 A  
HETATM   16  C   UNL     1     -12.256  15.263  71.357  1.00  0.00    -0.414 A  
HETATM   17  C   UNL     1     -12.026  13.375  69.848  1.00  0.00    -0.408 A  
HETATM   18  C   UNL     1     -12.796  15.845  72.547  1.00  0.00    -0.440 C  
HETATM   19  C   UNL     1     -11.390  15.994  70.543  1.00  0.00    -0.420 A  
HETATM   20  C   UNL     1     -12.567  13.946  71.007  1.00  0.00    -0.444 A  
HETATM   21  C   UNL     1     -10.849  15.420  69.388  1.00  0.00    -0.263 A  
HETATM   22  N   UNL     1     -13.230  16.322  73.514  1.00  0.00    -0.605 NA 
ENDBRANCH   9  15
ENDBRANCH   6   9
TORSDOF 3
ENDMDL
MODEL       18
REMARK 921   NORMALIZED FREE ENERGY PREDICTED BY IDOCK:   -6.14 KCAL/MOL
REMARK 922        TOTAL FREE ENERGY PREDICTED BY IDOCK:   -7.91 KCAL/MOL
REMARK 923 INTER-LIGAND FREE ENERGY PREDICTED BY IDOCK:   -7.20 KCAL/MOL
REMARK 924 INTRA-LIGAND FREE ENERGY PREDICTED BY IDOCK:   -0.71 KCAL/MOL
REMARK 927      BINDING AFFINITY PREDICTED BY RF-SCORE:    0.00 PKD
ROOT
HETATM    1  N   UNL     1     -13.286   9.685  72.048  1.00  0.00    -0.435 NA 
HETATM    2  C   UNL     1     -12.691  10.286  71.253  1.00  0.00    -0.421 C  
HETATM    3  C   UNL     1     -11.975  11.028  70.255  1.00  0.00    -0.452 A  
HETATM    4  C   UNL     1     -11.911  12.422  70.324  1.00  0.00    -0.371 A  
HETATM    5  C   UNL     1     -11.287  13.148  69.302  1.00  0.00    -0.312 A  
HETATM    6  C   UNL     1     -10.719  12.496  68.189  1.00  0.00    -0.246 A  
HETATM    7  C   UNL     1     -11.356  10.365  69.190  1.00  0.00    -0.286 A  
HETATM    8  C   UNL     1     -10.712  11.091  68.178  1.00  0.00    -0.246 A  
ENDROOT
BRANCH   6   9
HETATM    9  C   UNL     1     -10.138  13.341  67.048  1.00  0.00    -0.242 C  
BRANCH   9  10
HETATM   10  N   UNL     1     -11.094  13.373  65.931  1.00  0.00    -0.281 NA 
HETATM   11  N   UNL     1     -10.656  13.340  64.651  1.00  0.00    -0.383 NA 
HETATM   12  C   UNL     1     -11.801  13.451  63.974  1.00  0.00    -0.445 A  
HETATM   13  C   UNL     1     -12.452  13.489  65.967  1.00  0.00    -0.399 A  
HETATM   14  N   UNL     1     -12.922  13.561  64.744  1.00  0.00    -0.686 NA 
ENDBRANCH   9  10
BRANCH   9  15
HETATM   15  C   UNL     1      -9.545  14.720  67.413  1.00  0.00    -0.210 A  
HETATM   16  C   UNL     1      -8.541  17.254  68.229  1.00  0.00    -0.247 A  
HETATM   17  C   UNL     1     -10.295  15.901  67.235  1.00  0.00    -0.293 A  
HETATM   18  C   UNL     1      -8.034  18.528  68.639  1.00  0.00    -0.309 C  
HETATM   19  C   UNL     1      -7.799  16.094  68.453  1.00  0.00    -0.160 A  
HETATM   20  C   UNL     1      -9.796  17.151  67.623  1.00  0.00    -0.270 A  
HETATM   21  C   UNL     1      -8.301  14.846  68.067  1.00  0.00    -0.147 A  
HETATM   22  N   UNL     1      -7.619  19.560  68.976  1.00  0.00    -0.359 NA 
ENDBRANCH   9  15
ENDBRANCH   6   9
TORSDOF 3
ENDMDL
MODEL       19
REMARK 921   NORMALIZED FREE ENERGY PREDICTED BY IDOCK:   -6.10 KCAL/MOL
REMARK 922        TOTAL FREE ENERGY PREDICTED BY IDOCK:   -7.87 KCAL/MOL
REMARK 923 INTER-LIGAND FREE ENERGY PREDICTED BY IDOCK:   -7.70 KCAL/MOL
REMARK 924 INTRA-LIGAND FREE ENERGY PREDICTED BY IDOCK:   -0.16 KCAL/MOL
REMARK 927      BINDING AFFINITY PREDICTED BY RF-SCORE:    0.00 PKD
ROOT
HETATM    1  N   UNL     1     -12.436  16.630  74.532  1.00  0.00    -0.735 NA 
HETATM    2  C   UNL     1     -12.423  16.103  73.499  1.00  0.00    -0.564 C  
HETATM    3  C   UNL     1     -12.386  15.438  72.227  1.00  0.00    -0.465 A  
HETATM    4  C   UNL     1     -13.200  14.327  71.990  1.00  0.00    -0.470 A  
HETATM    5  C   UNL     1     -13.098  13.628  70.781  1.00  0.00    -0.122 A  
HETATM    6  C   UNL     1     -12.180  14.022  69.787  1.00  0.00    -0.396 A  
HETATM    7  C   UNL     1     -11.520  15.880  71.223  1.00  0.00    -0.489 A  
HETATM    8  C   UNL     1     -11.434  15.192  70.004  1.00  0.00    -0.315 A  
ENDROOT
BRANCH   6   9
HETATM    9  C   UNL     1     -12.035  13.163  68.524  1.00  0.00    -0.289 C  
BRANCH   9  10
HETATM   10  N   UNL     1     -11.286  13.915  67.507  1.00  0.00    -0.303 NA 
HETATM   11  N   UNL     1     -11.923  14.439  66.433  1.00  0.00    -0.404 NA 
HETATM   12  C   UNL     1     -10.905  14.966  65.750  1.00  0.00    -0.339 A  
HETATM   13  C   UNL     1      -9.946  14.153  67.429  1.00  0.00    -0.240 A  
HETATM   14  N   UNL     1      -9.675  14.797  66.317  1.00  0.00    -0.287 NA 
ENDBRANCH   9  10
BRANCH   9  15
HETATM   15  C   UNL     1     -11.563  11.703  68.706  1.00  0.00    -0.374 A  
HETATM   16  C   UNL     1     -10.538   9.068  69.018  1.00  0.00    -0.209 A  
HETATM   17  C   UNL     1     -11.239  10.902  67.591  1.00  0.00    -0.379 A  
HETATM   18  C   UNL     1     -10.022   7.742  69.177  1.00  0.00    -0.182 C  
HETATM   19  C   UNL     1     -10.812   9.857  70.136  1.00  0.00    -0.356 A  
HETATM   20  C   UNL     1     -10.748   9.600  67.743  1.00  0.00    -0.316 A  
HETATM   21  C   UNL     1     -11.300  11.158  69.981  1.00  0.00    -0.326 A  
HETATM   22  N   UNL     1      -9.602   6.667  69.311  1.00  0.00    -0.144 NA 
ENDBRANCH   9  15
ENDBRANCH   6   9
TORSDOF 3
ENDMDL
MODEL       20
REMARK 921   NORMALIZED FREE ENERGY PREDICTED BY IDOCK:   -6.03 KCAL/MOL
REMARK 922        TOTAL FREE ENERGY PREDICTED BY IDOCK:   -7.78 KCAL/MOL
REMARK 923 INTER-LIGAND FREE ENERGY PREDICTED BY IDOCK:   -7.44 KCAL/MOL
REMARK 924 INTRA-LIGAND FREE ENERGY PREDICTED BY IDOCK:   -0.34 KCAL/MOL
REMARK 927      BINDING AFFINITY PREDICTED BY RF-SCORE:    0.00 PKD
ROOT
HETATM    1  N   UNL     1      -9.980  10.209  64.744  1.00  0.00    -0.321 NA 
HETATM    2  C   UNL     1     -10.248  11.135  65.391  1.00  0.00    -0.271 C  
HETATM    3  C   UNL     1     -10.566  12.294  66.176  1.00  0.00    -0.281 A  
HETATM    4  C   UNL     1     -11.772  12.970  65.977  1.00  0.00    -0.442 A  
HETATM    5  C   UNL     1     -12.040  14.150  66.682  1.00  0.00    -0.480 A  
HETATM    6  C   UNL     1     -11.107  14.680  67.596  1.00  0.00    -0.311 A  
HETATM    7  C   UNL     1      -9.661  12.772  67.129  1.00  0.00    -0.219 A  
HETATM    8  C   UNL     1      -9.939  13.942  67.851  1.00  0.00    -0.242 A  
ENDROOT
BRANCH   6   9
HETATM    9  C   UNL     1     -11.403  16.028  68.266  1.00  0.00    -0.326 C  
BRANCH   9  10
HETATM   10  N   UNL     1     -11.729  15.807  69.682  1.00  0.00    -0.353 NA 
HETATM   11  N   UNL     1     -11.071  16.483  70.652  1.00  0.00    -0.197 NA 
HETATM   12  C   UNL     1     -11.606  15.956  71.756  1.00  0.00    -0.455 A  
HETATM   13  C   UNL     1     -12.618  14.930  70.231  1.00  0.00    -0.313 A  
HETATM   14  N   UNL     1     -12.545  14.989  71.540  1.00  0.00    -0.316 NA 
ENDBRANCH   9  10
BRANCH   9  15
HETATM   15  C   UNL     1     -10.405  17.180  68.018  1.00  0.00    -0.353 A  
HETATM   16  C   UNL     1      -8.612  19.367  67.710  1.00  0.00    -0.349 A  
HETATM   17  C   UNL     1     -10.850  18.439  67.565  1.00  0.00    -0.304 A  
HETATM   18  C   UNL     1      -7.708  20.466  67.556  1.00  0.00    -0.299 C  
HETATM   19  C   UNL     1      -8.156  18.143  68.200  1.00  0.00    -0.289 A  
HETATM   20  C   UNL     1      -9.966  19.513  67.398  1.00  0.00    -0.498 A  
HETATM   21  C   UNL     1      -9.042  17.073  68.367  1.00  0.00    -0.256 A  
HETATM   22  N   UNL     1      -6.970  21.356  67.433  1.00  0.00    -0.560 NA 
ENDBRANCH   9  15
ENDBRANCH   6   9
TORSDOF 3
ENDMDL
MODEL       21
REMARK 921   NORMALIZED FREE ENERGY PREDICTED BY IDOCK:   -5.94 KCAL/MOL
REMARK 922        TOTAL FREE ENERGY PREDICTED BY IDOCK:   -7.67 KCAL/MOL
REMARK 923 INTER-LIGAND FREE ENERGY PREDICTED BY IDOCK:   -7.84 KCAL/MOL
REMARK 924 INTRA-LIGAND FREE ENERGY PREDICTED BY IDOCK:    0.17 KCAL/MOL
REMARK 927      BINDING AFFINITY PREDICTED BY RF-SCORE:    0.00 PKD
ROOT
HETATM    1  N   UNL     1      -9.733  11.419  62.848  1.00  0.00    -0.355 NA 
HETATM    2  C   UNL     1     -10.018  11.320  63.968  1.00  0.00    -0.312 C  
HETATM    3  C   UNL     1     -10.395  11.189  65.348  1.00  0.00    -0.331 A  
HETATM    4  C   UNL     1     -10.076  10.030  66.058  1.00  0.00    -0.318 A  
HETATM    5  C   UNL     1     -10.521   9.870  67.376  1.00  0.00    -0.325 A  
HETATM    6  C   UNL     1     -11.297  10.862  68.008  1.00  0.00    -0.382 A  
HETATM    7  C   UNL     1     -11.107  12.211  65.985  1.00  0.00    -0.354 A  
HETATM    8  C   UNL     1     -11.534  12.059  67.312  1.00  0.00    -0.403 A  
ENDROOT
BRANCH   6   9
HETATM    9  C   UNL     1     -11.846  10.594  69.416  1.00  0.00    -0.253 C  
BRANCH   9  10
HETATM   10  N   UNL     1     -10.959   9.652  70.113  1.00  0.00    -0.258 NA 
HETATM   11  N   UNL     1      -9.654   9.954  70.310  1.00  0.00    -0.201 NA 
HETATM   12  C   UNL     1      -9.208   8.841  70.898  1.00  0.00    -0.212 A  
HETATM   13  C   UNL     1     -11.237   8.404  70.590  1.00  0.00    -0.255 A  
HETATM   14  N   UNL     1     -10.143   7.862  71.072  1.00  0.00    -0.192 NA 
ENDBRANCH   9  10
BRANCH   9  15
HETATM   15  C   UNL     1     -12.261  11.817  70.263  1.00  0.00    -0.381 A  
HETATM   16  C   UNL     1     -12.896  14.038  71.923  1.00  0.00    -0.421 A  
HETATM   17  C   UNL     1     -12.976  11.655  71.467  1.00  0.00    -0.463 A  
HETATM   18  C   UNL     1     -13.214  15.157  72.758  1.00  0.00    -0.477 C  
HETATM   19  C   UNL     1     -12.152  14.218  70.757  1.00  0.00    -0.418 A  
HETATM   20  C   UNL     1     -13.302  12.749  72.279  1.00  0.00    -0.563 A  
HETATM   21  C   UNL     1     -11.826  13.123  69.950  1.00  0.00    -0.378 A  
HETATM   22  N   UNL     1     -13.469  16.068  73.432  1.00  0.00    -0.585 NA 
ENDBRANCH   9  15
ENDBRANCH   6   9
TORSDOF 3
ENDMDL
MODEL       22
REMARK 921   NORMALIZED FREE ENERGY PREDICTED BY IDOCK:   -5.90 KCAL/MOL
REMARK 922        TOTAL FREE ENERGY PREDICTED BY IDOCK:   -7.63 KCAL/MOL
REMARK 923 INTER-LIGAND FREE ENERGY PREDICTED BY IDOCK:   -7.14 KCAL/MOL
REMARK 924 INTRA-LIGAND FREE ENERGY PREDICTED BY IDOCK:   -0.48 KCAL/MOL
REMARK 927      BINDING AFFINITY PREDICTED BY RF-SCORE:    0.00 PKD
ROOT
HETATM    1  N   UNL     1      -6.280  20.756  65.425  1.00  0.00    -0.244 NA 
HETATM    2  C   UNL     1      -7.051  19.965  65.779  1.00  0.00    -0.303 C  
HETATM    3  C   UNL     1      -8.012  18.981  66.193  1.00  0.00    -0.273 A  
HETATM    4  C   UNL     1      -7.607  17.672  66.465  1.00  0.00    -0.299 A  
HETATM    5  C   UNL     1      -8.558  16.695  66.783  1.00  0.00    -0.268 A  
HETATM    6  C   UNL     1      -9.932  17.005  66.831  1.00  0.00    -0.289 A  
HETATM    7  C   UNL     1      -9.365  19.317  66.303  1.00  0.00    -0.375 A  
HETATM    8  C   UNL     1     -10.315  18.344  66.643  1.00  0.00    -0.422 A  
ENDROOT
BRANCH   6   9
HETATM    9  C   UNL     1     -10.942  15.877  67.082  1.00  0.00    -0.214 C  
BRANCH   9  10
HETATM   10  N   UNL     1     -10.572  14.704  66.277  1.00  0.00    -0.298 NA 
HETATM   11  N   UNL     1     -10.975  14.601  64.989  1.00  0.00    -0.380 NA 
HETATM   12  C   UNL     1     -10.499  13.399  64.655  1.00  0.00    -0.411 A  
HETATM   13  C   UNL     1      -9.878  13.591  66.650  1.00  0.00    -0.279 A  
HETATM   14  N   UNL     1      -9.836  12.741  65.650  1.00  0.00    -0.222 NA 
ENDBRANCH   9  10
BRANCH   9  15
HETATM   15  C   UNL     1     -11.294  15.552  68.551  1.00  0.00    -0.356 A  
HETATM   16  C   UNL     1     -12.064  15.066  71.246  1.00  0.00    -0.384 A  
HETATM   17  C   UNL     1     -10.875  16.396  69.600  1.00  0.00    -0.346 A  
HETATM   18  C   UNL     1     -12.453  14.820  72.601  1.00  0.00    -0.325 C  
HETATM   19  C   UNL     1     -12.524  14.240  70.219  1.00  0.00    -0.422 A  
HETATM   20  C   UNL     1     -11.242  16.151  70.929  1.00  0.00    -0.329 A  
HETATM   21  C   UNL     1     -12.158  14.490  68.893  1.00  0.00    -0.272 A  
HETATM   22  N   UNL     1     -12.773  14.617  73.700  1.00  0.00    -0.432 NA 
ENDBRANCH   9  15
ENDBRANCH   6   9
TORSDOF 3
ENDMDL
MODEL       23
REMARK 921   NORMALIZED FREE ENERGY PREDICTED BY IDOCK:   -5.89 KCAL/MOL
REMARK 922        TOTAL FREE ENERGY PREDICTED BY IDOCK:   -7.62 KCAL/MOL
REMARK 923 INTER-LIGAND FREE ENERGY PREDICTED BY IDOCK:   -6.90 KCAL/MOL
REMARK 924 INTRA-LIGAND FREE ENERGY PREDICTED BY IDOCK:   -0.72 KCAL/MOL
REMARK 927      BINDING AFFINITY PREDICTED BY RF-SCORE:    0.00 PKD
ROOT
HETATM    1  N   UNL     1      -7.547   5.704  67.797  1.00  0.00    -0.088 NA 
HETATM    2  C   UNL     1      -7.965   6.772  67.615  1.00  0.00    -0.113 C  
HETATM    3  C   UNL     1      -8.497   8.089  67.412  1.00  0.00    -0.126 A  
HETATM    4  C   UNL     1      -7.796   9.210  67.865  1.00  0.00    -0.100 A  
HETATM    5  C   UNL     1      -8.358  10.486  67.743  1.00  0.00    -0.111 A  
HETATM    6  C   UNL     1      -9.633  10.668  67.170  1.00  0.00    -0.189 A  
HETATM    7  C   UNL     1      -9.732   8.263  66.779  1.00  0.00    -0.307 A  
HETATM    8  C   UNL     1     -10.285   9.543  66.638  1.00  0.00    -0.310 A  
ENDROOT
BRANCH   6   9
HETATM    9  C   UNL     1     -10.248  12.074  67.152  1.00  0.00    -0.202 C  
BRANCH   9  10
HETATM   10  N   UNL     1     -10.884  12.311  65.848  1.00  0.00    -0.262 NA 
HETATM   11  N   UNL     1     -12.233  12.346  65.738  1.00  0.00    -0.638 NA 
HETATM   12  C   UNL     1     -12.389  12.512  64.422  1.00  0.00    -0.455 A  
HETATM   13  C   UNL     1     -10.301  12.464  64.624  1.00  0.00    -0.307 A  
HETATM   14  N   UNL     1     -11.231  12.572  63.703  1.00  0.00    -0.454 NA 
ENDBRANCH   9  10
BRANCH   9  15
HETATM   15  C   UNL     1     -11.114  12.487  68.363  1.00  0.00    -0.293 A  
HETATM   16  C   UNL     1     -12.569  13.245  70.687  1.00  0.00    -0.305 A  
HETATM   17  C   UNL     1     -11.523  11.534  69.319  1.00  0.00    -0.370 A  
HETATM   18  C   UNL     1     -13.301  13.629  71.855  1.00  0.00    -0.425 C  
HETATM   19  C   UNL     1     -12.139  14.211  69.775  1.00  0.00    -0.409 A  
HETATM   20  C   UNL     1     -12.252  11.904  70.457  1.00  0.00    -0.426 A  
HETATM   21  C   UNL     1     -11.409  13.838  68.642  1.00  0.00    -0.321 A  
HETATM   22  N   UNL     1     -13.894  13.945  72.803  1.00  0.00    -0.688 NA 
ENDBRANCH   9  15
ENDBRANCH   6   9
TORSDOF 3
ENDMDL
MODEL       24
REMARK 921   NORMALIZED FREE ENERGY PREDICTED BY IDOCK:   -5.83 KCAL/MOL
REMARK 922        TOTAL FREE ENERGY PREDICTED BY IDOCK:   -7.54 KCAL/MOL
REMARK 923 INTER-LIGAND FREE ENERGY PREDICTED BY IDOCK:   -7.20 KCAL/MOL
REMARK 924 INTRA-LIGAND FREE ENERGY PREDICTED BY IDOCK:   -0.34 KCAL/MOL
REMARK 927      BINDING AFFINITY PREDICTED BY RF-SCORE:    0.00 PKD
ROOT
HETATM    1  N   UNL     1      -8.166   7.328  65.508  1.00  0.00    -0.135 NA 
HETATM    2  C   UNL     1      -8.511   8.426  65.654  1.00  0.00    -0.164 C  
HETATM    3  C   UNL     1      -8.950   9.778  65.856  1.00  0.00    -0.189 A  
HETATM    4  C   UNL     1      -8.123  10.697  66.507  1.00  0.00    -0.140 A  
HETATM    5  C   UNL     1      -8.589  11.989  66.780  1.00  0.00    -0.177 A  
HETATM    6  C   UNL     1      -9.890  12.387  66.412  1.00  0.00    -0.249 A  
HETATM    7  C   UNL     1     -10.218  10.181  65.425  1.00  0.00    -0.281 A  
HETATM    8  C   UNL     1     -10.675  11.482  65.679  1.00  0.00    -0.323 A  
ENDROOT
BRANCH   6   9
HETATM    9  C   UNL     1     -10.388  13.779  66.824  1.00  0.00    -0.272 C  
BRANCH   9  10
HETATM   10  N   UNL     1     -11.037  14.423  65.674  1.00  0.00    -0.312 NA 
HETATM   11  N   UNL     1     -10.563  15.593  65.184  1.00  0.00    -0.422 NA 
HETATM   12  C   UNL     1     -11.448  15.857  64.219  1.00  0.00    -0.191 A  
HETATM   13  C   UNL     1     -12.154  14.039  64.992  1.00  0.00    -0.415 A  
HETATM   14  N   UNL     1     -12.448  14.939  64.081  1.00  0.00    -0.786 NA 
ENDBRANCH   9  10
BRANCH   9  15
HETATM   15  C   UNL     1     -11.183  13.888  68.143  1.00  0.00    -0.293 A  
HETATM   16  C   UNL     1     -12.504  14.077  70.656  1.00  0.00    -0.435 A  
HETATM   17  C   UNL     1     -11.472  12.741  68.911  1.00  0.00    -0.352 A  
HETATM   18  C   UNL     1     -13.168  14.174  71.920  1.00  0.00    -0.387 C  
HETATM   19  C   UNL     1     -12.191  15.229  69.933  1.00  0.00    -0.357 A  
HETATM   20  C   UNL     1     -12.135  12.831  70.142  1.00  0.00    -0.370 A  
HETATM   21  C   UNL     1     -11.527  15.135  68.706  1.00  0.00    -0.335 A  
HETATM   22  N   UNL     1     -13.706  14.258  72.947  1.00  0.00    -0.618 NA 
ENDBRANCH   9  15
ENDBRANCH   6   9
TORSDOF 3
ENDMDL
MODEL       25
REMARK 921   NORMALIZED FREE ENERGY PREDICTED BY IDOCK:   -5.82 KCAL/MOL
REMARK 922        TOTAL FREE ENERGY PREDICTED BY IDOCK:   -7.54 KCAL/MOL
REMARK 923 INTER-LIGAND FREE ENERGY PREDICTED BY IDOCK:   -7.07 KCAL/MOL
REMARK 924 INTRA-LIGAND FREE ENERGY PREDICTED BY IDOCK:   -0.47 KCAL/MOL
REMARK 927      BINDING AFFINITY PREDICTED BY RF-SCORE:    0.00 PKD
ROOT
HETATM    1  N   UNL     1     -13.366  14.189  73.016  1.00  0.00    -0.636 NA 
HETATM    2  C   UNL     1     -12.958  13.797  72.003  1.00  0.00    -0.345 C  
HETATM    3  C   UNL     1     -12.477  13.307  70.742  1.00  0.00    -0.403 A  
HETATM    4  C   UNL     1     -12.168  14.199  69.712  1.00  0.00    -0.397 A  
HETATM    5  C   UNL     1     -11.782  13.714  68.456  1.00  0.00    -0.392 A  
HETATM    6  C   UNL     1     -11.703  12.330  68.204  1.00  0.00    -0.408 A  
HETATM    7  C   UNL     1     -12.337  11.933  70.525  1.00  0.00    -0.372 A  
HETATM    8  C   UNL     1     -11.930  11.448  69.274  1.00  0.00    -0.400 A  
ENDROOT
BRANCH   6   9
HETATM    9  C   UNL     1     -11.376  11.850  66.783  1.00  0.00    -0.330 C  
BRANCH   9  10
HETATM   10  N   UNL     1     -11.633  12.939  65.830  1.00  0.00    -0.356 NA 
HETATM   11  N   UNL     1     -10.677  13.860  65.565  1.00  0.00    -0.291 NA 
HETATM   12  C   UNL     1     -11.320  14.679  64.729  1.00  0.00    -0.396 A  
HETATM   13  C   UNL     1     -12.779  13.232  65.150  1.00  0.00    -0.402 A  
HETATM   14  N   UNL     1     -12.614  14.338  64.463  1.00  0.00    -0.677 NA 
ENDBRANCH   9  10
BRANCH   9  15
HETATM   15  C   UNL     1     -10.029  11.126  66.569  1.00  0.00    -0.252 A  
HETATM   16  C   UNL     1      -7.585   9.694  66.305  1.00  0.00    -0.101 A  
HETATM   17  C   UNL     1      -8.915  11.413  67.385  1.00  0.00    -0.154 A  
HETATM   18  C   UNL     1      -6.356   8.972  66.170  1.00  0.00    -0.064 C  
HETATM   19  C   UNL     1      -8.687   9.364  65.515  1.00  0.00    -0.190 A  
HETATM   20  C   UNL     1      -7.706  10.719  67.246  1.00  0.00    -0.109 A  
HETATM   21  C   UNL     1      -9.893  10.057  65.658  1.00  0.00    -0.363 A  
HETATM   22  N   UNL     1      -5.361   8.382  66.058  1.00  0.00    -0.031 NA 
ENDBRANCH   9  15
ENDBRANCH   6   9
TORSDOF 3
ENDMDL
MODEL       26
REMARK 921   NORMALIZED FREE ENERGY PREDICTED BY IDOCK:   -5.82 KCAL/MOL
REMARK 922        TOTAL FREE ENERGY PREDICTED BY IDOCK:   -7.54 KCAL/MOL
REMARK 923 INTER-LIGAND FREE ENERGY PREDICTED BY IDOCK:   -6.79 KCAL/MOL
REMARK 924 INTRA-LIGAND FREE ENERGY PREDICTED BY IDOCK:   -0.75 KCAL/MOL
REMARK 927      BINDING AFFINITY PREDICTED BY RF-SCORE:    0.00 PKD
ROOT
HETATM    1  N   UNL     1     -12.068  16.463  73.484  1.00  0.00    -0.472 NA 
HETATM    2  C   UNL     1     -12.062  15.860  72.492  1.00  0.00    -0.509 C  
HETATM    3  C   UNL     1     -12.032  15.106  71.271  1.00  0.00    -0.399 A  
HETATM    4  C   UNL     1     -12.627  13.844  71.208  1.00  0.00    -0.450 A  
HETATM    5  C   UNL     1     -12.519  13.075  70.043  1.00  0.00    -0.112 A  
HETATM    6  C   UNL     1     -11.812  13.550  68.920  1.00  0.00    -0.384 A  
HETATM    7  C   UNL     1     -11.386  15.617  70.141  1.00  0.00    -0.354 A  
HETATM    8  C   UNL     1     -11.297  14.856  68.967  1.00  0.00    -0.310 A  
ENDROOT
BRANCH   6   9
HETATM    9  C   UNL     1     -11.636  12.628  67.705  1.00  0.00    -0.348 C  
BRANCH   9  10
HETATM   10  N   UNL     1     -11.430  13.444  66.501  1.00  0.00    -0.327 NA 
HETATM   11  N   UNL     1     -12.481  14.024  65.875  1.00  0.00    -0.491 NA 
HETATM   12  C   UNL     1     -11.885  14.598  64.827  1.00  0.00    -0.440 A  
HETATM   13  C   UNL     1     -10.273  13.698  65.824  1.00  0.00    -0.308 A  
HETATM   14  N   UNL     1     -10.536  14.407  64.751  1.00  0.00    -0.426 NA 
ENDBRANCH   9  10
BRANCH   9  15
HETATM   15  C   UNL     1     -10.652  11.446  67.846  1.00  0.00    -0.224 A  
HETATM   16  C   UNL     1      -8.915   9.229  68.249  1.00  0.00    -0.129 A  
HETATM   17  C   UNL     1      -9.536  11.532  68.703  1.00  0.00    -0.146 A  
HETATM   18  C   UNL     1      -8.042   8.113  68.450  1.00  0.00    -0.128 C  
HETATM   19  C   UNL     1     -10.037   9.108  67.428  1.00  0.00    -0.289 A  
HETATM   20  C   UNL     1      -8.671  10.446  68.892  1.00  0.00    -0.157 A  
HETATM   21  C   UNL     1     -10.900  10.194  67.244  1.00  0.00    -0.295 A  
HETATM   22  N   UNL     1      -7.338   7.203  68.611  1.00  0.00    -0.094 NA 
ENDBRANCH   9  15
ENDBRANCH   6   9
TORSDOF 3
ENDMDL
MODEL       27
REMARK 921   NORMALIZED FREE ENERGY PREDICTED BY IDOCK:   -5.69 KCAL/MOL
REMARK 922        TOTAL FREE ENERGY PREDICTED BY IDOCK:   -7.38 KCAL/MOL
REMARK 923 INTER-LIGAND FREE ENERGY PREDICTED BY IDOCK:   -6.79 KCAL/MOL
REMARK 924 INTRA-LIGAND FREE ENERGY PREDICTED BY IDOCK:   -0.59 KCAL/MOL
REMARK 927      BINDING AFFINITY PREDICTED BY RF-SCORE:    0.00 PKD
ROOT
HETATM    1  N   UNL     1     -14.004   9.053  72.761  1.00  0.00    -0.442 NA 
HETATM    2  C   UNL     1     -13.237   9.391  71.959  1.00  0.00    -0.449 C  
HETATM    3  C   UNL     1     -12.284   9.831  70.980  1.00  0.00    -0.436 A  
HETATM    4  C   UNL     1     -10.969   9.361  71.017  1.00  0.00    -0.409 A  
HETATM    5  C   UNL     1     -10.020   9.858  70.115  1.00  0.00    -0.291 A  
HETATM    6  C   UNL     1     -10.365  10.837  69.162  1.00  0.00    -0.238 A  
HETATM    7  C   UNL     1     -12.655  10.752  69.995  1.00  0.00    -0.247 A  
HETATM    8  C   UNL     1     -11.710  11.234  69.078  1.00  0.00    -0.410 A  
ENDROOT
BRANCH   6   9
HETATM    9  C   UNL     1      -9.267  11.424  68.265  1.00  0.00    -0.183 C  
BRANCH   9  10
HETATM   10  N   UNL     1      -8.580  10.332  67.559  1.00  0.00    -0.119 NA 
HETATM   11  N   UNL     1      -9.291   9.349  66.958  1.00  0.00    -0.144 NA 
HETATM   12  C   UNL     1      -8.318   8.553  66.509  1.00  0.00    -0.113 A  
HETATM   13  C   UNL     1      -7.243  10.096  67.438  1.00  0.00    -0.088 A  
HETATM   14  N   UNL     1      -7.050   8.966  66.797  1.00  0.00    -0.080 NA 
ENDBRANCH   9  10
BRANCH   9  15
HETATM   15  C   UNL     1      -9.646  12.620  67.365  1.00  0.00    -0.194 A  
HETATM   16  C   UNL     1     -10.506  14.795  65.745  1.00  0.00    -0.348 A  
HETATM   17  C   UNL     1     -10.139  12.416  66.059  1.00  0.00    -0.269 A  
HETATM   18  C   UNL     1     -10.938  15.891  64.931  1.00  0.00    -0.411 C  
HETATM   19  C   UNL     1     -10.061  15.017  67.048  1.00  0.00    -0.244 A  
HETATM   20  C   UNL     1     -10.550  13.487  65.255  1.00  0.00    -0.335 A  
HETATM   21  C   UNL     1      -9.654  13.945  67.850  1.00  0.00    -0.227 A  
HETATM   22  N   UNL     1     -11.289  16.783  64.275  1.00  0.00    -1.111 NA 
ENDBRANCH   9  15
ENDBRANCH   6   9
TORSDOF 3
ENDMDL
MODEL       28
REMARK 921   NORMALIZED FREE ENERGY PREDICTED BY IDOCK:   -5.69 KCAL/MOL
REMARK 922        TOTAL FREE ENERGY PREDICTED BY IDOCK:   -7.38 KCAL/MOL
REMARK 923 INTER-LIGAND FREE ENERGY PREDICTED BY IDOCK:   -7.25 KCAL/MOL
REMARK 924 INTRA-LIGAND FREE ENERGY PREDICTED BY IDOCK:   -0.13 KCAL/MOL
REMARK 927      BINDING AFFINITY PREDICTED BY RF-SCORE:    0.00 PKD
ROOT
HETATM    1  N   UNL     1     -11.552  16.585  63.916  1.00  0.00    -1.071 NA 
HETATM    2  C   UNL     1     -11.377  15.736  64.688  1.00  0.00    -0.337 C  
HETATM    3  C   UNL     1     -11.164  14.703  65.662  1.00  0.00    -0.342 A  
HETATM    4  C   UNL     1     -12.203  13.835  66.007  1.00  0.00    -0.495 A  
HETATM    5  C   UNL     1     -12.018  12.886  67.019  1.00  0.00    -0.390 A  
HETATM    6  C   UNL     1     -10.793  12.787  67.709  1.00  0.00    -0.248 A  
HETATM    7  C   UNL     1      -9.922  14.570  66.292  1.00  0.00    -0.320 A  
HETATM    8  C   UNL     1      -9.731  13.605  67.291  1.00  0.00    -0.243 A  
ENDROOT
BRANCH   6   9
HETATM    9  C   UNL     1     -10.675  11.801  68.879  1.00  0.00    -0.205 C  
BRANCH   9  10
HETATM   10  N   UNL     1     -11.662  12.149  69.911  1.00  0.00    -0.311 NA 
HETATM   11  N   UNL     1     -11.913  13.445  70.212  1.00  0.00    -0.330 NA 
HETATM   12  C   UNL     1     -12.791  13.322  71.210  1.00  0.00    -0.312 A  
HETATM   13  C   UNL     1     -12.391  11.323  70.715  1.00  0.00    -0.398 A  
HETATM   14  N   UNL     1     -13.097  12.038  71.560  1.00  0.00    -0.349 NA 
ENDBRANCH   9  10
BRANCH   9  15
HETATM   15  C   UNL     1     -10.619  10.296  68.538  1.00  0.00    -0.240 A  
HETATM   16  C   UNL     1     -10.359   7.545  67.860  1.00  0.00    -0.266 A  
HETATM   17  C   UNL     1     -10.748   9.850  67.206  1.00  0.00    -0.304 A  
HETATM   18  C   UNL     1     -10.227   6.161  67.521  1.00  0.00    -0.178 C  
HETATM   19  C   UNL     1     -10.186   7.968  69.178  1.00  0.00    -0.221 A  
HETATM   20  C   UNL     1     -10.635   8.495  66.872  1.00  0.00    -0.279 A  
HETATM   21  C   UNL     1     -10.298   9.323  69.507  1.00  0.00    -0.223 A  
HETATM   22  N   UNL     1     -10.118   5.036  67.250  1.00  0.00    -0.189 NA 
ENDBRANCH   9  15
ENDBRANCH   6   9
TORSDOF 3
ENDMDL
MODEL       29
REMARK 921   NORMALIZED FREE ENERGY PREDICTED BY IDOCK:   -5.64 KCAL/MOL
REMARK 922        TOTAL FREE ENERGY PREDICTED BY IDOCK:   -7.32 KCAL/MOL
REMARK 923 INTER-LIGAND FREE ENERGY PREDICTED BY IDOCK:   -6.80 KCAL/MOL
REMARK 924 INTRA-LIGAND FREE ENERGY PREDICTED BY IDOCK:   -0.52 KCAL/MOL
REMARK 927      BINDING AFFINITY PREDICTED BY RF-SCORE:    0.00 PKD
ROOT
HETATM    1  N   UNL     1      -6.487  10.365  65.456  1.00  0.00    -0.125 NA 
HETATM    2  C   UNL     1      -7.346  10.179  66.213  1.00  0.00    -0.112 C  
HETATM    3  C   UNL     1      -8.412   9.973  67.153  1.00  0.00    -0.125 A  
HETATM    4  C   UNL     1      -9.711   9.730  66.701  1.00  0.00    -0.257 A  
HETATM    5  C   UNL     1     -10.763   9.617  67.619  1.00  0.00    -0.324 A  
HETATM    6  C   UNL     1     -10.538   9.748  69.004  1.00  0.00    -0.238 A  
HETATM    7  C   UNL     1      -8.164  10.037  68.527  1.00  0.00    -0.108 A  
HETATM    8  C   UNL     1      -9.214   9.902  69.447  1.00  0.00    -0.225 A  
ENDROOT
BRANCH   6   9
HETATM    9  C   UNL     1     -11.739   9.718  69.960  1.00  0.00    -0.074 C  
BRANCH   9  10
HETATM   10  N   UNL     1     -11.561   8.629  70.930  1.00  0.00    -0.278 NA 
HETATM   11  N   UNL     1     -10.839   8.825  72.058  1.00  0.00    -0.355 NA 
HETATM   12  C   UNL     1     -10.869   7.609  72.609  1.00  0.00    -0.340 A  
HETATM   13  C   UNL     1     -11.992   7.337  70.859  1.00  0.00    -0.305 A  
HETATM   14  N   UNL     1     -11.550   6.666  71.897  1.00  0.00    -0.287 NA 
ENDBRANCH   9  10
BRANCH   9  15
HETATM   15  C   UNL     1     -12.183  11.058  70.586  1.00  0.00    -0.481 A  
HETATM   16  C   UNL     1     -13.121  13.535  71.625  1.00  0.00    -0.459 A  
HETATM   17  C   UNL     1     -11.819  12.288  69.999  1.00  0.00    -0.372 A  
HETATM   18  C   UNL     1     -13.594  14.780  72.148  1.00  0.00    -0.415 C  
HETATM   19  C   UNL     1     -13.527  12.329  72.197  1.00  0.00    -0.431 A  
HETATM   20  C   UNL     1     -12.269  13.509  70.517  1.00  0.00    -0.433 A  
HETATM   21  C   UNL     1     -13.078  11.112  71.675  1.00  0.00    -0.529 A  
HETATM   22  N   UNL     1     -13.982  15.789  72.577  1.00  0.00    -0.528 NA 
ENDBRANCH   9  15
ENDBRANCH   6   9
TORSDOF 3
ENDMDL
MODEL       30
REMARK 921   NORMALIZED FREE ENERGY PREDICTED BY IDOCK:   -5.63 KCAL/MOL
REMARK 922        TOTAL FREE ENERGY PREDICTED BY IDOCK:   -7.30 KCAL/MOL
REMARK 923 INTER-LIGAND FREE ENERGY PREDICTED BY IDOCK:   -6.87 KCAL/MOL
REMARK 924 INTRA-LIGAND FREE ENERGY PREDICTED BY IDOCK:   -0.43 KCAL/MOL
REMARK 927      BINDING AFFINITY PREDICTED BY RF-SCORE:    0.00 PKD
ROOT
HETATM    1  N   UNL     1     -11.387  16.866  64.205  1.00  0.00    -1.103 NA 
HETATM    2  C   UNL     1     -11.270  15.778  64.590  1.00  0.00    -0.363 C  
HETATM    3  C   UNL     1     -11.115  14.425  65.044  1.00  0.00    -0.385 A  
HETATM    4  C   UNL     1     -10.025  14.071  65.844  1.00  0.00    -0.325 A  
HETATM    5  C   UNL     1      -9.830  12.734  66.212  1.00  0.00    -0.269 A  
HETATM    6  C   UNL     1     -10.715  11.725  65.785  1.00  0.00    -0.328 A  
HETATM    7  C   UNL     1     -12.038  13.443  64.670  1.00  0.00    -0.456 A  
HETATM    8  C   UNL     1     -11.854  12.108  65.057  1.00  0.00    -0.357 A  
ENDROOT
BRANCH   6   9
HETATM    9  C   UNL     1     -10.400  10.263  66.130  1.00  0.00    -0.183 C  
BRANCH   9  10
HETATM   10  N   UNL     1      -9.049   9.931  65.654  1.00  0.00    -0.165 NA 
HETATM   11  N   UNL     1      -8.860   9.450  64.403  1.00  0.00    -0.205 NA 
HETATM   12  C   UNL     1      -7.544   9.225  64.399  1.00  0.00    -0.115 A  
HETATM   13  C   UNL     1      -7.865   9.984  66.328  1.00  0.00    -0.111 A  
HETATM   14  N   UNL     1      -6.901   9.523  65.565  1.00  0.00    -0.082 NA 
ENDBRANCH   9  10
BRANCH   9  15
HETATM   15  C   UNL     1     -10.698   9.791  67.570  1.00  0.00    -0.327 A  
HETATM   16  C   UNL     1     -11.086   8.950  70.260  1.00  0.00    -0.251 A  
HETATM   17  C   UNL     1     -10.344   8.493  67.994  1.00  0.00    -0.272 A  
HETATM   18  C   UNL     1     -11.283   8.529  71.614  1.00  0.00    -0.292 C  
HETATM   19  C   UNL     1     -11.406  10.252  69.873  1.00  0.00    -0.354 A  
HETATM   20  C   UNL     1     -10.548   8.073  69.315  1.00  0.00    -0.193 A  
HETATM   21  C   UNL     1     -11.198  10.669  68.554  1.00  0.00    -0.342 A  
HETATM   22  N   UNL     1     -11.442   8.193  72.714  1.00  0.00    -0.395 NA 
ENDBRANCH   9  15
ENDBRANCH   6   9
TORSDOF 3
ENDMDL
MODEL       31
REMARK 921   NORMALIZED FREE ENERGY PREDICTED BY IDOCK:   -5.62 KCAL/MOL
REMARK 922        TOTAL FREE ENERGY PREDICTED BY IDOCK:   -7.30 KCAL/MOL
REMARK 923 INTER-LIGAND FREE ENERGY PREDICTED BY IDOCK:   -7.06 KCAL/MOL
REMARK 924 INTRA-LIGAND FREE ENERGY PREDICTED BY IDOCK:   -0.24 KCAL/MOL
REMARK 927      BINDING AFFINITY PREDICTED BY RF-SCORE:    0.00 PKD
ROOT
HETATM    1  N   UNL     1     -12.575  14.726  73.224  1.00  0.00    -0.450 NA 
HETATM    2  C   UNL     1     -12.367  14.849  72.089  1.00  0.00    -0.351 C  
HETATM    3  C   UNL     1     -12.085  14.994  70.689  1.00  0.00    -0.375 A  
HETATM    4  C   UNL     1     -12.388  13.960  69.799  1.00  0.00    -0.330 A  
HETATM    5  C   UNL     1     -12.032  14.070  68.449  1.00  0.00    -0.378 A  
HETATM    6  C   UNL     1     -11.364  15.211  67.963  1.00  0.00    -0.346 A  
HETATM    7  C   UNL     1     -11.484  16.160  70.206  1.00  0.00    -0.319 A  
HETATM    8  C   UNL     1     -11.147  16.278  68.850  1.00  0.00    -0.345 A  
ENDROOT
BRANCH   6   9
HETATM    9  C   UNL     1     -10.905  15.238  66.499  1.00  0.00    -0.311 C  
BRANCH   9  10
HETATM   10  N   UNL     1      -9.883  16.281  66.329  1.00  0.00    -0.292 NA 
HETATM   11  N   UNL     1     -10.244  17.571  66.133  1.00  0.00    -0.436 NA 
HETATM   12  C   UNL     1      -9.057  18.158  65.965  1.00  0.00     0.019 A  
HETATM   13  C   UNL     1      -8.526  16.153  66.282  1.00  0.00    -0.322 A  
HETATM   14  N   UNL     1      -7.981  17.321  66.033  1.00  0.00    -0.513 NA 
ENDBRANCH   9  10
BRANCH   9  15
HETATM   15  C   UNL     1     -10.547  13.888  65.840  1.00  0.00    -0.293 A  
HETATM   16  C   UNL     1      -9.758  11.476  64.554  1.00  0.00    -0.236 A  
HETATM   17  C   UNL     1     -10.874  13.631  64.492  1.00  0.00    -0.416 A  
HETATM   18  C   UNL     1      -9.360  10.262  63.909  1.00  0.00    -0.291 C  
HETATM   19  C   UNL     1      -9.388  11.726  65.876  1.00  0.00    -0.214 A  
HETATM   20  C   UNL     1     -10.499  12.438  63.862  1.00  0.00    -0.469 A  
HETATM   21  C   UNL     1      -9.763  12.920  66.502  1.00  0.00    -0.257 A  
HETATM   22  N   UNL     1      -9.034   9.275  63.389  1.00  0.00    -0.133 NA 
ENDBRANCH   9  15
ENDBRANCH   6   9
TORSDOF 3
ENDMDL
MODEL       32
REMARK 921   NORMALIZED FREE ENERGY PREDICTED BY IDOCK:   -5.61 KCAL/MOL
REMARK 922        TOTAL FREE ENERGY PREDICTED BY IDOCK:   -7.29 KCAL/MOL
REMARK 923 INTER-LIGAND FREE ENERGY PREDICTED BY IDOCK:   -6.96 KCAL/MOL
REMARK 924 INTRA-LIGAND FREE ENERGY PREDICTED BY IDOCK:   -0.33 KCAL/MOL
REMARK 927      BINDING AFFINITY PREDICTED BY RF-SCORE:    0.00 PKD
ROOT
HETATM    1  N   UNL     1      -9.052  18.949  66.189  1.00  0.00    -0.470 NA 
HETATM    2  C   UNL     1      -9.337  17.829  66.082  1.00  0.00    -0.132 C  
HETATM    3  C   UNL     1      -9.701  16.445  65.974  1.00  0.00    -0.356 A  
HETATM    4  C   UNL     1     -10.848  16.071  65.269  1.00  0.00    -0.376 A  
HETATM    5  C   UNL     1     -11.247  14.729  65.239  1.00  0.00    -0.366 A  
HETATM    6  C   UNL     1     -10.511  13.736  65.915  1.00  0.00    -0.300 A  
HETATM    7  C   UNL     1      -8.924  15.459  66.592  1.00  0.00    -0.319 A  
HETATM    8  C   UNL     1      -9.312  14.113  66.543  1.00  0.00    -0.285 A  
ENDROOT
BRANCH   6   9
HETATM    9  C   UNL     1     -11.046  12.297  65.937  1.00  0.00    -0.322 C  
BRANCH   9  10
HETATM   10  N   UNL     1     -10.377  11.514  64.889  1.00  0.00    -0.273 NA 
HETATM   11  N   UNL     1      -9.169  10.947  65.120  1.00  0.00    -0.210 NA 
HETATM   12  C   UNL     1      -8.898  10.403  63.932  1.00  0.00    -0.210 A  
HETATM   13  C   UNL     1     -10.775  11.281  63.605  1.00  0.00    -0.367 A  
HETATM   14  N   UNL     1      -9.848  10.600  62.972  1.00  0.00    -0.318 NA 
ENDBRANCH   9  10
BRANCH   9  15
HETATM   15  C   UNL     1     -11.124  11.588  67.307  1.00  0.00    -0.351 A  
HETATM   16  C   UNL     1     -11.428  10.252  69.800  1.00  0.00    -0.320 A  
HETATM   17  C   UNL     1     -11.663  12.244  68.433  1.00  0.00    -0.390 A  
HETATM   18  C   UNL     1     -11.581   9.578  71.054  1.00  0.00    -0.344 C  
HETATM   19  C   UNL     1     -10.931   9.570  68.689  1.00  0.00    -0.113 A  
HETATM   20  C   UNL     1     -11.800  11.592  69.665  1.00  0.00    -0.419 A  
HETATM   21  C   UNL     1     -10.797  10.224  67.459  1.00  0.00    -0.355 A  
HETATM   22  N   UNL     1     -11.704   9.026  72.069  1.00  0.00    -0.361 NA 
ENDBRANCH   9  15
ENDBRANCH   6   9
TORSDOF 3
ENDMDL
MODEL       33
REMARK 921   NORMALIZED FREE ENERGY PREDICTED BY IDOCK:   -5.56 KCAL/MOL
REMARK 922        TOTAL FREE ENERGY PREDICTED BY IDOCK:   -7.22 KCAL/MOL
REMARK 923 INTER-LIGAND FREE ENERGY PREDICTED BY IDOCK:   -6.69 KCAL/MOL
REMARK 924 INTRA-LIGAND FREE ENERGY PREDICTED BY IDOCK:   -0.54 KCAL/MOL
REMARK 927      BINDING AFFINITY PREDICTED BY RF-SCORE:    0.00 PKD
ROOT
HETATM    1  N   UNL     1     -11.485  16.342  63.873  1.00  0.00    -1.031 NA 
HETATM    2  C   UNL     1     -11.373  15.643  64.792  1.00  0.00    -0.343 C  
HETATM    3  C   UNL     1     -11.229  14.758  65.914  1.00  0.00    -0.340 A  
HETATM    4  C   UNL     1     -10.032  14.721  66.632  1.00  0.00    -0.272 A  
HETATM    5  C   UNL     1      -9.864  13.797  67.670  1.00  0.00    -0.234 A  
HETATM    6  C   UNL     1     -10.887  12.888  68.007  1.00  0.00    -0.261 A  
HETATM    7  C   UNL     1     -12.277  13.909  66.283  1.00  0.00    -0.498 A  
HETATM    8  C   UNL     1     -12.116  12.997  67.336  1.00  0.00    -0.290 A  
ENDROOT
BRANCH   6   9
HETATM    9  C   UNL     1     -10.616  11.827  69.083  1.00  0.00    -0.069 C  
BRANCH   9  10
HETATM   10  N   UNL     1     -11.670  11.892  70.106  1.00  0.00    -0.295 NA 
HETATM   11  N   UNL     1     -12.054  13.083  70.622  1.00  0.00    -0.319 NA 
HETATM   12  C   UNL     1     -12.953  12.702  71.533  1.00  0.00    -0.282 A  
HETATM   13  C   UNL     1     -12.347  10.871  70.707  1.00  0.00    -0.390 A  
HETATM   14  N   UNL     1     -13.148  11.355  71.628  1.00  0.00    -0.450 NA 
ENDBRANCH   9  10
BRANCH   9  15
HETATM   15  C   UNL     1     -10.286  10.396  68.604  1.00  0.00    -0.196 A  
HETATM   16  C   UNL     1      -9.558   7.827  67.624  1.00  0.00    -0.177 A  
HETATM   17  C   UNL     1     -10.749   9.925  67.358  1.00  0.00    -0.323 A  
HETATM   18  C   UNL     1      -9.190   6.534  67.132  1.00  0.00    -0.128 C  
HETATM   19  C   UNL     1      -9.054   8.288  68.840  1.00  0.00    -0.147 A  
HETATM   20  C   UNL     1     -10.403   8.655  66.880  1.00  0.00    -0.355 A  
HETATM   21  C   UNL     1      -9.400   9.559  69.313  1.00  0.00    -0.171 A  
HETATM   22  N   UNL     1      -8.888   5.483  66.737  1.00  0.00    -0.113 NA 
ENDBRANCH   9  15
ENDBRANCH   6   9
TORSDOF 3
ENDMDL
MODEL       34
REMARK 921   NORMALIZED FREE ENERGY PREDICTED BY IDOCK:   -5.54 KCAL/MOL
REMARK 922        TOTAL FREE ENERGY PREDICTED BY IDOCK:   -7.20 KCAL/MOL
REMARK 923 INTER-LIGAND FREE ENERGY PREDICTED BY IDOCK:   -7.45 KCAL/MOL
REMARK 924 INTRA-LIGAND FREE ENERGY PREDICTED BY IDOCK:    0.25 KCAL/MOL
REMARK 927      BINDING AFFINITY PREDICTED BY RF-SCORE:    0.00 PKD
ROOT
HETATM    1  N   UNL     1     -10.164  12.668  63.547  1.00  0.00    -0.357 NA 
HETATM    2  C   UNL     1     -10.505  12.564  64.651  1.00  0.00    -0.319 C  
HETATM    3  C   UNL     1     -10.951  12.435  66.010  1.00  0.00    -0.324 A  
HETATM    4  C   UNL     1     -11.013  11.178  66.615  1.00  0.00    -0.289 A  
HETATM    5  C   UNL     1     -11.531  11.046  67.909  1.00  0.00    -0.358 A  
HETATM    6  C   UNL     1     -12.000  12.167  68.622  1.00  0.00    -0.290 A  
HETATM    7  C   UNL     1     -11.349  13.564  66.733  1.00  0.00    -0.351 A  
HETATM    8  C   UNL     1     -11.848  13.435  68.037  1.00  0.00    -0.392 A  
ENDROOT
BRANCH   6   9
HETATM    9  C   UNL     1     -12.652  11.957  69.996  1.00  0.00     0.094 C  
BRANCH   9  10
HETATM   10  N   UNL     1     -12.281  10.632  70.513  1.00  0.00    -0.328 NA 
HETATM   11  N   UNL     1     -13.235   9.763  70.924  1.00  0.00    -0.271 NA 
HETATM   12  C   UNL     1     -12.494   8.743  71.365  1.00  0.00    -0.303 A  
HETATM   13  C   UNL     1     -11.039  10.105  70.710  1.00  0.00    -0.298 A  
HETATM   14  N   UNL     1     -11.145   8.921  71.268  1.00  0.00    -0.272 NA 
ENDBRANCH   9  10
BRANCH   9  15
HETATM   15  C   UNL     1     -12.522  13.099  71.028  1.00  0.00    -0.406 A  
HETATM   16  C   UNL     1     -12.368  15.300  72.823  1.00  0.00    -0.496 A  
HETATM   17  C   UNL     1     -11.561  14.117  70.863  1.00  0.00    -0.072 A  
HETATM   18  C   UNL     1     -12.292  16.406  73.728  1.00  0.00    -0.480 C  
HETATM   19  C   UNL     1     -13.354  14.325  72.982  1.00  0.00    -0.437 A  
HETATM   20  C   UNL     1     -11.474  15.194  71.754  1.00  0.00    -0.452 A  
HETATM   21  C   UNL     1     -13.439  13.252  72.089  1.00  0.00    -0.655 A  
HETATM   22  N   UNL     1     -12.235  17.304  74.464  1.00  0.00    -0.394 NA 
ENDBRANCH   9  15
ENDBRANCH   6   9
TORSDOF 3
ENDMDL
MODEL       35
REMARK 921   NORMALIZED FREE ENERGY PREDICTED BY IDOCK:   -5.50 KCAL/MOL
REMARK 922        TOTAL FREE ENERGY PREDICTED BY IDOCK:   -7.16 KCAL/MOL
REMARK 923 INTER-LIGAND FREE ENERGY PREDICTED BY IDOCK:   -6.59 KCAL/MOL
REMARK 924 INTRA-LIGAND FREE ENERGY PREDICTED BY IDOCK:   -0.57 KCAL/MOL
REMARK 927      BINDING AFFINITY PREDICTED BY RF-SCORE:    0.00 PKD
ROOT
HETATM    1  N   UNL     1     -11.584  16.594  63.955  1.00  0.00    -1.119 NA 
HETATM    2  C   UNL     1     -11.131  15.664  64.481  1.00  0.00    -0.286 C  
HETATM    3  C   UNL     1     -10.589  14.514  65.150  1.00  0.00    -0.429 A  
HETATM    4  C   UNL     1     -10.894  13.228  64.698  1.00  0.00    -0.396 A  
HETATM    5  C   UNL     1     -10.435  12.109  65.403  1.00  0.00    -0.305 A  
HETATM    6  C   UNL     1      -9.668  12.253  66.577  1.00  0.00    -0.242 A  
HETATM    7  C   UNL     1      -9.772  14.671  66.274  1.00  0.00    -0.329 A  
HETATM    8  C   UNL     1      -9.295  13.550  66.968  1.00  0.00    -0.247 A  
ENDROOT
BRANCH   6   9
HETATM    9  C   UNL     1      -9.277  10.999  67.370  1.00  0.00    -0.151 C  
BRANCH   9  10
HETATM   10  N   UNL     1      -7.835  11.032  67.652  1.00  0.00    -0.111 NA 
HETATM   11  N   UNL     1      -6.938  10.733  66.683  1.00  0.00    -0.120 NA 
HETATM   12  C   UNL     1      -5.785  10.815  67.351  1.00  0.00    -0.045 A  
HETATM   13  C   UNL     1      -7.197  11.284  68.831  1.00  0.00    -0.112 A  
HETATM   14  N   UNL     1      -5.902  11.133  68.673  1.00  0.00    -0.043 NA 
ENDBRANCH   9  10
BRANCH   9  15
HETATM   15  C   UNL     1     -10.152  10.625  68.586  1.00  0.00    -0.194 A  
HETATM   16  C   UNL     1     -11.864   9.849  70.723  1.00  0.00    -0.415 A  
HETATM   17  C   UNL     1     -11.364  11.299  68.841  1.00  0.00    -0.340 A  
HETATM   18  C   UNL     1     -12.723   9.457  71.798  1.00  0.00    -0.390 C  
HETATM   19  C   UNL     1     -10.690   9.140  70.464  1.00  0.00    -0.289 A  
HETATM   20  C   UNL     1     -12.201  10.928  69.901  1.00  0.00    -0.408 A  
HETATM   21  C   UNL     1      -9.858   9.512  69.403  1.00  0.00    -0.194 A  
HETATM   22  N   UNL     1     -13.418   9.134  72.671  1.00  0.00    -0.424 NA 
ENDBRANCH   9  15
ENDBRANCH   6   9
TORSDOF 3
ENDMDL
MODEL       36
REMARK 921   NORMALIZED FREE ENERGY PREDICTED BY IDOCK:   -5.45 KCAL/MOL
REMARK 922        TOTAL FREE ENERGY PREDICTED BY IDOCK:   -7.10 KCAL/MOL
REMARK 923 INTER-LIGAND FREE ENERGY PREDICTED BY IDOCK:   -6.39 KCAL/MOL
REMARK 924 INTRA-LIGAND FREE ENERGY PREDICTED BY IDOCK:   -0.72 KCAL/MOL
REMARK 927      BINDING AFFINITY PREDICTED BY RF-SCORE:    0.00 PKD
ROOT
HETATM    1  N   UNL     1      -7.569   6.049  65.769  1.00  0.00    -0.081 NA 
HETATM    2  C   UNL     1      -8.264   6.117  66.695  1.00  0.00    -0.110 C  
HETATM    3  C   UNL     1      -9.123   6.226  67.841  1.00  0.00    -0.111 A  
HETATM    4  C   UNL     1     -10.508   6.123  67.694  1.00  0.00    -0.295 A  
HETATM    5  C   UNL     1     -11.347   6.317  68.798  1.00  0.00    -0.224 A  
HETATM    6  C   UNL     1     -10.819   6.623  70.069  1.00  0.00    -0.331 A  
HETATM    7  C   UNL     1      -8.583   6.462  69.109  1.00  0.00    -0.125 A  
HETATM    8  C   UNL     1      -9.422   6.635  70.219  1.00  0.00    -0.166 A  
ENDROOT
BRANCH   6   9
HETATM    9  C   UNL     1     -11.784   6.927  71.223  1.00  0.00    -0.328 C  
BRANCH   9  10
HETATM   10  N   UNL     1     -11.267   6.325  72.460  1.00  0.00    -0.269 NA 
HETATM   11  N   UNL     1     -10.570   7.072  73.349  1.00  0.00    -0.339 NA 
HETATM   12  C   UNL     1     -10.240   6.159  74.265  1.00  0.00    -0.312 A  
HETATM   13  C   UNL     1     -11.333   5.028  72.876  1.00  0.00    -0.253 A  
HETATM   14  N   UNL     1     -10.674   4.892  74.003  1.00  0.00    -0.296 NA 
ENDBRANCH   9  10
BRANCH   9  15
HETATM   15  C   UNL     1     -12.265   8.386  71.381  1.00  0.00    -0.335 A  
HETATM   16  C   UNL     1     -13.073  11.079  71.820  1.00  0.00    -0.554 A  
HETATM   17  C   UNL     1     -13.364   8.700  72.207  1.00  0.00    -0.412 A  
HETATM   18  C   UNL     1     -13.477  12.434  72.040  1.00  0.00    -0.360 C  
HETATM   19  C   UNL     1     -11.956  10.795  71.032  1.00  0.00    -0.409 A  
HETATM   20  C   UNL     1     -13.772  10.024  72.413  1.00  0.00    -0.113 A  
HETATM   21  C   UNL     1     -11.551   9.471  70.831  1.00  0.00    -0.398 A  
HETATM   22  N   UNL     1     -13.801  13.536  72.216  1.00  0.00    -0.567 NA 
ENDBRANCH   9  15
ENDBRANCH   6   9
TORSDOF 3
ENDMDL
MODEL       37
REMARK 921   NORMALIZED FREE ENERGY PREDICTED BY IDOCK:   -5.41 KCAL/MOL
REMARK 922        TOTAL FREE ENERGY PREDICTED BY IDOCK:   -7.05 KCAL/MOL
REMARK 923 INTER-LIGAND FREE ENERGY PREDICTED BY IDOCK:   -6.55 KCAL/MOL
REMARK 924 INTRA-LIGAND FREE ENERGY PREDICTED BY IDOCK:   -0.50 KCAL/MOL
REMARK 927      BINDING AFFINITY PREDICTED BY RF-SCORE:    0.00 PKD
ROOT
HETATM    1  N   UNL     1     -12.649  15.332  63.960  1.00  0.00    -0.668 NA 
HETATM    2  C   UNL     1     -12.210  14.294  64.239  1.00  0.00    -0.423 C  
HETATM    3  C   UNL     1     -11.644  13.021  64.584  1.00  0.00    -0.389 A  
HETATM    4  C   UNL     1     -11.670  12.574  65.907  1.00  0.00    -0.480 A  
HETATM    5  C   UNL     1     -11.040  11.373  66.255  1.00  0.00    -0.281 A  
HETATM    6  C   UNL     1     -10.368  10.597  65.289  1.00  0.00    -0.321 A  
HETATM    7  C   UNL     1     -11.040  12.227  63.604  1.00  0.00    -0.537 A  
HETATM    8  C   UNL     1     -10.427  11.014  63.948  1.00  0.00    -0.422 A  
ENDROOT
BRANCH   6   9
HETATM    9  C   UNL     1      -9.607   9.343  65.739  1.00  0.00    -0.271 C  
BRANCH   9  10
HETATM   10  N   UNL     1      -8.162   9.612  65.702  1.00  0.00    -0.117 NA 
HETATM   11  N   UNL     1      -7.293   8.647  65.318  1.00  0.00    -0.083 NA 
HETATM   12  C   UNL     1      -6.120   9.262  65.485  1.00  0.00    -0.063 A  
HETATM   13  C   UNL     1      -7.489  10.742  66.064  1.00  0.00    -0.125 A  
HETATM   14  N   UNL     1      -6.197  10.540  65.957  1.00  0.00    -0.112 NA 
ENDBRANCH   9  10
BRANCH   9  15
HETATM   15  C   UNL     1     -10.088   8.643  67.028  1.00  0.00    -0.342 A  
HETATM   16  C   UNL     1     -10.832   7.264  69.403  1.00  0.00    -0.206 A  
HETATM   17  C   UNL     1     -10.640   7.346  66.984  1.00  0.00    -0.414 A  
HETATM   18  C   UNL     1     -11.206   6.573  70.599  1.00  0.00    -0.329 C  
HETATM   19  C   UNL     1     -10.249   8.530  69.473  1.00  0.00    -0.206 A  
HETATM   20  C   UNL     1     -11.021   6.671  68.152  1.00  0.00    -0.323 A  
HETATM   21  C   UNL     1      -9.868   9.200  68.306  1.00  0.00    -0.181 A  
HETATM   22  N   UNL     1     -11.506   6.014  71.573  1.00  0.00    -0.257 NA 
ENDBRANCH   9  15
ENDBRANCH   6   9
TORSDOF 3
ENDMDL
MODEL       38
REMARK 921   NORMALIZED FREE ENERGY PREDICTED BY IDOCK:   -5.40 KCAL/MOL
REMARK 922        TOTAL FREE ENERGY PREDICTED BY IDOCK:   -7.04 KCAL/MOL
REMARK 923 INTER-LIGAND FREE ENERGY PREDICTED BY IDOCK:   -6.69 KCAL/MOL
REMARK 924 INTRA-LIGAND FREE ENERGY PREDICTED BY IDOCK:   -0.35 KCAL/MOL
REMARK 927      BINDING AFFINITY PREDICTED BY RF-SCORE:    0.00 PKD
ROOT
HETATM    1  N   UNL     1      -8.895   9.498  62.394  1.00  0.00    -0.231 NA 
HETATM    2  C   UNL     1      -9.380  10.063  63.284  1.00  0.00    -0.256 C  
HETATM    3  C   UNL     1      -9.963  10.780  64.383  1.00  0.00    -0.400 A  
HETATM    4  C   UNL     1     -11.082  11.591  64.180  1.00  0.00    -0.417 A  
HETATM    5  C   UNL     1     -11.595  12.356  65.234  1.00  0.00    -0.419 A  
HETATM    6  C   UNL     1     -10.997  12.330  66.510  1.00  0.00    -0.320 A  
HETATM    7  C   UNL     1      -9.402  10.692  65.661  1.00  0.00    -0.239 A  
HETATM    8  C   UNL     1      -9.929  11.442  66.722  1.00  0.00    -0.238 A  
ENDROOT
BRANCH   6   9
HETATM    9  C   UNL     1     -11.533  13.264  67.604  1.00  0.00    -0.321 C  
BRANCH   9  10
HETATM   10  N   UNL     1     -11.874  12.474  68.795  1.00  0.00    -0.314 NA 
HETATM   11  N   UNL     1     -12.200  11.165  68.680  1.00  0.00    -0.549 NA 
HETATM   12  C   UNL     1     -12.494  10.851  69.945  1.00  0.00    -0.224 A  
HETATM   13  C   UNL     1     -11.973  12.878  70.094  1.00  0.00    -0.301 A  
HETATM   14  N   UNL     1     -12.384  11.877  70.838  1.00  0.00    -0.356 NA 
ENDBRANCH   9  10
BRANCH   9  15
HETATM   15  C   UNL     1     -10.725  14.546  67.904  1.00  0.00    -0.245 A  
HETATM   16  C   UNL     1      -9.180  16.902  68.299  1.00  0.00    -0.241 A  
HETATM   17  C   UNL     1      -9.342  14.483  68.172  1.00  0.00    -0.197 A  
HETATM   18  C   UNL     1      -8.405  18.088  68.497  1.00  0.00    -0.304 C  
HETATM   19  C   UNL     1     -10.539  16.990  67.994  1.00  0.00    -0.373 A  
HETATM   20  C   UNL     1      -8.582  15.641  68.381  1.00  0.00    -0.173 A  
HETATM   21  C   UNL     1     -11.293  15.831  67.783  1.00  0.00    -0.240 A  
HETATM   22  N   UNL     1      -7.779  19.055  68.656  1.00  0.00    -0.333 NA 
ENDBRANCH   9  15
ENDBRANCH   6   9
TORSDOF 3
ENDMDL
MODEL       39
REMARK 921   NORMALIZED FREE ENERGY PREDICTED BY IDOCK:   -5.36 KCAL/MOL
REMARK 922        TOTAL FREE ENERGY PREDICTED BY IDOCK:   -6.99 KCAL/MOL
REMARK 923 INTER-LIGAND FREE ENERGY PREDICTED BY IDOCK:   -6.28 KCAL/MOL
REMARK 924 INTRA-LIGAND FREE ENERGY PREDICTED BY IDOCK:   -0.71 KCAL/MOL
REMARK 927      BINDING AFFINITY PREDICTED BY RF-SCORE:    0.00 PKD
ROOT
HETATM    1  N   UNL     1     -14.332   8.825  72.714  1.00  0.00    -0.520 NA 
HETATM    2  C   UNL     1     -13.518   9.334  72.062  1.00  0.00    -0.451 C  
HETATM    3  C   UNL     1     -12.516   9.947  71.237  1.00  0.00    -0.479 A  
HETATM    4  C   UNL     1     -12.806  11.116  70.530  1.00  0.00    -0.213 A  
HETATM    5  C   UNL     1     -11.856  11.663  69.658  1.00  0.00    -0.419 A  
HETATM    6  C   UNL     1     -10.601  11.051  69.472  1.00  0.00    -0.182 A  
HETATM    7  C   UNL     1     -11.250   9.367  71.114  1.00  0.00    -0.427 A  
HETATM    8  C   UNL     1     -10.291   9.927  70.257  1.00  0.00    -0.339 A  
ENDROOT
BRANCH   6   9
HETATM    9  C   UNL     1      -9.635  11.631  68.430  1.00  0.00    -0.195 C  
BRANCH   9  10
HETATM   10  N   UNL     1      -9.469  10.668  67.332  1.00  0.00    -0.153 NA 
HETATM   11  N   UNL     1      -8.300  10.595  66.653  1.00  0.00    -0.131 NA 
HETATM   12  C   UNL     1      -8.584   9.674  65.729  1.00  0.00    -0.136 A  
HETATM   13  C   UNL     1     -10.381   9.800  66.806  1.00  0.00    -0.218 A  
HETATM   14  N   UNL     1      -9.854   9.175  65.779  1.00  0.00    -0.258 NA 
ENDBRANCH   9  10
BRANCH   9  15
HETATM   15  C   UNL     1      -9.878  13.084  67.967  1.00  0.00    -0.224 A  
HETATM   16  C   UNL     1     -10.176  15.756  67.036  1.00  0.00    -0.280 A  
HETATM   17  C   UNL     1      -9.255  14.166  68.623  1.00  0.00    -0.146 A  
HETATM   18  C   UNL     1     -10.327  17.099  66.566  1.00  0.00    -0.306 C  
HETATM   19  C   UNL     1     -10.767  14.697  66.347  1.00  0.00    -0.309 A  
HETATM   20  C   UNL     1      -9.413  15.484  68.175  1.00  0.00    -0.198 A  
HETATM   21  C   UNL     1     -10.606  13.382  66.796  1.00  0.00    -0.277 A  
HETATM   22  N   UNL     1     -10.452  18.188  66.180  1.00  0.00    -0.421 NA 
ENDBRANCH   9  15
ENDBRANCH   6   9
TORSDOF 3
ENDMDL
MODEL       40
REMARK 921   NORMALIZED FREE ENERGY PREDICTED BY IDOCK:   -5.34 KCAL/MOL
REMARK 922        TOTAL FREE ENERGY PREDICTED BY IDOCK:   -6.97 KCAL/MOL
REMARK 923 INTER-LIGAND FREE ENERGY PREDICTED BY IDOCK:   -6.30 KCAL/MOL
REMARK 924 INTRA-LIGAND FREE ENERGY PREDICTED BY IDOCK:   -0.67 KCAL/MOL
REMARK 927      BINDING AFFINITY PREDICTED BY RF-SCORE:    0.00 PKD
ROOT
HETATM    1  N   UNL     1     -11.806   8.100  72.667  1.00  0.00    -0.381 NA 
HETATM    2  C   UNL     1     -11.232   8.714  71.866  1.00  0.00    -0.343 C  
HETATM    3  C   UNL     1     -10.523   9.453  70.861  1.00  0.00    -0.381 A  
HETATM    4  C   UNL     1     -11.212  10.310  69.999  1.00  0.00    -0.376 A  
HETATM    5  C   UNL     1     -10.530  10.962  68.964  1.00  0.00    -0.244 A  
HETATM    6  C   UNL     1      -9.148  10.768  68.767  1.00  0.00    -0.180 A  
HETATM    7  C   UNL     1      -9.139   9.305  70.718  1.00  0.00    -0.306 A  
HETATM    8  C   UNL     1      -8.453   9.974  69.695  1.00  0.00    -0.193 A  
ENDROOT
BRANCH   6   9
HETATM    9  C   UNL     1      -8.469  11.424  67.558  1.00  0.00    -0.137 C  
BRANCH   9  10
HETATM   10  N   UNL     1      -7.907  10.379  66.690  1.00  0.00    -0.116 NA 
HETATM   11  N   UNL     1      -8.577   9.220  66.488  1.00  0.00    -0.129 NA 
HETATM   12  C   UNL     1      -7.719   8.546  65.719  1.00  0.00    -0.098 A  
HETATM   13  C   UNL     1      -6.708  10.356  66.040  1.00  0.00    -0.124 A  
HETATM   14  N   UNL     1      -6.555   9.200  65.436  1.00  0.00    -0.068 NA 
ENDBRANCH   9  10
BRANCH   9  15
HETATM   15  C   UNL     1      -9.258  12.517  66.804  1.00  0.00    -0.217 A  
HETATM   16  C   UNL     1     -10.572  14.563  65.329  1.00  0.00    -0.400 A  
HETATM   17  C   UNL     1      -9.113  13.878  67.143  1.00  0.00    -0.245 A  
HETATM   18  C   UNL     1     -11.235  15.591  64.585  1.00  0.00    -0.371 C  
HETATM   19  C   UNL     1     -10.697  13.226  64.949  1.00  0.00    -0.365 A  
HETATM   20  C   UNL     1      -9.771  14.886  66.427  1.00  0.00    -0.306 A  
HETATM   21  C   UNL     1     -10.037  12.223  65.665  1.00  0.00    -0.275 A  
HETATM   22  N   UNL     1     -11.773  16.423  63.977  1.00  0.00    -1.045 NA 
ENDBRANCH   9  15
ENDBRANCH   6   9
TORSDOF 3
ENDMDL
MODEL       41
REMARK 921   NORMALIZED FREE ENERGY PREDICTED BY IDOCK:   -5.31 KCAL/MOL
REMARK 922        TOTAL FREE ENERGY PREDICTED BY IDOCK:   -6.94 KCAL/MOL
REMARK 923 INTER-LIGAND FREE ENERGY PREDICTED BY IDOCK:   -6.77 KCAL/MOL
REMARK 924 INTRA-LIGAND FREE ENERGY PREDICTED BY IDOCK:   -0.17 KCAL/MOL
REMARK 927      BINDING AFFINITY PREDICTED BY RF-SCORE:    0.00 PKD
ROOT
HETATM    1  N   UNL     1      -7.020  17.989  68.683  1.00  0.00    -0.251 NA 
HETATM    2  C   UNL     1      -7.714  17.059  68.689  1.00  0.00    -0.251 C  
HETATM    3  C   UNL     1      -8.587  15.919  68.678  1.00  0.00    -0.198 A  
HETATM    4  C   UNL     1      -8.242  14.775  67.956  1.00  0.00    -0.142 A  
HETATM    5  C   UNL     1      -9.134  13.699  67.877  1.00  0.00    -0.198 A  
HETATM    6  C   UNL     1     -10.391  13.747  68.513  1.00  0.00    -0.244 A  
HETATM    7  C   UNL     1      -9.802  15.953  69.370  1.00  0.00    -0.280 A  
HETATM    8  C   UNL     1     -10.687  14.867  69.308  1.00  0.00    -0.253 A  
ENDROOT
BRANCH   6   9
HETATM    9  C   UNL     1     -11.374  12.586  68.310  1.00  0.00    -0.286 C  
BRANCH   9  10
HETATM   10  N   UNL     1     -11.339  12.159  66.904  1.00  0.00    -0.323 NA 
HETATM   11  N   UNL     1     -12.223  12.662  66.011  1.00  0.00    -0.597 NA 
HETATM   12  C   UNL     1     -11.900  11.986  64.906  1.00  0.00    -0.238 A  
HETATM   13  C   UNL     1     -10.535  11.231  66.309  1.00  0.00    -0.258 A  
HETATM   14  N   UNL     1     -10.883  11.087  65.051  1.00  0.00    -0.185 NA 
ENDBRANCH   9  10
BRANCH   9  15
HETATM   15  C   UNL     1     -11.323  11.425  69.327  1.00  0.00    -0.355 A  
HETATM   16  C   UNL     1     -11.122   9.377  71.292  1.00  0.00    -0.446 A  
HETATM   17  C   UNL     1     -10.231  10.532  69.351  1.00  0.00    -0.245 A  
HETATM   18  C   UNL     1     -11.024   8.347  72.281  1.00  0.00    -0.361 C  
HETATM   19  C   UNL     1     -12.191  10.274  71.312  1.00  0.00    -0.496 A  
HETATM   20  C   UNL     1     -10.138   9.514  70.309  1.00  0.00    -0.314 A  
HETATM   21  C   UNL     1     -12.279  11.291  70.355  1.00  0.00    -0.453 A  
HETATM   22  N   UNL     1     -10.947   7.514  73.087  1.00  0.00    -0.392 NA 
ENDBRANCH   9  15
ENDBRANCH   6   9
TORSDOF 3
ENDMDL
MODEL       42
REMARK 921   NORMALIZED FREE ENERGY PREDICTED BY IDOCK:   -5.30 KCAL/MOL
REMARK 922        TOTAL FREE ENERGY PREDICTED BY IDOCK:   -6.93 KCAL/MOL
REMARK 923 INTER-LIGAND FREE ENERGY PREDICTED BY IDOCK:   -6.34 KCAL/MOL
REMARK 924 INTRA-LIGAND FREE ENERGY PREDICTED BY IDOCK:   -0.58 KCAL/MOL
REMARK 927      BINDING AFFINITY PREDICTED BY RF-SCORE:    0.00 PKD
ROOT
HETATM    1  N   UNL     1     -11.313  16.596  64.142  1.00  0.00    -1.075 NA 
HETATM    2  C   UNL     1     -11.162  15.666  64.819  1.00  0.00    -0.382 C  
HETATM    3  C   UNL     1     -10.956  14.510  65.645  1.00  0.00    -0.323 A  
HETATM    4  C   UNL     1     -10.346  14.637  66.895  1.00  0.00    -0.264 A  
HETATM    5  C   UNL     1     -10.067  13.498  67.659  1.00  0.00    -0.229 A  
HETATM    6  C   UNL     1     -10.387  12.209  67.188  1.00  0.00    -0.233 A  
HETATM    7  C   UNL     1     -11.341  13.242  65.195  1.00  0.00    -0.318 A  
HETATM    8  C   UNL     1     -11.081  12.103  65.970  1.00  0.00    -0.354 A  
ENDROOT
BRANCH   6   9
HETATM    9  C   UNL     1      -9.969  10.987  68.017  1.00  0.00    -0.173 C  
BRANCH   9  10
HETATM   10  N   UNL     1     -10.914  10.804  69.127  1.00  0.00    -0.225 NA 
HETATM   11  N   UNL     1     -12.169  11.307  69.050  1.00  0.00    -0.464 NA 
HETATM   12  C   UNL     1     -12.659  10.988  70.250  1.00  0.00    -0.243 A  
HETATM   13  C   UNL     1     -10.713  10.210  70.338  1.00  0.00    -0.266 A  
HETATM   14  N   UNL     1     -11.792  10.331  71.075  1.00  0.00    -0.363 NA 
ENDBRANCH   9  10
BRANCH   9  15
HETATM   15  C   UNL     1      -9.633   9.688  67.250  1.00  0.00    -0.203 A  
HETATM   16  C   UNL     1      -8.925   7.248  65.970  1.00  0.00    -0.149 A  
HETATM   17  C   UNL     1      -8.390   9.530  66.603  1.00  0.00    -0.116 A  
HETATM   18  C   UNL     1      -8.570   6.020  65.327  1.00  0.00    -0.099 C  
HETATM   19  C   UNL     1     -10.143   7.368  66.640  1.00  0.00    -0.253 A  
HETATM   20  C   UNL     1      -8.046   8.334  65.960  1.00  0.00    -0.110 A  
HETATM   21  C   UNL     1     -10.483   8.563  67.283  1.00  0.00    -0.366 A  
HETATM   22  N   UNL     1      -8.287   5.020  64.808  1.00  0.00    -0.134 NA 
ENDBRANCH   9  15
ENDBRANCH   6   9
TORSDOF 3
ENDMDL
MODEL       43
REMARK 921   NORMALIZED FREE ENERGY PREDICTED BY IDOCK:   -5.27 KCAL/MOL
REMARK 922        TOTAL FREE ENERGY PREDICTED BY IDOCK:   -6.89 KCAL/MOL
REMARK 923 INTER-LIGAND FREE ENERGY PREDICTED BY IDOCK:   -6.60 KCAL/MOL
REMARK 924 INTRA-LIGAND FREE ENERGY PREDICTED BY IDOCK:   -0.29 KCAL/MOL
REMARK 927      BINDING AFFINITY PREDICTED BY RF-SCORE:    0.00 PKD
ROOT
HETATM    1  N   UNL     1     -14.198  14.789  72.603  1.00  0.00    -0.417 NA 
HETATM    2  C   UNL     1     -13.740  13.835  72.125  1.00  0.00    -0.540 C  
HETATM    3  C   UNL     1     -13.153  12.659  71.549  1.00  0.00    -0.373 A  
HETATM    4  C   UNL     1     -13.475  11.395  72.047  1.00  0.00    -0.289 A  
HETATM    5  C   UNL     1     -12.835  10.257  71.541  1.00  0.00    -0.557 A  
HETATM    6  C   UNL     1     -11.858  10.360  70.531  1.00  0.00    -0.430 A  
HETATM    7  C   UNL     1     -12.235  12.769  70.499  1.00  0.00    -0.389 A  
HETATM    8  C   UNL     1     -11.610  11.628  69.978  1.00  0.00    -0.338 A  
ENDROOT
BRANCH   6   9
HETATM    9  C   UNL     1     -11.112   9.096  70.083  1.00  0.00    -0.222 C  
BRANCH   9  10
HETATM   10  N   UNL     1      -9.839   9.478  69.457  1.00  0.00    -0.182 NA 
HETATM   11  N   UNL     1      -8.767   9.800  70.220  1.00  0.00    -0.189 NA 
HETATM   12  C   UNL     1      -7.870  10.138  69.291  1.00  0.00    -0.134 A  
HETATM   13  C   UNL     1      -9.542   9.622  68.134  1.00  0.00    -0.143 A  
HETATM   14  N   UNL     1      -8.311  10.059  68.002  1.00  0.00    -0.116 NA 
ENDBRANCH   9  10
BRANCH   9  15
HETATM   15  C   UNL     1     -10.995   7.940  71.102  1.00  0.00    -0.262 A  
HETATM   16  C   UNL     1     -10.634   5.772  72.908  1.00  0.00    -0.264 A  
HETATM   17  C   UNL     1     -11.289   6.613  70.727  1.00  0.00    -0.389 A  
HETATM   18  C   UNL     1     -10.451   4.683  73.818  1.00  0.00    -0.238 C  
HETATM   19  C   UNL     1     -10.297   7.072  73.287  1.00  0.00    -0.343 A  
HETATM   20  C   UNL     1     -11.126   5.546  71.620  1.00  0.00    -0.192 A  
HETATM   21  C   UNL     1     -10.459   8.135  72.392  1.00  0.00    -0.389 A  
HETATM   22  N   UNL     1     -10.299   3.802  74.561  1.00  0.00    -0.202 NA 
ENDBRANCH   9  15
ENDBRANCH   6   9
TORSDOF 3
ENDMDL
MODEL       44
REMARK 921   NORMALIZED FREE ENERGY PREDICTED BY IDOCK:   -5.19 KCAL/MOL
REMARK 922        TOTAL FREE ENERGY PREDICTED BY IDOCK:   -6.79 KCAL/MOL
REMARK 923 INTER-LIGAND FREE ENERGY PREDICTED BY IDOCK:   -6.07 KCAL/MOL
REMARK 924 INTRA-LIGAND FREE ENERGY PREDICTED BY IDOCK:   -0.72 KCAL/MOL
REMARK 927      BINDING AFFINITY PREDICTED BY RF-SCORE:    0.00 PKD
ROOT
HETATM    1  N   UNL     1      -5.808  16.884  70.023  1.00  0.00    -0.224 NA 
HETATM    2  C   UNL     1      -6.677  16.199  69.672  1.00  0.00    -0.165 C  
HETATM    3  C   UNL     1      -7.753  15.365  69.217  1.00  0.00    -0.221 A  
HETATM    4  C   UNL     1      -7.488  14.097  68.693  1.00  0.00    -0.125 A  
HETATM    5  C   UNL     1      -8.530  13.322  68.170  1.00  0.00    -0.173 A  
HETATM    6  C   UNL     1      -9.856  13.800  68.155  1.00  0.00    -0.239 A  
HETATM    7  C   UNL     1      -9.074  15.823  69.270  1.00  0.00    -0.263 A  
HETATM    8  C   UNL     1     -10.120  15.037  68.765  1.00  0.00    -0.231 A  
ENDROOT
BRANCH   6   9
HETATM    9  C   UNL     1     -10.944  12.956  67.478  1.00  0.00    -0.255 C  
BRANCH   9  10
HETATM   10  N   UNL     1     -11.372  13.619  66.237  1.00  0.00    -0.306 NA 
HETATM   11  N   UNL     1     -10.468  14.236  65.441  1.00  0.00    -0.342 NA 
HETATM   12  C   UNL     1     -11.253  14.746  64.490  1.00  0.00    -0.274 A  
HETATM   13  C   UNL     1     -12.631  13.772  65.736  1.00  0.00    -0.480 A  
HETATM   14  N   UNL     1     -12.587  14.499  64.644  1.00  0.00    -0.619 NA 
ENDBRANCH   9  10
BRANCH   9  15
HETATM   15  C   UNL     1     -10.681  11.442  67.328  1.00  0.00    -0.283 A  
HETATM   16  C   UNL     1     -10.359   8.631  67.029  1.00  0.00    -0.368 A  
HETATM   17  C   UNL     1     -10.934  10.554  68.395  1.00  0.00    -0.310 A  
HETATM   18  C   UNL     1     -10.197   7.217  66.877  1.00  0.00    -0.260 C  
HETATM   19  C   UNL     1     -10.142   9.486  65.948  1.00  0.00    -0.284 A  
HETATM   20  C   UNL     1     -10.763   9.171  68.253  1.00  0.00    -0.173 A  
HETATM   21  C   UNL     1     -10.317  10.867  66.092  1.00  0.00    -0.305 A  
HETATM   22  N   UNL     1     -10.065   6.069  66.748  1.00  0.00    -0.173 NA 
ENDBRANCH   9  15
ENDBRANCH   6   9
TORSDOF 3
ENDMDL
MODEL       45
REMARK 921   NORMALIZED FREE ENERGY PREDICTED BY IDOCK:   -5.18 KCAL/MOL
REMARK 922        TOTAL FREE ENERGY PREDICTED BY IDOCK:   -6.78 KCAL/MOL
REMARK 923 INTER-LIGAND FREE ENERGY PREDICTED BY IDOCK:   -6.65 KCAL/MOL
REMARK 924 INTRA-LIGAND FREE ENERGY PREDICTED BY IDOCK:   -0.13 KCAL/MOL
REMARK 927      BINDING AFFINITY PREDICTED BY RF-SCORE:    0.00 PKD
ROOT
HETATM    1  N   UNL     1     -10.091  18.216  68.789  1.00  0.00    -0.386 NA 
HETATM    2  C   UNL     1     -10.262  17.085  68.594  1.00  0.00    -0.321 C  
HETATM    3  C   UNL     1     -10.477  15.682  68.377  1.00  0.00    -0.242 A  
HETATM    4  C   UNL     1     -11.747  15.208  68.042  1.00  0.00    -0.304 A  
HETATM    5  C   UNL     1     -11.971  13.831  67.917  1.00  0.00    -0.391 A  
HETATM    6  C   UNL     1     -10.933  12.902  68.129  1.00  0.00    -0.273 A  
HETATM    7  C   UNL     1      -9.422  14.776  68.523  1.00  0.00    -0.214 A  
HETATM    8  C   UNL     1      -9.642  13.399  68.377  1.00  0.00    -0.188 A  
ENDROOT
BRANCH   6   9
HETATM    9  C   UNL     1     -11.254  11.402  68.082  1.00  0.00    -0.278 C  
BRANCH   9  10
HETATM   10  N   UNL     1     -10.693  10.824  66.853  1.00  0.00    -0.262 NA 
HETATM   11  N   UNL     1     -10.696  11.530  65.697  1.00  0.00    -0.273 NA 
HETATM   12  C   UNL     1     -10.175  10.646  64.843  1.00  0.00    -0.324 A  
HETATM   13  C   UNL     1     -10.173   9.579  66.649  1.00  0.00    -0.240 A  
HETATM   14  N   UNL     1      -9.858   9.434  65.383  1.00  0.00    -0.206 NA 
ENDBRANCH   9  10
BRANCH   9  15
HETATM   15  C   UNL     1     -10.976  10.574  69.356  1.00  0.00    -0.297 A  
HETATM   16  C   UNL     1     -10.535   8.918  71.627  1.00  0.00    -0.408 A  
HETATM   17  C   UNL     1     -11.999  10.321  70.292  1.00  0.00    -0.348 A  
HETATM   18  C   UNL     1     -10.311   8.085  72.768  1.00  0.00    -0.339 C  
HETATM   19  C   UNL     1      -9.519   9.122  70.692  1.00  0.00    -0.316 A  
HETATM   20  C   UNL     1     -11.780   9.517  71.418  1.00  0.00    -0.465 A  
HETATM   21  C   UNL     1      -9.742   9.923  69.567  1.00  0.00    -0.238 A  
HETATM   22  N   UNL     1     -10.124   7.406  73.693  1.00  0.00    -0.334 NA 
ENDBRANCH   9  15
ENDBRANCH   6   9
TORSDOF 3
ENDMDL
MODEL       46
REMARK 921   NORMALIZED FREE ENERGY PREDICTED BY IDOCK:   -5.17 KCAL/MOL
REMARK 922        TOTAL FREE ENERGY PREDICTED BY IDOCK:   -6.77 KCAL/MOL
REMARK 923 INTER-LIGAND FREE ENERGY PREDICTED BY IDOCK:   -6.34 KCAL/MOL
REMARK 924 INTRA-LIGAND FREE ENERGY PREDICTED BY IDOCK:   -0.43 KCAL/MOL
REMARK 927      BINDING AFFINITY PREDICTED BY RF-SCORE:    0.00 PKD
ROOT
HETATM    1  N   UNL     1     -12.580  14.895  63.985  1.00  0.00    -0.786 NA 
HETATM    2  C   UNL     1     -11.999  13.940  64.296  1.00  0.00    -0.444 C  
HETATM    3  C   UNL     1     -11.302  12.746  64.682  1.00  0.00    -0.362 A  
HETATM    4  C   UNL     1     -10.680  11.950  63.717  1.00  0.00    -0.476 A  
HETATM    5  C   UNL     1     -10.077  10.742  64.086  1.00  0.00    -0.418 A  
HETATM    6  C   UNL     1     -10.086  10.303  65.425  1.00  0.00    -0.354 A  
HETATM    7  C   UNL     1     -11.258  12.356  66.025  1.00  0.00    -0.374 A  
HETATM    8  C   UNL     1     -10.635  11.156  66.397  1.00  0.00    -0.315 A  
ENDROOT
BRANCH   6   9
HETATM    9  C   UNL     1      -9.502   8.924  65.762  1.00  0.00    -0.202 C  
BRANCH   9  10
HETATM   10  N   UNL     1      -8.043   8.957  65.583  1.00  0.00    -0.108 NA 
HETATM   11  N   UNL     1      -7.395   7.905  65.030  1.00  0.00    -0.068 NA 
HETATM   12  C   UNL     1      -6.123   8.303  65.110  1.00  0.00    -0.045 A  
HETATM   13  C   UNL     1      -7.154   9.923  65.953  1.00  0.00    -0.107 A  
HETATM   14  N   UNL     1      -5.932   9.526  65.684  1.00  0.00    -0.058 NA 
ENDBRANCH   9  10
BRANCH   9  15
HETATM   15  C   UNL     1      -9.964   8.257  67.076  1.00  0.00    -0.325 A  
HETATM   16  C   UNL     1     -10.946   7.131  69.496  1.00  0.00    -0.214 A  
HETATM   17  C   UNL     1      -9.742   8.881  68.321  1.00  0.00    -0.174 A  
HETATM   18  C   UNL     1     -11.442   6.563  70.713  1.00  0.00    -0.360 C  
HETATM   19  C   UNL     1     -11.213   6.518  68.272  1.00  0.00    -0.259 A  
HETATM   20  C   UNL     1     -10.213   8.320  69.515  1.00  0.00    -0.210 A  
HETATM   21  C   UNL     1     -10.744   7.081  67.081  1.00  0.00    -0.433 A  
HETATM   22  N   UNL     1     -11.847   6.098  71.698  1.00  0.00    -0.249 NA 
ENDBRANCH   9  15
ENDBRANCH   6   9
TORSDOF 3
ENDMDL
MODEL       47
REMARK 921   NORMALIZED FREE ENERGY PREDICTED BY IDOCK:   -5.17 KCAL/MOL
REMARK 922        TOTAL FREE ENERGY PREDICTED BY IDOCK:   -6.77 KCAL/MOL
REMARK 923 INTER-LIGAND FREE ENERGY PREDICTED BY IDOCK:   -6.22 KCAL/MOL
REMARK 924 INTRA-LIGAND FREE ENERGY PREDICTED BY IDOCK:   -0.55 KCAL/MOL
REMARK 927      BINDING AFFINITY PREDICTED BY RF-SCORE:    0.00 PKD
ROOT
HETATM    1  N   UNL     1      -6.714   6.496  68.140  1.00  0.00    -0.066 NA 
HETATM    2  C   UNL     1      -7.599   7.236  68.267  1.00  0.00    -0.118 C  
HETATM    3  C   UNL     1      -8.680   8.170  68.416  1.00  0.00    -0.134 A  
HETATM    4  C   UNL     1      -9.649   8.290  67.417  1.00  0.00    -0.205 A  
HETATM    5  C   UNL     1     -10.651   9.262  67.525  1.00  0.00    -0.329 A  
HETATM    6  C   UNL     1     -10.702  10.135  68.630  1.00  0.00    -0.253 A  
HETATM    7  C   UNL     1      -8.758   8.984  69.550  1.00  0.00    -0.144 A  
HETATM    8  C   UNL     1      -9.774   9.943  69.668  1.00  0.00    -0.252 A  
ENDROOT
BRANCH   6   9
HETATM    9  C   UNL     1     -11.757  11.250  68.651  1.00  0.00    -0.324 C  
BRANCH   9  10
HETATM   10  N   UNL     1     -12.357  11.325  69.991  1.00  0.00    -0.280 NA 
HETATM   11  N   UNL     1     -12.380  12.498  70.668  1.00  0.00    -0.337 NA 
HETATM   12  C   UNL     1     -12.933  12.127  71.825  1.00  0.00    -0.332 A  
HETATM   13  C   UNL     1     -12.894  10.327  70.748  1.00  0.00    -0.344 A  
HETATM   14  N   UNL     1     -13.246  10.802  71.921  1.00  0.00    -0.466 NA 
ENDBRANCH   9  10
BRANCH   9  15
HETATM   15  C   UNL     1     -11.358  12.619  68.057  1.00  0.00    -0.337 A  
HETATM   16  C   UNL     1     -10.537  15.058  66.846  1.00  0.00    -0.297 A  
HETATM   17  C   UNL     1     -10.089  13.177  68.313  1.00  0.00    -0.247 A  
HETATM   18  C   UNL     1     -10.126  16.286  66.236  1.00  0.00    -0.324 C  
HETATM   19  C   UNL     1     -11.782  14.504  66.546  1.00  0.00    -0.380 A  
HETATM   20  C   UNL     1      -9.688  14.385  67.729  1.00  0.00    -0.221 A  
HETATM   21  C   UNL     1     -12.177  13.295  67.129  1.00  0.00    -0.281 A  
HETATM   22  N   UNL     1      -9.796  17.282  65.736  1.00  0.00    -0.551 NA 
ENDBRANCH   9  15
ENDBRANCH   6   9
TORSDOF 3
ENDMDL
MODEL       48
REMARK 921   NORMALIZED FREE ENERGY PREDICTED BY IDOCK:   -5.17 KCAL/MOL
REMARK 922        TOTAL FREE ENERGY PREDICTED BY IDOCK:   -6.76 KCAL/MOL
REMARK 923 INTER-LIGAND FREE ENERGY PREDICTED BY IDOCK:   -6.21 KCAL/MOL
REMARK 924 INTRA-LIGAND FREE ENERGY PREDICTED BY IDOCK:   -0.55 KCAL/MOL
REMARK 927      BINDING AFFINITY PREDICTED BY RF-SCORE:    0.00 PKD
ROOT
HETATM    1  N   UNL     1      -7.075   9.919  64.180  1.00  0.00    -0.125 NA 
HETATM    2  C   UNL     1      -7.691   9.594  65.108  1.00  0.00    -0.117 C  
HETATM    3  C   UNL     1      -8.457   9.217  66.262  1.00  0.00    -0.133 A  
HETATM    4  C   UNL     1      -9.814   8.909  66.137  1.00  0.00    -0.326 A  
HETATM    5  C   UNL     1     -10.577   8.626  67.276  1.00  0.00    -0.308 A  
HETATM    6  C   UNL     1     -10.002   8.651  68.563  1.00  0.00    -0.201 A  
HETATM    7  C   UNL     1      -7.859   9.178  67.526  1.00  0.00    -0.100 A  
HETATM    8  C   UNL     1      -8.619   8.874  68.664  1.00  0.00    -0.133 A  
ENDROOT
BRANCH   6   9
HETATM    9  C   UNL     1     -10.903   8.436  69.786  1.00  0.00    -0.183 C  
BRANCH   9  10
HETATM   10  N   UNL     1     -10.178   7.647  70.792  1.00  0.00    -0.200 NA 
HETATM   11  N   UNL     1     -10.137   6.296  70.707  1.00  0.00    -0.186 NA 
HETATM   12  C   UNL     1      -9.458   5.980  71.813  1.00  0.00    -0.151 A  
HETATM   13  C   UNL     1      -9.527   8.074  71.912  1.00  0.00    -0.182 A  
HETATM   14  N   UNL     1      -9.082   7.039  72.586  1.00  0.00    -0.134 NA 
ENDBRANCH   9  10
BRANCH   9  15
HETATM   15  C   UNL     1     -11.635   9.670  70.357  1.00  0.00    -0.299 A  
HETATM   16  C   UNL     1     -12.863  11.956  71.524  1.00  0.00    -0.421 A  
HETATM   17  C   UNL     1     -12.440   9.566  71.510  1.00  0.00    -0.463 A  
HETATM   18  C   UNL     1     -13.480  13.108  72.109  1.00  0.00    -0.560 C  
HETATM   19  C   UNL     1     -12.037  12.090  70.406  1.00  0.00    -0.407 A  
HETATM   20  C   UNL     1     -13.057  10.688  72.078  1.00  0.00    -0.501 A  
HETATM   21  C   UNL     1     -11.421  10.967  69.844  1.00  0.00    -0.400 A  
HETATM   22  N   UNL     1     -13.977  14.046  72.582  1.00  0.00    -0.682 NA 
ENDBRANCH   9  15
ENDBRANCH   6   9
TORSDOF 3
ENDMDL
MODEL       49
REMARK 921   NORMALIZED FREE ENERGY PREDICTED BY IDOCK:   -5.13 KCAL/MOL
REMARK 922        TOTAL FREE ENERGY PREDICTED BY IDOCK:   -6.72 KCAL/MOL
REMARK 923 INTER-LIGAND FREE ENERGY PREDICTED BY IDOCK:   -6.17 KCAL/MOL
REMARK 924 INTRA-LIGAND FREE ENERGY PREDICTED BY IDOCK:   -0.55 KCAL/MOL
REMARK 927      BINDING AFFINITY PREDICTED BY RF-SCORE:    0.00 PKD
ROOT
HETATM    1  N   UNL     1     -12.653  15.494  63.892  1.00  0.00    -0.592 NA 
HETATM    2  C   UNL     1     -12.144  14.653  64.508  1.00  0.00    -0.475 C  
HETATM    3  C   UNL     1     -11.532  13.612  65.285  1.00  0.00    -0.320 A  
HETATM    4  C   UNL     1     -11.666  12.276  64.901  1.00  0.00    -0.409 A  
HETATM    5  C   UNL     1     -11.143  11.258  65.708  1.00  0.00    -0.153 A  
HETATM    6  C   UNL     1     -10.481  11.555  66.917  1.00  0.00    -0.270 A  
HETATM    7  C   UNL     1     -10.819  13.924  66.446  1.00  0.00    -0.291 A  
HETATM    8  C   UNL     1     -10.277  12.906  67.244  1.00  0.00    -0.234 A  
ENDROOT
BRANCH   6   9
HETATM    9  C   UNL     1     -10.018  10.401  67.815  1.00  0.00    -0.175 C  
BRANCH   9  10
HETATM   10  N   UNL     1     -10.819  10.391  69.047  1.00  0.00    -0.220 NA 
HETATM   11  N   UNL     1     -12.040  10.975  69.077  1.00  0.00    -0.474 NA 
HETATM   12  C   UNL     1     -12.387  10.806  70.355  1.00  0.00    -0.353 A  
HETATM   13  C   UNL     1     -10.496   9.899  70.278  1.00  0.00    -0.291 A  
HETATM   14  N   UNL     1     -11.461  10.167  71.128  1.00  0.00    -0.350 NA 
ENDBRANCH   9  10
BRANCH   9  15
HETATM   15  C   UNL     1      -9.848   9.012  67.160  1.00  0.00    -0.262 A  
HETATM   16  C   UNL     1      -9.436   6.412  66.081  1.00  0.00    -0.079 A  
HETATM   17  C   UNL     1      -8.684   8.694  66.430  1.00  0.00    -0.150 A  
HETATM   18  C   UNL     1      -9.231   5.104  65.539  1.00  0.00    -0.136 C  
HETATM   19  C   UNL     1     -10.576   6.693  66.835  1.00  0.00    -0.376 A  
HETATM   20  C   UNL     1      -8.486   7.419  65.886  1.00  0.00    -0.155 A  
HETATM   21  C   UNL     1     -10.769   7.967  67.379  1.00  0.00    -0.278 A  
HETATM   22  N   UNL     1      -9.068   4.039  65.102  1.00  0.00    -0.131 NA 
ENDBRANCH   9  15
ENDBRANCH   6   9
TORSDOF 3
ENDMDL
MODEL       50
REMARK 921   NORMALIZED FREE ENERGY PREDICTED BY IDOCK:   -5.08 KCAL/MOL
REMARK 922        TOTAL FREE ENERGY PREDICTED BY IDOCK:   -6.66 KCAL/MOL
REMARK 923 INTER-LIGAND FREE ENERGY PREDICTED BY IDOCK:   -6.08 KCAL/MOL
REMARK 924 INTRA-LIGAND FREE ENERGY PREDICTED BY IDOCK:   -0.59 KCAL/MOL
REMARK 927      BINDING AFFINITY PREDICTED BY RF-SCORE:    0.00 PKD
ROOT
HETATM    1  N   UNL     1     -13.067  14.215  64.957  1.00  0.00    -0.681 NA 
HETATM    2  C   UNL     1     -12.413  13.330  65.325  1.00  0.00    -0.489 C  
HETATM    3  C   UNL     1     -11.624  12.220  65.780  1.00  0.00    -0.443 A  
HETATM    4  C   UNL     1     -10.859  11.481  64.874  1.00  0.00    -0.345 A  
HETATM    5  C   UNL     1     -10.161  10.347  65.306  1.00  0.00    -0.370 A  
HETATM    6  C   UNL     1     -10.215   9.927  66.650  1.00  0.00    -0.293 A  
HETATM    7  C   UNL     1     -11.632  11.853  67.130  1.00  0.00    -0.363 A  
HETATM    8  C   UNL     1     -10.915  10.730  67.566  1.00  0.00    -0.372 A  
ENDROOT
BRANCH   6   9
HETATM    9  C   UNL     1      -9.516   8.621  67.051  1.00  0.00    -0.171 C  
BRANCH   9  10
HETATM   10  N   UNL     1      -8.060   8.799  66.952  1.00  0.00    -0.101 NA 
HETATM   11  N   UNL     1      -7.474   9.930  67.409  1.00  0.00    -0.091 NA 
HETATM   12  C   UNL     1      -6.197   9.721  67.079  1.00  0.00    -0.064 A  
HETATM   13  C   UNL     1      -7.131   7.974  66.390  1.00  0.00    -0.074 A  
HETATM   14  N   UNL     1      -5.949   8.542  66.437  1.00  0.00    -0.048 NA 
ENDBRANCH   9  10
BRANCH   9  15
HETATM   15  C   UNL     1      -9.983   7.935  68.354  1.00  0.00    -0.198 A  
HETATM   16  C   UNL     1     -10.717   6.563  70.736  1.00  0.00    -0.290 A  
HETATM   17  C   UNL     1     -10.728   6.737  68.314  1.00  0.00    -0.290 A  
HETATM   18  C   UNL     1     -11.086   5.874  71.935  1.00  0.00    -0.268 C  
HETATM   19  C   UNL     1      -9.945   7.724  70.798  1.00  0.00    -0.184 A  
HETATM   20  C   UNL     1     -11.102   6.068  69.487  1.00  0.00    -0.468 A  
HETATM   21  C   UNL     1      -9.571   8.388  69.625  1.00  0.00    -0.163 A  
HETATM   22  N   UNL     1     -11.381   5.318  72.912  1.00  0.00    -0.310 NA 
ENDBRANCH   9  15
ENDBRANCH   6   9
TORSDOF 3
ENDMDL
MODEL       51
REMARK 921   NORMALIZED FREE ENERGY PREDICTED BY IDOCK:   -5.07 KCAL/MOL
REMARK 922        TOTAL FREE ENERGY PREDICTED BY IDOCK:   -6.65 KCAL/MOL
REMARK 923 INTER-LIGAND FREE ENERGY PREDICTED BY IDOCK:   -6.09 KCAL/MOL
REMARK 924 INTRA-LIGAND FREE ENERGY PREDICTED BY IDOCK:   -0.56 KCAL/MOL
REMARK 927      BINDING AFFINITY PREDICTED BY RF-SCORE:    0.00 PKD
ROOT
HETATM    1  N   UNL     1     -13.958  13.887  72.642  1.00  0.00    -0.713 NA 
HETATM    2  C   UNL     1     -13.478  12.976  72.106  1.00  0.00    -0.542 C  
HETATM    3  C   UNL     1     -12.862  11.853  71.456  1.00  0.00    -0.421 A  
HETATM    4  C   UNL     1     -13.050  10.562  71.953  1.00  0.00    -0.567 A  
HETATM    5  C   UNL     1     -12.379   9.480  71.369  1.00  0.00    -0.451 A  
HETATM    6  C   UNL     1     -11.503   9.669  70.281  1.00  0.00    -0.288 A  
HETATM    7  C   UNL     1     -12.050  12.045  70.334  1.00  0.00    -0.407 A  
HETATM    8  C   UNL     1     -11.394  10.959  69.736  1.00  0.00    -0.374 A  
ENDROOT
BRANCH   6   9
HETATM    9  C   UNL     1     -10.713   8.468  69.743  1.00  0.00    -0.213 C  
BRANCH   9  10
HETATM   10  N   UNL     1     -10.160   8.801  68.423  1.00  0.00    -0.184 NA 
HETATM   11  N   UNL     1      -8.889   9.251  68.304  1.00  0.00    -0.129 NA 
HETATM   12  C   UNL     1      -8.811   9.490  66.993  1.00  0.00    -0.127 A  
HETATM   13  C   UNL     1     -10.774   8.780  67.205  1.00  0.00    -0.134 A  
HETATM   14  N   UNL     1      -9.950   9.230  66.287  1.00  0.00    -0.287 NA 
ENDBRANCH   9  10
BRANCH   9  15
HETATM   15  C   UNL     1      -9.706   7.793  70.700  1.00  0.00    -0.177 A  
HETATM   16  C   UNL     1      -7.976   6.528  72.571  1.00  0.00    -0.104 A  
HETATM   17  C   UNL     1      -9.165   8.497  71.796  1.00  0.00    -0.316 A  
HETATM   18  C   UNL     1      -7.106   5.889  73.511  1.00  0.00    -0.085 C  
HETATM   19  C   UNL     1      -8.532   5.800  71.518  1.00  0.00    -0.128 A  
HETATM   20  C   UNL     1      -8.302   7.880  72.710  1.00  0.00    -0.203 A  
HETATM   21  C   UNL     1      -9.396   6.420  70.608  1.00  0.00    -0.169 A  
HETATM   22  N   UNL     1      -6.401   5.366  74.272  1.00  0.00    -0.067 NA 
ENDBRANCH   9  15
ENDBRANCH   6   9
TORSDOF 3
ENDMDL
MODEL       52
REMARK 921   NORMALIZED FREE ENERGY PREDICTED BY IDOCK:   -4.97 KCAL/MOL
REMARK 922        TOTAL FREE ENERGY PREDICTED BY IDOCK:   -6.53 KCAL/MOL
REMARK 923 INTER-LIGAND FREE ENERGY PREDICTED BY IDOCK:   -6.17 KCAL/MOL
REMARK 924 INTRA-LIGAND FREE ENERGY PREDICTED BY IDOCK:   -0.36 KCAL/MOL
REMARK 927      BINDING AFFINITY PREDICTED BY RF-SCORE:    0.00 PKD
ROOT
HETATM    1  N   UNL     1      -9.567   8.440  67.815  1.00  0.00    -0.152 NA 
HETATM    2  C   UNL     1      -9.870   9.560  67.842  1.00  0.00    -0.156 C  
HETATM    3  C   UNL     1     -10.255  10.942  67.897  1.00  0.00    -0.205 A  
HETATM    4  C   UNL     1      -9.319  11.920  68.241  1.00  0.00    -0.193 A  
HETATM    5  C   UNL     1      -9.718  13.255  68.379  1.00  0.00    -0.198 A  
HETATM    6  C   UNL     1     -11.060  13.638  68.182  1.00  0.00    -0.281 A  
HETATM    7  C   UNL     1     -11.576  11.319  67.632  1.00  0.00    -0.290 A  
HETATM    8  C   UNL     1     -11.970  12.659  67.750  1.00  0.00    -0.303 A  
ENDROOT
BRANCH   6   9
HETATM    9  C   UNL     1     -11.466  15.094  68.446  1.00  0.00    -0.332 C  
BRANCH   9  10
HETATM   10  N   UNL     1     -11.813  15.253  69.866  1.00  0.00    -0.313 NA 
HETATM   11  N   UNL     1     -13.106  15.386  70.246  1.00  0.00    -0.187 NA 
HETATM   12  C   UNL     1     -12.980  15.565  71.563  1.00  0.00    -0.472 A  
HETATM   13  C   UNL     1     -10.987  15.345  70.947  1.00  0.00    -0.286 A  
HETATM   14  N   UNL     1     -11.697  15.563  72.029  1.00  0.00    -0.415 NA 
ENDBRANCH   9  10
BRANCH   9  15
HETATM   15  C   UNL     1     -10.543  16.202  67.893  1.00  0.00    -0.309 A  
HETATM   16  C   UNL     1      -8.962  18.281  66.764  1.00  0.00    -0.289 A  
HETATM   17  C   UNL     1      -9.817  16.010  66.699  1.00  0.00    -0.273 A  
HETATM   18  C   UNL     1      -8.168  19.329  66.198  1.00  0.00    -0.282 C  
HETATM   19  C   UNL     1      -9.704  18.507  67.925  1.00  0.00    -0.339 A  
HETATM   20  C   UNL     1      -9.027  17.028  66.149  1.00  0.00    -0.243 A  
HETATM   21  C   UNL     1     -10.494  17.489  68.469  1.00  0.00    -0.361 A  
HETATM   22  N   UNL     1      -7.526  20.183  65.742  1.00  0.00    -0.294 NA 
ENDBRANCH   9  15
ENDBRANCH   6   9
TORSDOF 3
ENDMDL
MODEL       53
REMARK 921   NORMALIZED FREE ENERGY PREDICTED BY IDOCK:   -4.89 KCAL/MOL
REMARK 922        TOTAL FREE ENERGY PREDICTED BY IDOCK:   -6.44 KCAL/MOL
REMARK 923 INTER-LIGAND FREE ENERGY PREDICTED BY IDOCK:   -5.95 KCAL/MOL
REMARK 924 INTRA-LIGAND FREE ENERGY PREDICTED BY IDOCK:   -0.49 KCAL/MOL
REMARK 927      BINDING AFFINITY PREDICTED BY RF-SCORE:    0.00 PKD
ROOT
HETATM    1  N   UNL     1      -7.113   5.679  64.419  1.00  0.00    -0.051 NA 
HETATM    2  C   UNL     1      -7.838   6.426  64.933  1.00  0.00    -0.113 C  
HETATM    3  C   UNL     1      -8.717   7.352  65.588  1.00  0.00    -0.099 A  
HETATM    4  C   UNL     1      -8.693   8.707  65.249  1.00  0.00    -0.200 A  
HETATM    5  C   UNL     1      -9.489   9.621  65.950  1.00  0.00    -0.296 A  
HETATM    6  C   UNL     1     -10.321   9.200  67.007  1.00  0.00    -0.333 A  
HETATM    7  C   UNL     1      -9.590   6.911  66.588  1.00  0.00    -0.218 A  
HETATM    8  C   UNL     1     -10.403   7.823  67.276  1.00  0.00    -0.371 A  
ENDROOT
BRANCH   6   9
HETATM    9  C   UNL     1     -11.096  10.253  67.810  1.00  0.00    -0.269 C  
BRANCH   9  10
HETATM   10  N   UNL     1     -10.920   9.995  69.247  1.00  0.00    -0.229 NA 
HETATM   11  N   UNL     1      -9.702   9.670  69.743  1.00  0.00    -0.209 NA 
HETATM   12  C   UNL     1      -9.986   9.461  71.030  1.00  0.00    -0.264 A  
HETATM   13  C   UNL     1     -11.858   9.977  70.237  1.00  0.00    -0.216 A  
HETATM   14  N   UNL     1     -11.298   9.621  71.370  1.00  0.00    -0.379 NA 
ENDBRANCH   9  10
BRANCH   9  15
HETATM   15  C   UNL     1     -10.913  11.732  67.406  1.00  0.00    -0.314 A  
HETATM   16  C   UNL     1     -10.460  14.408  66.552  1.00  0.00    -0.289 A  
HETATM   17  C   UNL     1      -9.830  12.490  67.900  1.00  0.00    -0.207 A  
HETATM   18  C   UNL     1     -10.234  15.754  66.121  1.00  0.00    -0.315 C  
HETATM   19  C   UNL     1     -11.513  13.664  66.018  1.00  0.00    -0.340 A  
HETATM   20  C   UNL     1      -9.614  13.812  67.491  1.00  0.00    -0.219 A  
HETATM   21  C   UNL     1     -11.725  12.343  66.427  1.00  0.00    -0.453 A  
HETATM   22  N   UNL     1     -10.053  16.846  65.766  1.00  0.00    -0.558 NA 
ENDBRANCH   9  15
ENDBRANCH   6   9
TORSDOF 3
ENDMDL
MODEL       54
REMARK 921   NORMALIZED FREE ENERGY PREDICTED BY IDOCK:   -4.87 KCAL/MOL
REMARK 922        TOTAL FREE ENERGY PREDICTED BY IDOCK:   -6.41 KCAL/MOL
REMARK 923 INTER-LIGAND FREE ENERGY PREDICTED BY IDOCK:   -5.84 KCAL/MOL
REMARK 924 INTRA-LIGAND FREE ENERGY PREDICTED BY IDOCK:   -0.58 KCAL/MOL
REMARK 927      BINDING AFFINITY PREDICTED BY RF-SCORE:    0.00 PKD
ROOT
HETATM    1  N   UNL     1      -5.589   9.076  63.650  1.00  0.00    -0.070 NA 
HETATM    2  C   UNL     1      -6.351   9.552  64.385  1.00  0.00    -0.093 C  
HETATM    3  C   UNL     1      -7.287  10.163  65.285  1.00  0.00    -0.141 A  
HETATM    4  C   UNL     1      -8.650  10.181  64.978  1.00  0.00    -0.178 A  
HETATM    5  C   UNL     1      -9.549  10.854  65.814  1.00  0.00    -0.259 A  
HETATM    6  C   UNL     1      -9.104  11.524  66.971  1.00  0.00    -0.175 A  
HETATM    7  C   UNL     1      -6.842  10.766  66.466  1.00  0.00    -0.130 A  
HETATM    8  C   UNL     1      -7.746  11.421  67.315  1.00  0.00    -0.145 A  
ENDROOT
BRANCH   6   9
HETATM    9  C   UNL     1     -10.113  12.332  67.799  1.00  0.00    -0.201 C  
BRANCH   9  10
HETATM   10  N   UNL     1     -10.922  13.167  66.899  1.00  0.00    -0.272 NA 
HETATM   11  N   UNL     1     -10.443  14.347  66.441  1.00  0.00    -0.289 NA 
HETATM   12  C   UNL     1     -11.481  14.801  65.734  1.00  0.00    -0.322 A  
HETATM   13  C   UNL     1     -12.194  12.963  66.450  1.00  0.00    -0.231 A  
HETATM   14  N   UNL     1     -12.578  13.991  65.730  1.00  0.00    -0.503 NA 
ENDBRANCH   9  10
BRANCH   9  15
HETATM   15  C   UNL     1     -10.933  11.571  68.863  1.00  0.00    -0.279 A  
HETATM   16  C   UNL     1     -12.310  10.179  70.927  1.00  0.00    -0.461 A  
HETATM   17  C   UNL     1     -10.722  10.195  69.091  1.00  0.00    -0.254 A  
HETATM   18  C   UNL     1     -13.004   9.480  71.966  1.00  0.00    -0.426 C  
HETATM   19  C   UNL     1     -12.504  11.549  70.747  1.00  0.00    -0.444 A  
HETATM   20  C   UNL     1     -11.411   9.505  70.097  1.00  0.00    -0.241 A  
HETATM   21  C   UNL     1     -11.813  12.235  69.743  1.00  0.00    -0.388 A  
HETATM   22  N   UNL     1     -13.569   8.918  72.812  1.00  0.00    -0.336 NA 
ENDBRANCH   9  15
ENDBRANCH   6   9
TORSDOF 3
ENDMDL
MODEL       55
REMARK 921   NORMALIZED FREE ENERGY PREDICTED BY IDOCK:   -4.84 KCAL/MOL
REMARK 922        TOTAL FREE ENERGY PREDICTED BY IDOCK:   -6.38 KCAL/MOL
REMARK 923 INTER-LIGAND FREE ENERGY PREDICTED BY IDOCK:   -6.13 KCAL/MOL
REMARK 924 INTRA-LIGAND FREE ENERGY PREDICTED BY IDOCK:   -0.25 KCAL/MOL
REMARK 927      BINDING AFFINITY PREDICTED BY RF-SCORE:    0.00 PKD
ROOT
HETATM    1  N   UNL     1     -13.759  13.068  71.973  1.00  0.00    -0.420 NA 
HETATM    2  C   UNL     1     -13.207  12.064  71.788  1.00  0.00    -0.317 C  
HETATM    3  C   UNL     1     -12.507  10.829  71.574  1.00  0.00    -0.447 A  
HETATM    4  C   UNL     1     -12.891   9.674  72.261  1.00  0.00    -0.407 A  
HETATM    5  C   UNL     1     -12.152   8.494  72.116  1.00  0.00    -0.449 A  
HETATM    6  C   UNL     1     -11.013   8.445  71.288  1.00  0.00    -0.305 A  
HETATM    7  C   UNL     1     -11.420  10.776  70.696  1.00  0.00    -0.314 A  
HETATM    8  C   UNL     1     -10.693   9.588  70.536  1.00  0.00    -0.359 A  
ENDROOT
BRANCH   6   9
HETATM    9  C   UNL     1     -10.179   7.158  71.243  1.00  0.00    -0.190 C  
BRANCH   9  10
HETATM   10  N   UNL     1     -10.445   6.363  72.451  1.00  0.00    -0.194 NA 
HETATM   11  N   UNL     1      -9.732   6.573  73.583  1.00  0.00    -0.174 NA 
HETATM   12  C   UNL     1     -10.227   5.631  74.389  1.00  0.00    -0.278 A  
HETATM   13  C   UNL     1     -11.326   5.336  72.626  1.00  0.00    -0.231 A  
HETATM   14  N   UNL     1     -11.193   4.842  73.835  1.00  0.00    -0.233 NA 
ENDBRANCH   9  10
BRANCH   9  15
HETATM   15  C   UNL     1     -10.197   6.342  69.932  1.00  0.00    -0.224 A  
HETATM   16  C   UNL     1     -10.111   4.939  67.459  1.00  0.00    -0.184 A  
HETATM   17  C   UNL     1     -10.853   6.832  68.784  1.00  0.00    -0.280 A  
HETATM   18  C   UNL     1     -10.066   4.232  66.215  1.00  0.00    -0.172 C  
HETATM   19  C   UNL     1      -9.420   4.456  68.570  1.00  0.00    -0.217 A  
HETATM   20  C   UNL     1     -10.824   6.136  67.569  1.00  0.00    -0.422 A  
HETATM   21  C   UNL     1      -9.449   5.155  69.781  1.00  0.00    -0.210 A  
HETATM   22  N   UNL     1     -10.025   3.654  65.207  1.00  0.00    -0.106 NA 
ENDBRANCH   9  15
ENDBRANCH   6   9
TORSDOF 3
ENDMDL
MODEL       56
REMARK 921   NORMALIZED FREE ENERGY PREDICTED BY IDOCK:   -4.75 KCAL/MOL
REMARK 922        TOTAL FREE ENERGY PREDICTED BY IDOCK:   -6.28 KCAL/MOL
REMARK 923 INTER-LIGAND FREE ENERGY PREDICTED BY IDOCK:   -5.63 KCAL/MOL
REMARK 924 INTRA-LIGAND FREE ENERGY PREDICTED BY IDOCK:   -0.65 KCAL/MOL
REMARK 927      BINDING AFFINITY PREDICTED BY RF-SCORE:    0.00 PKD
ROOT
HETATM    1  N   UNL     1      -5.808   6.967  64.327  1.00  0.00    -0.032 NA 
HETATM    2  C   UNL     1      -6.601   7.629  64.856  1.00  0.00    -0.047 C  
HETATM    3  C   UNL     1      -7.584   8.461  65.491  1.00  0.00    -0.090 A  
HETATM    4  C   UNL     1      -8.907   8.027  65.601  1.00  0.00    -0.133 A  
HETATM    5  C   UNL     1      -9.881   8.876  66.140  1.00  0.00    -0.326 A  
HETATM    6  C   UNL     1      -9.553  10.176  66.576  1.00  0.00    -0.236 A  
HETATM    7  C   UNL     1      -7.232   9.722  65.982  1.00  0.00    -0.101 A  
HETATM    8  C   UNL     1      -8.203  10.563  66.542  1.00  0.00    -0.133 A  
ENDROOT
BRANCH   6   9
HETATM    9  C   UNL     1     -10.674  11.103  67.065  1.00  0.00    -0.268 C  
BRANCH   9  10
HETATM   10  N   UNL     1     -10.982  10.797  68.469  1.00  0.00    -0.223 NA 
HETATM   11  N   UNL     1     -12.249  10.905  68.934  1.00  0.00    -0.466 NA 
HETATM   12  C   UNL     1     -12.085  10.611  70.226  1.00  0.00    -0.338 A  
HETATM   13  C   UNL     1     -10.134  10.441  69.476  1.00  0.00    -0.219 A  
HETATM   14  N   UNL     1     -10.802  10.338  70.601  1.00  0.00    -0.240 NA 
ENDBRANCH   9  10
BRANCH   9  15
HETATM   15  C   UNL     1     -10.533  12.611  66.762  1.00  0.00    -0.254 A  
HETATM   16  C   UNL     1     -10.437  15.394  66.177  1.00  0.00    -0.325 A  
HETATM   17  C   UNL     1     -10.522  13.085  65.433  1.00  0.00    -0.308 A  
HETATM   18  C   UNL     1     -10.389  16.794  65.886  1.00  0.00    -0.328 C  
HETATM   19  C   UNL     1     -10.489  14.950  67.499  1.00  0.00    -0.254 A  
HETATM   20  C   UNL     1     -10.460  14.454  65.144  1.00  0.00    -0.437 A  
HETATM   21  C   UNL     1     -10.553  13.582  67.785  1.00  0.00    -0.252 A  
HETATM   22  N   UNL     1     -10.352  17.932  65.654  1.00  0.00    -0.617 NA 
ENDBRANCH   9  15
ENDBRANCH   6   9
TORSDOF 3
ENDMDL
MODEL       57
REMARK 921   NORMALIZED FREE ENERGY PREDICTED BY IDOCK:   -4.75 KCAL/MOL
REMARK 922        TOTAL FREE ENERGY PREDICTED BY IDOCK:   -6.27 KCAL/MOL
REMARK 923 INTER-LIGAND FREE ENERGY PREDICTED BY IDOCK:   -5.98 KCAL/MOL
REMARK 924 INTRA-LIGAND FREE ENERGY PREDICTED BY IDOCK:   -0.29 KCAL/MOL
REMARK 927      BINDING AFFINITY PREDICTED BY RF-SCORE:    0.00 PKD
ROOT
HETATM    1  N   UNL     1     -12.893  13.819  65.149  1.00  0.00    -0.748 NA 
HETATM    2  C   UNL     1     -12.285  13.033  65.749  1.00  0.00    -0.453 C  
HETATM    3  C   UNL     1     -11.555  12.045  66.493  1.00  0.00    -0.384 A  
HETATM    4  C   UNL     1     -10.761  11.108  65.827  1.00  0.00    -0.252 A  
HETATM    5  C   UNL     1     -10.120  10.093  66.548  1.00  0.00    -0.296 A  
HETATM    6  C   UNL     1     -10.262   9.993  67.947  1.00  0.00    -0.228 A  
HETATM    7  C   UNL     1     -11.649  11.998  67.887  1.00  0.00    -0.405 A  
HETATM    8  C   UNL     1     -10.989  10.995  68.611  1.00  0.00    -0.271 A  
ENDROOT
BRANCH   6   9
HETATM    9  C   UNL     1      -9.624   8.804  68.677  1.00  0.00    -0.154 C  
BRANCH   9  10
HETATM   10  N   UNL     1     -10.184   8.708  70.033  1.00  0.00    -0.190 NA 
HETATM   11  N   UNL     1     -11.495   8.424  70.215  1.00  0.00    -0.138 NA 
HETATM   12  C   UNL     1     -11.601   8.494  71.544  1.00  0.00    -0.292 A  
HETATM   13  C   UNL     1      -9.571   8.920  71.233  1.00  0.00    -0.278 A  
HETATM   14  N   UNL     1     -10.449   8.813  72.203  1.00  0.00    -0.339 NA 
ENDBRANCH   9  10
BRANCH   9  15
HETATM   15  C   UNL     1      -9.556   7.458  67.923  1.00  0.00    -0.157 A  
HETATM   16  C   UNL     1      -9.467   4.901  66.677  1.00  0.00    -0.153 A  
HETATM   17  C   UNL     1      -8.412   6.637  68.006  1.00  0.00    -0.116 A  
HETATM   18  C   UNL     1      -9.425   3.616  66.050  1.00  0.00    -0.160 C  
HETATM   19  C   UNL     1     -10.625   5.678  66.616  1.00  0.00    -0.361 A  
HETATM   20  C   UNL     1      -8.361   5.385  67.381  1.00  0.00    -0.103 A  
HETATM   21  C   UNL     1     -10.673   6.927  67.244  1.00  0.00    -0.421 A  
HETATM   22  N   UNL     1      -9.395   2.572  65.540  1.00  0.00    -0.079 NA 
ENDBRANCH   9  15
ENDBRANCH   6   9
TORSDOF 3
ENDMDL
MODEL       58
REMARK 921   NORMALIZED FREE ENERGY PREDICTED BY IDOCK:   -4.74 KCAL/MOL
REMARK 922        TOTAL FREE ENERGY PREDICTED BY IDOCK:   -6.27 KCAL/MOL
REMARK 923 INTER-LIGAND FREE ENERGY PREDICTED BY IDOCK:   -5.56 KCAL/MOL
REMARK 924 INTRA-LIGAND FREE ENERGY PREDICTED BY IDOCK:   -0.71 KCAL/MOL
REMARK 927      BINDING AFFINITY PREDICTED BY RF-SCORE:    0.00 PKD
ROOT
HETATM    1  N   UNL     1      -5.171  12.108  71.658  1.00  0.00    -0.357 NA 
HETATM    2  C   UNL     1      -5.701  11.536  70.799  1.00  0.00    -0.075 C  
HETATM    3  C   UNL     1      -6.374  10.846  69.734  1.00  0.00    -0.114 A  
HETATM    4  C   UNL     1      -5.947  11.003  68.413  1.00  0.00    -0.042 A  
HETATM    5  C   UNL     1      -6.659  10.399  67.370  1.00  0.00    -0.067 A  
HETATM    6  C   UNL     1      -7.813   9.631  67.625  1.00  0.00    -0.095 A  
HETATM    7  C   UNL     1      -7.477  10.031  70.007  1.00  0.00    -0.181 A  
HETATM    8  C   UNL     1      -8.177   9.409  68.963  1.00  0.00    -0.108 A  
ENDROOT
BRANCH   6   9
HETATM    9  C   UNL     1      -8.615   9.076  66.440  1.00  0.00    -0.125 C  
BRANCH   9  10
HETATM   10  N   UNL     1      -9.254   7.813  66.835  1.00  0.00    -0.144 NA 
HETATM   11  N   UNL     1      -8.513   6.695  67.017  1.00  0.00    -0.113 NA 
HETATM   12  C   UNL     1      -9.455   5.791  67.293  1.00  0.00    -0.114 A  
HETATM   13  C   UNL     1     -10.579   7.540  67.016  1.00  0.00    -0.339 A  
HETATM   14  N   UNL     1     -10.735   6.265  67.285  1.00  0.00    -0.305 NA 
ENDBRANCH   9  10
BRANCH   9  15
HETATM   15  C   UNL     1      -9.550  10.053  65.694  1.00  0.00    -0.313 A  
HETATM   16  C   UNL     1     -11.157  11.972  64.342  1.00  0.00    -0.399 A  
HETATM   17  C   UNL     1     -10.343  10.980  66.402  1.00  0.00    -0.302 A  
HETATM   18  C   UNL     1     -11.965  12.937  63.660  1.00  0.00    -0.541 C  
HETATM   19  C   UNL     1     -10.349  11.092  63.620  1.00  0.00    -0.449 A  
HETATM   20  C   UNL     1     -11.146  11.916  65.738  1.00  0.00    -0.367 A  
HETATM   21  C   UNL     1      -9.547  10.160  64.287  1.00  0.00    -0.354 A  
HETATM   22  N   UNL     1     -12.618  13.719  63.102  1.00  0.00    -0.657 NA 
ENDBRANCH   9  15
ENDBRANCH   6   9
TORSDOF 3
ENDMDL
MODEL       59
REMARK 921   NORMALIZED FREE ENERGY PREDICTED BY IDOCK:   -4.74 KCAL/MOL
REMARK 922        TOTAL FREE ENERGY PREDICTED BY IDOCK:   -6.26 KCAL/MOL
REMARK 923 INTER-LIGAND FREE ENERGY PREDICTED BY IDOCK:   -5.56 KCAL/MOL
REMARK 924 INTRA-LIGAND FREE ENERGY PREDICTED BY IDOCK:   -0.70 KCAL/MOL
REMARK 927      BINDING AFFINITY PREDICTED BY RF-SCORE:    0.00 PKD
ROOT
HETATM    1  N   UNL     1     -12.597  15.053  63.857  1.00  0.00    -0.726 NA 
HETATM    2  C   UNL     1     -12.058  14.200  64.430  1.00  0.00    -0.463 C  
HETATM    3  C   UNL     1     -11.376  13.162  65.149  1.00  0.00    -0.322 A  
HETATM    4  C   UNL     1     -11.856  12.730  66.388  1.00  0.00    -0.472 A  
HETATM    5  C   UNL     1     -11.140  11.780  67.126  1.00  0.00    -0.350 A  
HETATM    6  C   UNL     1      -9.928  11.246  66.644  1.00  0.00    -0.242 A  
HETATM    7  C   UNL     1     -10.210  12.590  64.628  1.00  0.00    -0.315 A  
HETATM    8  C   UNL     1      -9.505  11.623  65.358  1.00  0.00    -0.190 A  
ENDROOT
BRANCH   6   9
HETATM    9  C   UNL     1      -9.129  10.286  67.535  1.00  0.00    -0.137 C  
BRANCH   9  10
HETATM   10  N   UNL     1      -7.991  11.004  68.127  1.00  0.00    -0.113 NA 
HETATM   11  N   UNL     1      -6.852  10.344  68.445  1.00  0.00    -0.064 NA 
HETATM   12  C   UNL     1      -6.124  11.318  68.996  1.00  0.00    -0.052 A  
HETATM   13  C   UNL     1      -7.896  12.317  68.483  1.00  0.00    -0.111 A  
HETATM   14  N   UNL     1      -6.735  12.537  69.054  1.00  0.00    -0.099 NA 
ENDBRANCH   9  10
BRANCH   9  15
HETATM   15  C   UNL     1      -9.922   9.421  68.539  1.00  0.00    -0.190 A  
HETATM   16  C   UNL     1     -11.243   7.743  70.420  1.00  0.00    -0.246 A  
HETATM   17  C   UNL     1     -10.363   8.127  68.190  1.00  0.00    -0.251 A  
HETATM   18  C   UNL     1     -11.907   6.901  71.367  1.00  0.00    -0.330 C  
HETATM   19  C   UNL     1     -10.779   9.003  70.800  1.00  0.00    -0.301 A  
HETATM   20  C   UNL     1     -11.026   7.306  69.110  1.00  0.00    -0.093 A  
HETATM   21  C   UNL     1     -10.115   9.820  69.878  1.00  0.00    -0.288 A  
HETATM   22  N   UNL     1     -12.444   6.220  72.141  1.00  0.00    -0.203 NA 
ENDBRANCH   9  15
ENDBRANCH   6   9
TORSDOF 3
ENDMDL
MODEL       60
REMARK 921   NORMALIZED FREE ENERGY PREDICTED BY IDOCK:   -4.73 KCAL/MOL
REMARK 922        TOTAL FREE ENERGY PREDICTED BY IDOCK:   -6.25 KCAL/MOL
REMARK 923 INTER-LIGAND FREE ENERGY PREDICTED BY IDOCK:   -5.64 KCAL/MOL
REMARK 924 INTRA-LIGAND FREE ENERGY PREDICTED BY IDOCK:   -0.61 KCAL/MOL
REMARK 927      BINDING AFFINITY PREDICTED BY RF-SCORE:    0.00 PKD
ROOT
HETATM    1  N   UNL     1      -8.205   3.345  64.684  1.00  0.00    -0.090 NA 
HETATM    2  C   UNL     1      -8.602   4.194  65.369  1.00  0.00    -0.118 C  
HETATM    3  C   UNL     1      -9.090   5.260  66.197  1.00  0.00    -0.148 A  
HETATM    4  C   UNL     1     -10.464   5.449  66.364  1.00  0.00    -0.324 A  
HETATM    5  C   UNL     1     -10.938   6.542  67.101  1.00  0.00    -0.480 A  
HETATM    6  C   UNL     1     -10.049   7.469  67.681  1.00  0.00    -0.243 A  
HETATM    7  C   UNL     1      -8.196   6.133  66.824  1.00  0.00    -0.109 A  
HETATM    8  C   UNL     1      -8.671   7.215  67.580  1.00  0.00    -0.121 A  
ENDROOT
BRANCH   6   9
HETATM    9  C   UNL     1     -10.619   8.704  68.391  1.00  0.00    -0.120 C  
BRANCH   9  10
HETATM   10  N   UNL     1     -10.045   8.798  69.740  1.00  0.00    -0.190 NA 
HETATM   11  N   UNL     1     -10.730   8.335  70.812  1.00  0.00    -0.214 NA 
HETATM   12  C   UNL     1      -9.911   8.663  71.815  1.00  0.00    -0.295 A  
HETATM   13  C   UNL     1      -8.867   9.361  70.135  1.00  0.00    -0.223 A  
HETATM   14  N   UNL     1      -8.767   9.308  71.443  1.00  0.00    -0.302 NA 
ENDBRANCH   9  10
BRANCH   9  15
HETATM   15  C   UNL     1     -10.621  10.036  67.609  1.00  0.00    -0.323 A  
HETATM   16  C   UNL     1     -10.762  12.437  66.089  1.00  0.00    -0.292 A  
HETATM   17  C   UNL     1     -10.136  10.100  66.286  1.00  0.00    -0.303 A  
HETATM   18  C   UNL     1     -10.833  13.646  65.327  1.00  0.00    -0.322 C  
HETATM   19  C   UNL     1     -11.285  12.387  67.382  1.00  0.00    -0.351 A  
HETATM   20  C   UNL     1     -10.192  11.285  65.541  1.00  0.00    -0.312 A  
HETATM   21  C   UNL     1     -11.230  11.201  68.122  1.00  0.00    -0.356 A  
HETATM   22  N   UNL     1     -10.895  14.630  64.711  1.00  0.00    -0.401 NA 
ENDBRANCH   9  15
ENDBRANCH   6   9
TORSDOF 3
ENDMDL
MODEL       61
REMARK 921   NORMALIZED FREE ENERGY PREDICTED BY IDOCK:   -4.71 KCAL/MOL
REMARK 922        TOTAL FREE ENERGY PREDICTED BY IDOCK:   -6.23 KCAL/MOL
REMARK 923 INTER-LIGAND FREE ENERGY PREDICTED BY IDOCK:   -5.62 KCAL/MOL
REMARK 924 INTRA-LIGAND FREE ENERGY PREDICTED BY IDOCK:   -0.61 KCAL/MOL
REMARK 927      BINDING AFFINITY PREDICTED BY RF-SCORE:    0.00 PKD
ROOT
HETATM    1  N   UNL     1     -11.941   4.985  72.968  1.00  0.00    -0.113 NA 
HETATM    2  C   UNL     1     -11.525   5.905  72.397  1.00  0.00    -0.306 C  
HETATM    3  C   UNL     1     -10.986   7.031  71.688  1.00  0.00    -0.258 A  
HETATM    4  C   UNL     1     -11.152   7.139  70.306  1.00  0.00    -0.303 A  
HETATM    5  C   UNL     1     -10.552   8.193  69.606  1.00  0.00    -0.223 A  
HETATM    6  C   UNL     1      -9.770   9.157  70.274  1.00  0.00    -0.248 A  
HETATM    7  C   UNL     1     -10.270   8.019  72.372  1.00  0.00    -0.347 A  
HETATM    8  C   UNL     1      -9.687   9.086  71.674  1.00  0.00    -0.347 A  
ENDROOT
BRANCH   6   9
HETATM    9  C   UNL     1      -9.049  10.232  69.449  1.00  0.00    -0.187 C  
BRANCH   9  10
HETATM   10  N   UNL     1      -7.733   9.726  69.035  1.00  0.00    -0.080 NA 
HETATM   11  N   UNL     1      -6.731  10.585  68.731  1.00  0.00    -0.053 NA 
HETATM   12  C   UNL     1      -5.765   9.746  68.353  1.00  0.00    -0.043 A  
HETATM   13  C   UNL     1      -7.331   8.438  68.841  1.00  0.00    -0.090 A  
HETATM   14  N   UNL     1      -6.098   8.423  68.390  1.00  0.00    -0.045 NA 
ENDBRANCH   9  10
BRANCH   9  15
HETATM   15  C   UNL     1      -9.849  10.918  68.319  1.00  0.00    -0.179 A  
HETATM   16  C   UNL     1     -11.430  12.053  66.244  1.00  0.00    -0.408 A  
HETATM   17  C   UNL     1      -9.735  10.480  66.983  1.00  0.00    -0.212 A  
HETATM   18  C   UNL     1     -12.227  12.625  65.202  1.00  0.00    -0.481 C  
HETATM   19  C   UNL     1     -11.590  12.473  67.566  1.00  0.00    -0.424 A  
HETATM   20  C   UNL     1     -10.502  11.048  65.958  1.00  0.00    -0.304 A  
HETATM   21  C   UNL     1     -10.824  11.902  68.587  1.00  0.00    -0.273 A  
HETATM   22  N   UNL     1     -12.877  13.092  64.359  1.00  0.00    -0.701 NA 
ENDBRANCH   9  15
ENDBRANCH   6   9
TORSDOF 3
ENDMDL
MODEL       62
REMARK 921   NORMALIZED FREE ENERGY PREDICTED BY IDOCK:   -4.68 KCAL/MOL
REMARK 922        TOTAL FREE ENERGY PREDICTED BY IDOCK:   -6.19 KCAL/MOL
REMARK 923 INTER-LIGAND FREE ENERGY PREDICTED BY IDOCK:   -6.07 KCAL/MOL
REMARK 924 INTRA-LIGAND FREE ENERGY PREDICTED BY IDOCK:   -0.12 KCAL/MOL
REMARK 927      BINDING AFFINITY PREDICTED BY RF-SCORE:    0.00 PKD
ROOT
HETATM    1  N   UNL     1     -11.136  15.660  64.908  1.00  0.00    -0.423 NA 
HETATM    2  C   UNL     1     -10.981  14.761  65.625  1.00  0.00    -0.344 C  
HETATM    3  C   UNL     1     -10.796  13.663  66.531  1.00  0.00    -0.283 A  
HETATM    4  C   UNL     1     -11.783  12.682  66.659  1.00  0.00    -0.464 A  
HETATM    5  C   UNL     1     -11.639  11.661  67.606  1.00  0.00    -0.349 A  
HETATM    6  C   UNL     1     -10.509  11.602  68.446  1.00  0.00    -0.230 A  
HETATM    7  C   UNL     1      -9.639  13.577  67.311  1.00  0.00    -0.235 A  
HETATM    8  C   UNL     1      -9.485  12.542  68.244  1.00  0.00    -0.201 A  
ENDROOT
BRANCH   6   9
HETATM    9  C   UNL     1     -10.447  10.524  69.537  1.00  0.00    -0.235 C  
BRANCH   9  10
HETATM   10  N   UNL     1     -11.572  10.706  70.465  1.00  0.00    -0.336 NA 
HETATM   11  N   UNL     1     -12.105   9.644  71.116  1.00  0.00    -0.338 NA 
HETATM   12  C   UNL     1     -13.110  10.216  71.782  1.00  0.00    -0.463 A  
HETATM   13  C   UNL     1     -12.258  11.844  70.770  1.00  0.00    -0.303 A  
HETATM   14  N   UNL     1     -13.248  11.559  71.584  1.00  0.00    -0.372 NA 
ENDBRANCH   9  10
BRANCH   9  15
HETATM   15  C   UNL     1     -10.231   9.064  69.082  1.00  0.00    -0.213 A  
HETATM   16  C   UNL     1      -9.696   6.425  68.161  1.00  0.00    -0.122 A  
HETATM   17  C   UNL     1     -10.610   8.644  67.791  1.00  0.00    -0.249 A  
HETATM   18  C   UNL     1      -9.427   5.098  67.700  1.00  0.00    -0.127 C  
HETATM   19  C   UNL     1      -9.275   6.831  69.428  1.00  0.00    -0.143 A  
HETATM   20  C   UNL     1     -10.361   7.341  67.341  1.00  0.00    -0.330 A  
HETATM   21  C   UNL     1      -9.523   8.134  69.873  1.00  0.00    -0.160 A  
HETATM   22  N   UNL     1      -9.204   4.019  67.329  1.00  0.00    -0.151 NA 
ENDBRANCH   9  15
ENDBRANCH   6   9
TORSDOF 3
ENDMDL
MODEL       63
REMARK 921   NORMALIZED FREE ENERGY PREDICTED BY IDOCK:   -4.65 KCAL/MOL
REMARK 922        TOTAL FREE ENERGY PREDICTED BY IDOCK:   -6.16 KCAL/MOL
REMARK 923 INTER-LIGAND FREE ENERGY PREDICTED BY IDOCK:   -5.71 KCAL/MOL
REMARK 924 INTRA-LIGAND FREE ENERGY PREDICTED BY IDOCK:   -0.44 KCAL/MOL
REMARK 927      BINDING AFFINITY PREDICTED BY RF-SCORE:    0.00 PKD
ROOT
HETATM    1  N   UNL     1     -11.695   5.242  72.921  1.00  0.00    -0.242 NA 
HETATM    2  C   UNL     1     -11.206   5.777  72.014  1.00  0.00    -0.247 C  
HETATM    3  C   UNL     1     -10.616   6.458  70.896  1.00  0.00    -0.285 A  
HETATM    4  C   UNL     1      -9.429   7.176  71.055  1.00  0.00    -0.159 A  
HETATM    5  C   UNL     1      -8.904   7.910  69.984  1.00  0.00    -0.141 A  
HETATM    6  C   UNL     1      -9.557   7.945  68.736  1.00  0.00    -0.152 A  
HETATM    7  C   UNL     1     -11.238   6.429  69.643  1.00  0.00    -0.483 A  
HETATM    8  C   UNL     1     -10.700   7.147  68.566  1.00  0.00    -0.191 A  
ENDROOT
BRANCH   6   9
HETATM    9  C   UNL     1      -8.997   8.847  67.627  1.00  0.00    -0.134 C  
BRANCH   9  10
HETATM   10  N   UNL     1      -8.354   8.013  66.602  1.00  0.00    -0.117 NA 
HETATM   11  N   UNL     1      -9.045   7.025  65.986  1.00  0.00    -0.117 NA 
HETATM   12  C   UNL     1      -8.106   6.489  65.203  1.00  0.00    -0.133 A  
HETATM   13  C   UNL     1      -7.062   8.034  66.165  1.00  0.00    -0.062 A  
HETATM   14  N   UNL     1      -6.873   7.068  65.296  1.00  0.00    -0.050 NA 
ENDBRANCH   9  10
BRANCH   9  15
HETATM   15  C   UNL     1      -9.929   9.940  67.061  1.00  0.00    -0.254 A  
HETATM   16  C   UNL     1     -11.533  12.070  66.068  1.00  0.00    -0.399 A  
HETATM   17  C   UNL     1     -10.760  10.696  67.914  1.00  0.00    -0.292 A  
HETATM   18  C   UNL     1     -12.339  13.140  65.566  1.00  0.00    -0.474 C  
HETATM   19  C   UNL     1     -10.687  11.363  65.212  1.00  0.00    -0.326 A  
HETATM   20  C   UNL     1     -11.562  11.735  67.424  1.00  0.00    -0.352 A  
HETATM   21  C   UNL     1      -9.886  10.328  65.705  1.00  0.00    -0.332 A  
HETATM   22  N   UNL     1     -12.991  14.010  65.154  1.00  0.00    -0.771 NA 
ENDBRANCH   9  15
ENDBRANCH   6   9
TORSDOF 3
ENDMDL
MODEL       64
REMARK 921   NORMALIZED FREE ENERGY PREDICTED BY IDOCK:   -4.58 KCAL/MOL
REMARK 922        TOTAL FREE ENERGY PREDICTED BY IDOCK:   -6.08 KCAL/MOL
REMARK 923 INTER-LIGAND FREE ENERGY PREDICTED BY IDOCK:   -5.62 KCAL/MOL
REMARK 924 INTRA-LIGAND FREE ENERGY PREDICTED BY IDOCK:   -0.46 KCAL/MOL
REMARK 927      BINDING AFFINITY PREDICTED BY RF-SCORE:    0.00 PKD
ROOT
HETATM    1  N   UNL     1      -9.737   2.781  70.219  1.00  0.00    -0.049 NA 
HETATM    2  C   UNL     1      -9.723   3.900  69.913  1.00  0.00    -0.164 C  
HETATM    3  C   UNL     1      -9.712   5.291  69.558  1.00  0.00    -0.246 A  
HETATM    4  C   UNL     1      -8.506   5.995  69.508  1.00  0.00    -0.119 A  
HETATM    5  C   UNL     1      -8.507   7.371  69.247  1.00  0.00    -0.136 A  
HETATM    6  C   UNL     1      -9.712   8.071  69.036  1.00  0.00    -0.159 A  
HETATM    7  C   UNL     1     -10.909   5.960  69.283  1.00  0.00    -0.414 A  
HETATM    8  C   UNL     1     -10.907   7.334  69.000  1.00  0.00    -0.137 A  
ENDROOT
BRANCH   6   9
HETATM    9  C   UNL     1      -9.667   9.594  68.856  1.00  0.00    -0.162 C  
BRANCH   9  10
HETATM   10  N   UNL     1      -9.560   9.912  67.425  1.00  0.00    -0.152 NA 
HETATM   11  N   UNL     1      -8.503  10.614  66.954  1.00  0.00    -0.126 NA 
HETATM   12  C   UNL     1      -8.818  10.738  65.662  1.00  0.00    -0.190 A  
HETATM   13  C   UNL     1     -10.440   9.642  66.418  1.00  0.00    -0.111 A  
HETATM   14  N   UNL     1     -10.005  10.171  65.298  1.00  0.00    -0.317 NA 
ENDBRANCH   9  10
BRANCH   9  15
HETATM   15  C   UNL     1     -10.720  10.432  69.614  1.00  0.00    -0.304 A  
HETATM   16  C   UNL     1     -12.540  12.017  71.120  1.00  0.00    -0.372 A  
HETATM   17  C   UNL     1     -11.323   9.942  70.791  1.00  0.00    -0.430 A  
HETATM   18  C   UNL     1     -13.455  12.816  71.877  1.00  0.00    -0.358 C  
HETATM   19  C   UNL     1     -11.923  12.538  69.982  1.00  0.00    -0.372 A  
HETATM   20  C   UNL     1     -12.231  10.716  71.526  1.00  0.00    -0.345 A  
HETATM   21  C   UNL     1     -11.016  11.763  69.252  1.00  0.00    -0.231 A  
HETATM   22  N   UNL     1     -14.197  13.469  72.488  1.00  0.00    -0.722 NA 
ENDBRANCH   9  15
ENDBRANCH   6   9
TORSDOF 3
ENDMDL
MODEL       65
REMARK 921   NORMALIZED FREE ENERGY PREDICTED BY IDOCK:   -4.58 KCAL/MOL
REMARK 922        TOTAL FREE ENERGY PREDICTED BY IDOCK:   -6.07 KCAL/MOL
REMARK 923 INTER-LIGAND FREE ENERGY PREDICTED BY IDOCK:   -5.48 KCAL/MOL
REMARK 924 INTRA-LIGAND FREE ENERGY PREDICTED BY IDOCK:   -0.59 KCAL/MOL
REMARK 927      BINDING AFFINITY PREDICTED BY RF-SCORE:    0.00 PKD
ROOT
HETATM    1  N   UNL     1     -10.849  16.977  68.531  1.00  0.00    -0.342 NA 
HETATM    2  C   UNL     1     -10.792  15.855  68.241  1.00  0.00    -0.315 C  
HETATM    3  C   UNL     1     -10.736  14.471  67.863  1.00  0.00    -0.245 A  
HETATM    4  C   UNL     1      -9.630  13.975  67.168  1.00  0.00    -0.245 A  
HETATM    5  C   UNL     1      -9.617  12.647  66.724  1.00  0.00    -0.241 A  
HETATM    6  C   UNL     1     -10.710  11.790  66.962  1.00  0.00    -0.286 A  
HETATM    7  C   UNL     1     -11.797  13.612  68.165  1.00  0.00    -0.407 A  
HETATM    8  C   UNL     1     -11.775  12.276  67.739  1.00  0.00    -0.403 A  
ENDROOT
BRANCH   6   9
HETATM    9  C   UNL     1     -10.691  10.376  66.367  1.00  0.00    -0.064 C  
BRANCH   9  10
HETATM   10  N   UNL     1      -9.872  10.372  65.146  1.00  0.00    -0.291 NA 
HETATM   11  N   UNL     1     -10.352  10.899  63.995  1.00  0.00    -0.364 NA 
HETATM   12  C   UNL     1      -9.354  10.642  63.147  1.00  0.00    -0.314 A  
HETATM   13  C   UNL     1      -8.631   9.844  64.947  1.00  0.00    -0.169 A  
HETATM   14  N   UNL     1      -8.289   9.982  63.687  1.00  0.00    -0.154 NA 
ENDBRANCH   9  10
BRANCH   9  15
HETATM   15  C   UNL     1     -10.400   9.203  67.328  1.00  0.00    -0.338 A  
HETATM   16  C   UNL     1      -9.729   7.005  69.006  1.00  0.00    -0.145 A  
HETATM   17  C   UNL     1     -10.742   7.879  66.981  1.00  0.00    -0.289 A  
HETATM   18  C   UNL     1      -9.391   5.901  69.852  1.00  0.00    -0.150 C  
HETATM   19  C   UNL     1      -9.344   8.302  69.351  1.00  0.00    -0.155 A  
HETATM   20  C   UNL     1     -10.425   6.798  67.812  1.00  0.00    -0.274 A  
HETATM   21  C   UNL     1      -9.660   9.379  68.517  1.00  0.00    -0.154 A  
HETATM   22  N   UNL     1      -9.112   5.008  70.541  1.00  0.00    -0.134 NA 
ENDBRANCH   9  15
ENDBRANCH   6   9
TORSDOF 3
ENDMDL
MODEL       66
REMARK 921   NORMALIZED FREE ENERGY PREDICTED BY IDOCK:   -4.55 KCAL/MOL
REMARK 922        TOTAL FREE ENERGY PREDICTED BY IDOCK:   -6.04 KCAL/MOL
REMARK 923 INTER-LIGAND FREE ENERGY PREDICTED BY IDOCK:   -5.56 KCAL/MOL
REMARK 924 INTRA-LIGAND FREE ENERGY PREDICTED BY IDOCK:   -0.48 KCAL/MOL
REMARK 927      BINDING AFFINITY PREDICTED BY RF-SCORE:    0.00 PKD
ROOT
HETATM    1  N   UNL     1      -5.943   9.606  63.552  1.00  0.00    -0.098 NA 
HETATM    2  C   UNL     1      -6.759   9.718  64.369  1.00  0.00    -0.119 C  
HETATM    3  C   UNL     1      -7.771   9.831  65.382  1.00  0.00    -0.123 A  
HETATM    4  C   UNL     1      -7.412  10.033  66.716  1.00  0.00    -0.096 A  
HETATM    5  C   UNL     1      -8.395  10.055  67.712  1.00  0.00    -0.114 A  
HETATM    6  C   UNL     1      -9.756   9.872  67.395  1.00  0.00    -0.199 A  
HETATM    7  C   UNL     1      -9.123   9.716  65.045  1.00  0.00    -0.284 A  
HETATM    8  C   UNL     1     -10.110   9.759  66.040  1.00  0.00    -0.322 A  
ENDROOT
BRANCH   6   9
HETATM    9  C   UNL     1     -10.784   9.802  68.533  1.00  0.00    -0.215 C  
BRANCH   9  10
HETATM   10  N   UNL     1     -10.325   8.838  69.544  1.00  0.00    -0.209 NA 
HETATM   11  N   UNL     1     -10.580   7.516  69.398  1.00  0.00    -0.229 NA 
HETATM   12  C   UNL     1     -10.069   7.020  70.527  1.00  0.00    -0.191 A  
HETATM   13  C   UNL     1      -9.678   9.072  70.722  1.00  0.00    -0.246 A  
HETATM   14  N   UNL     1      -9.523   7.942  71.372  1.00  0.00    -0.148 NA 
ENDBRANCH   9  10
BRANCH   9  15
HETATM   15  C   UNL     1     -11.291  11.139  69.117  1.00  0.00    -0.340 A  
HETATM   16  C   UNL     1     -12.351  13.596  70.082  1.00  0.00    -0.372 A  
HETATM   17  C   UNL     1     -11.044  12.359  68.454  1.00  0.00    -0.288 A  
HETATM   18  C   UNL     1     -12.886  14.831  70.569  1.00  0.00    -0.322 C  
HETATM   19  C   UNL     1     -12.644  12.396  70.732  1.00  0.00    -0.298 A  
HETATM   20  C   UNL     1     -11.553  13.571  68.935  1.00  0.00    -0.364 A  
HETATM   21  C   UNL     1     -12.135  11.187  70.246  1.00  0.00    -0.462 A  
HETATM   22  N   UNL     1     -13.323  15.831  70.968  1.00  0.00    -0.523 NA 
ENDBRANCH   9  15
ENDBRANCH   6   9
TORSDOF 3
ENDMDL
MODEL       67
REMARK 921   NORMALIZED FREE ENERGY PREDICTED BY IDOCK:   -4.52 KCAL/MOL
REMARK 922        TOTAL FREE ENERGY PREDICTED BY IDOCK:   -6.01 KCAL/MOL
REMARK 923 INTER-LIGAND FREE ENERGY PREDICTED BY IDOCK:   -5.79 KCAL/MOL
REMARK 924 INTRA-LIGAND FREE ENERGY PREDICTED BY IDOCK:   -0.22 KCAL/MOL
REMARK 927      BINDING AFFINITY PREDICTED BY RF-SCORE:    0.00 PKD
ROOT
HETATM    1  N   UNL     1      -7.704   6.099  66.842  1.00  0.00    -0.102 NA 
HETATM    2  C   UNL     1      -8.159   7.166  66.876  1.00  0.00    -0.116 C  
HETATM    3  C   UNL     1      -8.743   8.476  66.926  1.00  0.00    -0.137 A  
HETATM    4  C   UNL     1      -8.559   9.287  68.048  1.00  0.00    -0.121 A  
HETATM    5  C   UNL     1      -9.202  10.529  68.130  1.00  0.00    -0.148 A  
HETATM    6  C   UNL     1     -10.045  10.982  67.096  1.00  0.00    -0.227 A  
HETATM    7  C   UNL     1      -9.522   8.943  65.862  1.00  0.00    -0.303 A  
HETATM    8  C   UNL     1     -10.149  10.196  65.936  1.00  0.00    -0.325 A  
ENDROOT
BRANCH   6   9
HETATM    9  C   UNL     1     -10.807  12.301  67.279  1.00  0.00    -0.245 C  
BRANCH   9  10
HETATM   10  N   UNL     1     -11.441  12.316  68.605  1.00  0.00    -0.281 NA 
HETATM   11  N   UNL     1     -11.501  13.462  69.325  1.00  0.00    -0.281 NA 
HETATM   12  C   UNL     1     -12.075  13.038  70.453  1.00  0.00    -0.314 A  
HETATM   13  C   UNL     1     -11.979  11.281  69.311  1.00  0.00    -0.342 A  
HETATM   14  N   UNL     1     -12.368  11.706  70.491  1.00  0.00    -0.341 NA 
ENDBRANCH   9  10
BRANCH   9  15
HETATM   15  C   UNL     1     -10.066  13.607  66.916  1.00  0.00    -0.260 A  
HETATM   16  C   UNL     1      -8.782  16.087  66.374  1.00  0.00    -0.362 A  
HETATM   17  C   UNL     1     -10.708  14.622  66.178  1.00  0.00    -0.314 A  
HETATM   18  C   UNL     1      -8.134  17.334  66.102  1.00  0.00    -0.237 C  
HETATM   19  C   UNL     1      -8.143  15.113  67.142  1.00  0.00    -0.245 A  
HETATM   20  C   UNL     1     -10.072  15.839  65.897  1.00  0.00    -0.381 A  
HETATM   21  C   UNL     1      -8.782  13.901  67.422  1.00  0.00    -0.208 A  
HETATM   22  N   UNL     1      -7.605  18.346  65.885  1.00  0.00    -0.497 NA 
ENDBRANCH   9  15
ENDBRANCH   6   9
TORSDOF 3
ENDMDL
MODEL       68
REMARK 921   NORMALIZED FREE ENERGY PREDICTED BY IDOCK:   -4.52 KCAL/MOL
REMARK 922        TOTAL FREE ENERGY PREDICTED BY IDOCK:   -6.01 KCAL/MOL
REMARK 923 INTER-LIGAND FREE ENERGY PREDICTED BY IDOCK:   -5.49 KCAL/MOL
REMARK 924 INTRA-LIGAND FREE ENERGY PREDICTED BY IDOCK:   -0.52 KCAL/MOL
REMARK 927      BINDING AFFINITY PREDICTED BY RF-SCORE:    0.00 PKD
ROOT
HETATM    1  N   UNL     1      -6.060   8.509  64.238  1.00  0.00    -0.066 NA 
HETATM    2  C   UNL     1      -6.918   9.130  64.713  1.00  0.00    -0.086 C  
HETATM    3  C   UNL     1      -7.983   9.879  65.317  1.00  0.00    -0.137 A  
HETATM    4  C   UNL     1      -7.696  10.924  66.200  1.00  0.00    -0.133 A  
HETATM    5  C   UNL     1      -8.736  11.595  66.854  1.00  0.00    -0.185 A  
HETATM    6  C   UNL     1     -10.082  11.233  66.644  1.00  0.00    -0.251 A  
HETATM    7  C   UNL     1      -9.317   9.556  65.048  1.00  0.00    -0.294 A  
HETATM    8  C   UNL     1     -10.358  10.242  65.687  1.00  0.00    -0.232 A  
ENDROOT
BRANCH   6   9
HETATM    9  C   UNL     1     -11.177  11.930  67.462  1.00  0.00    -0.296 C  
BRANCH   9  10
HETATM   10  N   UNL     1     -11.370  11.210  68.729  1.00  0.00    -0.250 NA 
HETATM   11  N   UNL     1     -12.611  11.055  69.249  1.00  0.00    -0.274 NA 
HETATM   12  C   UNL     1     -12.343  10.426  70.396  1.00  0.00    -0.286 A  
HETATM   13  C   UNL     1     -10.434  10.671  69.562  1.00  0.00    -0.204 A  
HETATM   14  N   UNL     1     -11.020  10.188  70.632  1.00  0.00    -0.314 NA 
ENDBRANCH   9  10
BRANCH   9  15
HETATM   15  C   UNL     1     -11.085  13.464  67.613  1.00  0.00    -0.288 A  
HETATM   16  C   UNL     1     -10.752  16.273  67.920  1.00  0.00    -0.329 A  
HETATM   17  C   UNL     1     -11.022  14.064  68.888  1.00  0.00    -0.283 A  
HETATM   18  C   UNL     1     -10.584  17.686  68.071  1.00  0.00    -0.376 C  
HETATM   19  C   UNL     1     -10.770  15.698  66.648  1.00  0.00    -0.296 A  
HETATM   20  C   UNL     1     -10.873  15.448  69.041  1.00  0.00    -0.244 A  
HETATM   21  C   UNL     1     -10.917  14.314  66.500  1.00  0.00    -0.316 A  
HETATM   22  N   UNL     1     -10.446  18.834  68.189  1.00  0.00    -0.352 NA 
ENDBRANCH   9  15
ENDBRANCH   6   9
TORSDOF 3
ENDMDL
MODEL       69
REMARK 921   NORMALIZED FREE ENERGY PREDICTED BY IDOCK:   -4.52 KCAL/MOL
REMARK 922        TOTAL FREE ENERGY PREDICTED BY IDOCK:   -6.00 KCAL/MOL
REMARK 923 INTER-LIGAND FREE ENERGY PREDICTED BY IDOCK:   -6.19 KCAL/MOL
REMARK 924 INTRA-LIGAND FREE ENERGY PREDICTED BY IDOCK:    0.19 KCAL/MOL
REMARK 927      BINDING AFFINITY PREDICTED BY RF-SCORE:    0.00 PKD
ROOT
HETATM    1  N   UNL     1      -6.805   9.077  65.449  1.00  0.00    -0.072 NA 
HETATM    2  C   UNL     1      -7.544   9.925  65.733  1.00  0.00    -0.113 C  
HETATM    3  C   UNL     1      -8.470  10.959  66.101  1.00  0.00    -0.171 A  
HETATM    4  C   UNL     1      -8.086  11.963  66.994  1.00  0.00    -0.167 A  
HETATM    5  C   UNL     1      -9.017  12.918  67.418  1.00  0.00    -0.199 A  
HETATM    6  C   UNL     1     -10.351  12.887  66.964  1.00  0.00    -0.245 A  
HETATM    7  C   UNL     1      -9.772  10.957  65.590  1.00  0.00    -0.279 A  
HETATM    8  C   UNL     1     -10.698  11.927  65.999  1.00  0.00    -0.326 A  
ENDROOT
BRANCH   6   9
HETATM    9  C   UNL     1     -11.357  13.893  67.538  1.00  0.00    -0.318 C  
BRANCH   9  10
HETATM   10  N   UNL     1     -11.797  13.438  68.864  1.00  0.00    -0.321 NA 
HETATM   11  N   UNL     1     -12.313  14.317  69.756  1.00  0.00    -0.325 NA 
HETATM   12  C   UNL     1     -12.516  13.533  70.817  1.00  0.00    -0.353 A  
HETATM   13  C   UNL     1     -11.724  12.191  69.413  1.00  0.00    -0.329 A  
HETATM   14  N   UNL     1     -12.152  12.228  70.653  1.00  0.00    -0.324 NA 
ENDBRANCH   9  10
BRANCH   9  15
HETATM   15  C   UNL     1     -10.982  15.390  67.474  1.00  0.00    -0.315 A  
HETATM   16  C   UNL     1     -10.131  18.104  67.387  1.00  0.00    -0.359 A  
HETATM   17  C   UNL     1     -10.776  16.136  68.654  1.00  0.00    -0.295 A  
HETATM   18  C   UNL     1      -9.703  19.469  67.341  1.00  0.00    -0.341 C  
HETATM   19  C   UNL     1     -10.288  17.374  66.208  1.00  0.00    -0.330 A  
HETATM   20  C   UNL     1     -10.371  17.476  68.612  1.00  0.00    -0.369 A  
HETATM   21  C   UNL     1     -10.690  16.035  66.253  1.00  0.00    -0.234 A  
HETATM   22  N   UNL     1      -9.354  20.577  67.298  1.00  0.00    -0.407 NA 
ENDBRANCH   9  15
ENDBRANCH   6   9
TORSDOF 3
ENDMDL
MODEL       70
REMARK 921   NORMALIZED FREE ENERGY PREDICTED BY IDOCK:   -4.49 KCAL/MOL
REMARK 922        TOTAL FREE ENERGY PREDICTED BY IDOCK:   -5.97 KCAL/MOL
REMARK 923 INTER-LIGAND FREE ENERGY PREDICTED BY IDOCK:   -6.12 KCAL/MOL
REMARK 924 INTRA-LIGAND FREE ENERGY PREDICTED BY IDOCK:    0.15 KCAL/MOL
REMARK 927      BINDING AFFINITY PREDICTED BY RF-SCORE:    0.00 PKD
ROOT
HETATM    1  N   UNL     1      -8.518   8.222  68.788  1.00  0.00    -0.125 NA 
HETATM    2  C   UNL     1      -9.197   9.163  68.800  1.00  0.00    -0.136 C  
HETATM    3  C   UNL     1     -10.032  10.331  68.839  1.00  0.00    -0.209 A  
HETATM    4  C   UNL     1      -9.528  11.570  68.438  1.00  0.00    -0.195 A  
HETATM    5  C   UNL     1     -10.317  12.721  68.559  1.00  0.00    -0.231 A  
HETATM    6  C   UNL     1     -11.621  12.657  69.088  1.00  0.00    -0.374 A  
HETATM    7  C   UNL     1     -11.349  10.242  69.301  1.00  0.00    -0.253 A  
HETATM    8  C   UNL     1     -12.146  11.392  69.403  1.00  0.00    -0.358 A  
ENDROOT
BRANCH   6   9
HETATM    9  C   UNL     1     -12.406  13.959  69.296  1.00  0.00    -0.161 C  
BRANCH   9  10
HETATM   10  N   UNL     1     -13.098  13.908  70.592  1.00  0.00    -0.161 NA 
HETATM   11  N   UNL     1     -13.946  14.898  70.957  1.00  0.00    -0.312 NA 
HETATM   12  C   UNL     1     -14.295  14.511  72.187  1.00  0.00    -0.510 A  
HETATM   13  C   UNL     1     -12.985  12.985  71.590  1.00  0.00    -0.321 A  
HETATM   14  N   UNL     1     -13.715  13.353  72.617  1.00  0.00    -0.722 NA 
ENDBRANCH   9  10
BRANCH   9  15
HETATM   15  C   UNL     1     -11.666  15.287  69.025  1.00  0.00    -0.368 A  
HETATM   16  C   UNL     1     -10.158  17.647  68.524  1.00  0.00    -0.375 A  
HETATM   17  C   UNL     1     -11.002  15.971  70.064  1.00  0.00    -0.365 A  
HETATM   18  C   UNL     1      -9.400  18.834  68.270  1.00  0.00    -0.337 C  
HETATM   19  C   UNL     1     -10.772  16.964  67.474  1.00  0.00    -0.270 A  
HETATM   20  C   UNL     1     -10.271  17.141  69.822  1.00  0.00     0.151 A  
HETATM   21  C   UNL     1     -11.499  15.794  67.719  1.00  0.00    -0.175 A  
HETATM   22  N   UNL     1      -8.785  19.797  68.059  1.00  0.00    -0.314 NA 
ENDBRANCH   9  15
ENDBRANCH   6   9
TORSDOF 3
ENDMDL
MODEL       71
REMARK 921   NORMALIZED FREE ENERGY PREDICTED BY IDOCK:   -4.49 KCAL/MOL
REMARK 922        TOTAL FREE ENERGY PREDICTED BY IDOCK:   -5.97 KCAL/MOL
REMARK 923 INTER-LIGAND FREE ENERGY PREDICTED BY IDOCK:   -5.52 KCAL/MOL
REMARK 924 INTRA-LIGAND FREE ENERGY PREDICTED BY IDOCK:   -0.45 KCAL/MOL
REMARK 927      BINDING AFFINITY PREDICTED BY RF-SCORE:    0.00 PKD
ROOT
HETATM    1  N   UNL     1     -10.930  15.270  65.147  1.00  0.00    -0.392 NA 
HETATM    2  C   UNL     1     -10.771  14.338  65.821  1.00  0.00    -0.305 C  
HETATM    3  C   UNL     1     -10.563  13.174  66.635  1.00  0.00    -0.284 A  
HETATM    4  C   UNL     1      -9.458  13.098  67.487  1.00  0.00    -0.212 A  
HETATM    5  C   UNL     1      -9.211  11.927  68.213  1.00  0.00    -0.187 A  
HETATM    6  C   UNL     1     -10.059  10.807  68.099  1.00  0.00    -0.183 A  
HETATM    7  C   UNL     1     -11.450  12.095  66.564  1.00  0.00    -0.430 A  
HETATM    8  C   UNL     1     -11.214  10.930  67.308  1.00  0.00    -0.307 A  
ENDROOT
BRANCH   6   9
HETATM    9  C   UNL     1      -9.688   9.513  68.836  1.00  0.00    -0.164 C  
BRANCH   9  10
HETATM   10  N   UNL     1     -10.481   9.411  70.069  1.00  0.00    -0.218 NA 
HETATM   11  N   UNL     1     -11.596  10.161  70.232  1.00  0.00    -0.284 NA 
HETATM   12  C   UNL     1     -11.965   9.825  71.471  1.00  0.00    -0.407 A  
HETATM   13  C   UNL     1     -10.239   8.667  71.186  1.00  0.00    -0.230 A  
HETATM   14  N   UNL     1     -11.150   8.926  72.096  1.00  0.00    -0.343 NA 
ENDBRANCH   9  10
BRANCH   9  15
HETATM   15  C   UNL     1      -9.636   8.212  68.006  1.00  0.00    -0.174 A  
HETATM   16  C   UNL     1      -9.618   5.896  66.353  1.00  0.00    -0.173 A  
HETATM   17  C   UNL     1     -10.776   7.391  67.875  1.00  0.00    -0.217 A  
HETATM   18  C   UNL     1      -9.606   4.732  65.521  1.00  0.00    -0.161 C  
HETATM   19  C   UNL     1      -8.491   6.716  66.435  1.00  0.00    -0.125 A  
HETATM   20  C   UNL     1     -10.764   6.243  67.073  1.00  0.00    -0.435 A  
HETATM   21  C   UNL     1      -8.507   7.863  67.235  1.00  0.00    -0.121 A  
HETATM   22  N   UNL     1      -9.592   3.788  64.843  1.00  0.00    -0.167 NA 
ENDBRANCH   9  15
ENDBRANCH   6   9
TORSDOF 3
ENDMDL
MODEL       72
REMARK 921   NORMALIZED FREE ENERGY PREDICTED BY IDOCK:   -4.48 KCAL/MOL
REMARK 922        TOTAL FREE ENERGY PREDICTED BY IDOCK:   -5.96 KCAL/MOL
REMARK 923 INTER-LIGAND FREE ENERGY PREDICTED BY IDOCK:   -5.31 KCAL/MOL
REMARK 924 INTRA-LIGAND FREE ENERGY PREDICTED BY IDOCK:   -0.65 KCAL/MOL
REMARK 927      BINDING AFFINITY PREDICTED BY RF-SCORE:    0.00 PKD
ROOT
HETATM    1  N   UNL     1      -7.085   5.502  64.537  1.00  0.00    -0.049 NA 
HETATM    2  C   UNL     1      -7.542   6.429  65.066  1.00  0.00    -0.091 C  
HETATM    3  C   UNL     1      -8.103   7.564  65.743  1.00  0.00    -0.127 A  
HETATM    4  C   UNL     1      -7.330   8.707  65.959  1.00  0.00    -0.085 A  
HETATM    5  C   UNL     1      -7.852   9.778  66.695  1.00  0.00    -0.109 A  
HETATM    6  C   UNL     1      -9.153   9.726  67.234  1.00  0.00    -0.150 A  
HETATM    7  C   UNL     1      -9.419   7.527  66.214  1.00  0.00    -0.161 A  
HETATM    8  C   UNL     1      -9.949   8.608  66.933  1.00  0.00    -0.330 A  
ENDROOT
BRANCH   6   9
HETATM    9  C   UNL     1      -9.640  10.881  68.120  1.00  0.00    -0.164 C  
BRANCH   9  10
HETATM   10  N   UNL     1     -10.079  11.995  67.268  1.00  0.00    -0.194 NA 
HETATM   11  N   UNL     1     -10.838  11.763  66.170  1.00  0.00    -0.281 NA 
HETATM   12  C   UNL     1     -10.956  12.992  65.662  1.00  0.00    -0.273 A  
HETATM   13  C   UNL     1      -9.790  13.323  67.374  1.00  0.00    -0.227 A  
HETATM   14  N   UNL     1     -10.314  13.973  66.361  1.00  0.00    -0.283 NA 
ENDBRANCH   9  10
BRANCH   9  15
HETATM   15  C   UNL     1     -10.617  10.536  69.265  1.00  0.00    -0.265 A  
HETATM   16  C   UNL     1     -12.483   9.784  71.277  1.00  0.00    -0.461 A  
HETATM   17  C   UNL     1     -11.947  11.005  69.249  1.00  0.00    -0.410 A  
HETATM   18  C   UNL     1     -13.420   9.404  72.290  1.00  0.00    -0.465 C  
HETATM   19  C   UNL     1     -11.184   9.274  71.291  1.00  0.00    -0.425 A  
HETATM   20  C   UNL     1     -12.862  10.647  70.246  1.00  0.00    -0.211 A  
HETATM   21  C   UNL     1     -10.272   9.631  70.292  1.00  0.00    -0.333 A  
HETATM   22  N   UNL     1     -14.177   9.091  73.114  1.00  0.00    -0.215 NA 
ENDBRANCH   9  15
ENDBRANCH   6   9
TORSDOF 3
ENDMDL
MODEL       73
REMARK 921   NORMALIZED FREE ENERGY PREDICTED BY IDOCK:   -4.47 KCAL/MOL
REMARK 922        TOTAL FREE ENERGY PREDICTED BY IDOCK:   -5.95 KCAL/MOL
REMARK 923 INTER-LIGAND FREE ENERGY PREDICTED BY IDOCK:   -6.22 KCAL/MOL
REMARK 924 INTRA-LIGAND FREE ENERGY PREDICTED BY IDOCK:    0.27 KCAL/MOL
REMARK 927      BINDING AFFINITY PREDICTED BY RF-SCORE:    0.00 PKD
ROOT
HETATM    1  N   UNL     1      -7.276  10.362  65.540  1.00  0.00    -0.148 NA 
HETATM    2  C   UNL     1      -8.197  10.526  66.227  1.00  0.00    -0.147 C  
HETATM    3  C   UNL     1      -9.324  10.717  67.095  1.00  0.00    -0.172 A  
HETATM    4  C   UNL     1      -9.478  11.915  67.797  1.00  0.00    -0.184 A  
HETATM    5  C   UNL     1     -10.530  12.064  68.709  1.00  0.00    -0.207 A  
HETATM    6  C   UNL     1     -11.446  11.019  68.940  1.00  0.00    -0.364 A  
HETATM    7  C   UNL     1     -10.266   9.697  67.264  1.00  0.00    -0.292 A  
HETATM    8  C   UNL     1     -11.332   9.855  68.161  1.00  0.00    -0.027 A  
ENDROOT
BRANCH   6   9
HETATM    9  C   UNL     1     -12.519  11.194  70.023  1.00  0.00    -0.223 C  
BRANCH   9  10
HETATM   10  N   UNL     1     -12.553   9.996  70.873  1.00  0.00    -0.333 NA 
HETATM   11  N   UNL     1     -11.467   9.637  71.599  1.00  0.00    -0.367 NA 
HETATM   12  C   UNL     1     -11.883   8.498  72.156  1.00  0.00    -0.379 A  
HETATM   13  C   UNL     1     -13.554   9.083  71.031  1.00  0.00     0.024 A  
HETATM   14  N   UNL     1     -13.149   8.115  71.820  1.00  0.00    -0.339 NA 
ENDBRANCH   9  10
BRANCH   9  15
HETATM   15  C   UNL     1     -12.530  12.526  70.805  1.00  0.00    -0.357 A  
HETATM   16  C   UNL     1     -12.441  14.911  72.355  1.00  0.00    -0.426 A  
HETATM   17  C   UNL     1     -13.300  12.672  71.978  1.00  0.00    -0.555 A  
HETATM   18  C   UNL     1     -12.396  16.111  73.133  1.00  0.00    -0.538 C  
HETATM   19  C   UNL     1     -11.639  14.774  71.221  1.00  0.00    -0.314 A  
HETATM   20  C   UNL     1     -13.269  13.850  72.734  1.00  0.00    -0.543 A  
HETATM   21  C   UNL     1     -11.671  13.594  70.470  1.00  0.00    -0.175 A  
HETATM   22  N   UNL     1     -12.354  17.087  73.762  1.00  0.00    -0.154 NA 
ENDBRANCH   9  15
ENDBRANCH   6   9
TORSDOF 3
ENDMDL
MODEL       74
REMARK 921   NORMALIZED FREE ENERGY PREDICTED BY IDOCK:   -4.45 KCAL/MOL
REMARK 922        TOTAL FREE ENERGY PREDICTED BY IDOCK:   -5.93 KCAL/MOL
REMARK 923 INTER-LIGAND FREE ENERGY PREDICTED BY IDOCK:   -5.33 KCAL/MOL
REMARK 924 INTRA-LIGAND FREE ENERGY PREDICTED BY IDOCK:   -0.60 KCAL/MOL
REMARK 927      BINDING AFFINITY PREDICTED BY RF-SCORE:    0.00 PKD
ROOT
HETATM    1  N   UNL     1      -7.971   3.848  65.278  1.00  0.00    -0.096 NA 
HETATM    2  C   UNL     1      -8.445   4.661  65.956  1.00  0.00    -0.115 C  
HETATM    3  C   UNL     1      -9.036   5.650  66.813  1.00  0.00    -0.120 A  
HETATM    4  C   UNL     1      -8.226   6.506  67.563  1.00  0.00    -0.121 A  
HETATM    5  C   UNL     1      -8.804   7.410  68.463  1.00  0.00    -0.126 A  
HETATM    6  C   UNL     1     -10.201   7.473  68.634  1.00  0.00    -0.210 A  
HETATM    7  C   UNL     1     -10.427   5.750  66.923  1.00  0.00    -0.348 A  
HETATM    8  C   UNL     1     -11.006   6.670  67.808  1.00  0.00    -0.367 A  
ENDROOT
BRANCH   6   9
HETATM    9  C   UNL     1     -10.779   8.408  69.706  1.00  0.00    -0.211 C  
BRANCH   9  10
HETATM   10  N   UNL     1     -10.006   8.261  70.947  1.00  0.00    -0.187 NA 
HETATM   11  N   UNL     1     -10.262   7.241  71.800  1.00  0.00    -0.194 NA 
HETATM   12  C   UNL     1      -9.413   7.505  72.795  1.00  0.00    -0.172 A  
HETATM   13  C   UNL     1      -9.029   9.069  71.450  1.00  0.00    -0.173 A  
HETATM   14  N   UNL     1      -8.652   8.625  72.627  1.00  0.00    -0.407 NA 
ENDBRANCH   9  10
BRANCH   9  15
HETATM   15  C   UNL     1     -11.054   9.872  69.300  1.00  0.00    -0.220 A  
HETATM   16  C   UNL     1     -11.437  12.617  68.657  1.00  0.00    -0.347 A  
HETATM   17  C   UNL     1     -11.808  10.725  70.133  1.00  0.00    -0.427 A  
HETATM   18  C   UNL     1     -11.629  13.998  68.332  1.00  0.00    -0.331 C  
HETATM   19  C   UNL     1     -10.653  11.802  67.840  1.00  0.00    -0.231 A  
HETATM   20  C   UNL     1     -12.010  12.073  69.810  1.00  0.00    -0.370 A  
HETATM   21  C   UNL     1     -10.451  10.457  68.166  1.00  0.00    -0.221 A  
HETATM   22  N   UNL     1     -11.781  15.118  68.065  1.00  0.00    -0.333 NA 
ENDBRANCH   9  15
ENDBRANCH   6   9
TORSDOF 3
ENDMDL
MODEL       75
REMARK 921   NORMALIZED FREE ENERGY PREDICTED BY IDOCK:   -4.44 KCAL/MOL
REMARK 922        TOTAL FREE ENERGY PREDICTED BY IDOCK:   -5.91 KCAL/MOL
REMARK 923 INTER-LIGAND FREE ENERGY PREDICTED BY IDOCK:   -5.28 KCAL/MOL
REMARK 924 INTRA-LIGAND FREE ENERGY PREDICTED BY IDOCK:   -0.64 KCAL/MOL
REMARK 927      BINDING AFFINITY PREDICTED BY RF-SCORE:    0.00 PKD
ROOT
HETATM    1  N   UNL     1     -13.065   9.280  72.419  1.00  0.00    -0.423 NA 
HETATM    2  C   UNL     1     -12.504   9.777  71.533  1.00  0.00    -0.403 C  
HETATM    3  C   UNL     1     -11.823  10.377  70.421  1.00  0.00    -0.418 A  
HETATM    4  C   UNL     1     -12.271  11.591  69.892  1.00  0.00    -0.328 A  
HETATM    5  C   UNL     1     -11.659  12.129  68.754  1.00  0.00    -0.380 A  
HETATM    6  C   UNL     1     -10.591  11.464  68.119  1.00  0.00    -0.220 A  
HETATM    7  C   UNL     1     -10.721   9.742  69.840  1.00  0.00    -0.303 A  
HETATM    8  C   UNL     1     -10.094  10.292  68.713  1.00  0.00    -0.198 A  
ENDROOT
BRANCH   6   9
HETATM    9  C   UNL     1     -10.022  12.043  66.816  1.00  0.00    -0.201 C  
BRANCH   9  10
HETATM   10  N   UNL     1      -9.480  13.384  67.075  1.00  0.00    -0.239 NA 
HETATM   11  N   UNL     1      -9.606  14.366  66.152  1.00  0.00    -0.299 NA 
HETATM   12  C   UNL     1      -8.943  15.368  66.735  1.00  0.00    -0.259 A  
HETATM   13  C   UNL     1      -8.772  13.830  68.153  1.00  0.00    -0.183 A  
HETATM   14  N   UNL     1      -8.403  15.074  67.954  1.00  0.00    -0.142 NA 
ENDBRANCH   9  10
BRANCH   9  15
HETATM   15  C   UNL     1      -9.094  11.135  65.980  1.00  0.00    -0.217 A  
HETATM   16  C   UNL     1      -7.389   9.351  64.564  1.00  0.00    -0.105 A  
HETATM   17  C   UNL     1      -7.714  11.057  66.260  1.00  0.00    -0.132 A  
HETATM   18  C   UNL     1      -6.533   8.453  63.850  1.00  0.00    -0.072 C  
HETATM   19  C   UNL     1      -8.759   9.381  64.298  1.00  0.00    -0.224 A  
HETATM   20  C   UNL     1      -6.871  10.189  65.554  1.00  0.00    -0.130 A  
HETATM   21  C   UNL     1      -9.598  10.247  65.006  1.00  0.00    -0.346 A  
HETATM   22  N   UNL     1      -5.843   7.720  63.269  1.00  0.00    -0.057 NA 
ENDBRANCH   9  15
ENDBRANCH   6   9
TORSDOF 3
ENDMDL
MODEL       76
REMARK 921   NORMALIZED FREE ENERGY PREDICTED BY IDOCK:   -4.43 KCAL/MOL
REMARK 922        TOTAL FREE ENERGY PREDICTED BY IDOCK:   -5.90 KCAL/MOL
REMARK 923 INTER-LIGAND FREE ENERGY PREDICTED BY IDOCK:   -5.18 KCAL/MOL
REMARK 924 INTRA-LIGAND FREE ENERGY PREDICTED BY IDOCK:   -0.71 KCAL/MOL
REMARK 927      BINDING AFFINITY PREDICTED BY RF-SCORE:    0.00 PKD
ROOT
HETATM    1  N   UNL     1      -9.811   8.309  73.068  1.00  0.00    -0.241 NA 
HETATM    2  C   UNL     1      -9.629   8.650  71.974  1.00  0.00    -0.314 C  
HETATM    3  C   UNL     1      -9.401   9.097  70.629  1.00  0.00    -0.312 A  
HETATM    4  C   UNL     1      -8.129   9.001  70.061  1.00  0.00    -0.124 A  
HETATM    5  C   UNL     1      -7.890   9.518  68.782  1.00  0.00    -0.084 A  
HETATM    6  C   UNL     1      -8.917  10.143  68.046  1.00  0.00    -0.125 A  
HETATM    7  C   UNL     1     -10.445   9.654  69.883  1.00  0.00    -0.285 A  
HETATM    8  C   UNL     1     -10.211  10.151  68.593  1.00  0.00    -0.193 A  
ENDROOT
BRANCH   6   9
HETATM    9  C   UNL     1      -8.580  10.783  66.693  1.00  0.00    -0.143 C  
BRANCH   9  10
HETATM   10  N   UNL     1      -8.213   9.731  65.735  1.00  0.00    -0.119 NA 
HETATM   11  N   UNL     1      -8.938   8.590  65.656  1.00  0.00    -0.182 NA 
HETATM   12  C   UNL     1      -8.252   7.900  64.742  1.00  0.00    -0.108 A  
HETATM   13  C   UNL     1      -7.153   9.682  64.877  1.00  0.00    -0.114 A  
HETATM   14  N   UNL     1      -7.143   8.527  64.254  1.00  0.00    -0.081 NA 
ENDBRANCH   9  10
BRANCH   9  15
HETATM   15  C   UNL     1      -9.569  11.830  66.135  1.00  0.00    -0.250 A  
HETATM   16  C   UNL     1     -11.272  13.807  65.001  1.00  0.00    -0.339 A  
HETATM   17  C   UNL     1      -9.484  13.184  66.520  1.00  0.00    -0.246 A  
HETATM   18  C   UNL     1     -12.130  14.800  64.430  1.00  0.00    -0.440 C  
HETATM   19  C   UNL     1     -11.347  12.481  64.575  1.00  0.00    -0.379 A  
HETATM   20  C   UNL     1     -10.331  14.157  65.974  1.00  0.00    -0.316 A  
HETATM   21  C   UNL     1     -10.498  11.513  65.121  1.00  0.00    -0.340 A  
HETATM   22  N   UNL     1     -12.827  15.604  63.962  1.00  0.00    -0.449 NA 
ENDBRANCH   9  15
ENDBRANCH   6   9
TORSDOF 3
ENDMDL
MODEL       77
REMARK 921   NORMALIZED FREE ENERGY PREDICTED BY IDOCK:   -4.42 KCAL/MOL
REMARK 922        TOTAL FREE ENERGY PREDICTED BY IDOCK:   -5.89 KCAL/MOL
REMARK 923 INTER-LIGAND FREE ENERGY PREDICTED BY IDOCK:   -5.17 KCAL/MOL
REMARK 924 INTRA-LIGAND FREE ENERGY PREDICTED BY IDOCK:   -0.71 KCAL/MOL
REMARK 927      BINDING AFFINITY PREDICTED BY RF-SCORE:    0.00 PKD
ROOT
HETATM    1  N   UNL     1      -9.080  13.922  68.066  1.00  0.00    -0.185 NA 
HETATM    2  C   UNL     1      -9.301  12.783  68.045  1.00  0.00    -0.213 C  
HETATM    3  C   UNL     1      -9.591  11.377  68.036  1.00  0.00    -0.184 A  
HETATM    4  C   UNL     1     -10.403  10.832  67.038  1.00  0.00    -0.275 A  
HETATM    5  C   UNL     1     -10.755   9.478  67.081  1.00  0.00    -0.252 A  
HETATM    6  C   UNL     1     -10.308   8.643  68.125  1.00  0.00    -0.267 A  
HETATM    7  C   UNL     1      -9.085  10.544  69.039  1.00  0.00    -0.188 A  
HETATM    8  C   UNL     1      -9.421   9.183  69.070  1.00  0.00    -0.152 A  
ENDROOT
BRANCH   6   9
HETATM    9  C   UNL     1     -10.806   7.192  68.183  1.00  0.00    -0.109 C  
BRANCH   9  10
HETATM   10  N   UNL     1     -10.111   6.398  67.160  1.00  0.00    -0.151 NA 
HETATM   11  N   UNL     1     -10.718   5.330  66.590  1.00  0.00    -0.265 NA 
HETATM   12  C   UNL     1      -9.752   4.868  65.792  1.00  0.00    -0.169 A  
HETATM   13  C   UNL     1      -8.840   6.535  66.683  1.00  0.00    -0.132 A  
HETATM   14  N   UNL     1      -8.581   5.568  65.834  1.00  0.00    -0.136 NA 
ENDBRANCH   9  10
BRANCH   9  15
HETATM   15  C   UNL     1     -10.872   6.518  69.571  1.00  0.00    -0.360 A  
HETATM   16  C   UNL     1     -10.874   5.381  72.179  1.00  0.00    -0.275 A  
HETATM   17  C   UNL     1      -9.906   5.566  69.961  1.00  0.00    -0.262 A  
HETATM   18  C   UNL     1     -10.876   4.811  73.492  1.00  0.00    -0.300 C  
HETATM   19  C   UNL     1     -11.814   6.351  71.830  1.00  0.00    -0.374 A  
HETATM   20  C   UNL     1      -9.914   4.995  71.239  1.00  0.00    -0.264 A  
HETATM   21  C   UNL     1     -11.801   6.922  70.553  1.00  0.00    -0.385 A  
HETATM   22  N   UNL     1     -10.882   4.351  74.559  1.00  0.00    -0.277 NA 
ENDBRANCH   9  15
ENDBRANCH   6   9
TORSDOF 3
ENDMDL
MODEL       78
REMARK 921   NORMALIZED FREE ENERGY PREDICTED BY IDOCK:   -4.41 KCAL/MOL
REMARK 922        TOTAL FREE ENERGY PREDICTED BY IDOCK:   -5.88 KCAL/MOL
REMARK 923 INTER-LIGAND FREE ENERGY PREDICTED BY IDOCK:   -5.58 KCAL/MOL
REMARK 924 INTRA-LIGAND FREE ENERGY PREDICTED BY IDOCK:   -0.30 KCAL/MOL
REMARK 927      BINDING AFFINITY PREDICTED BY RF-SCORE:    0.00 PKD
ROOT
HETATM    1  N   UNL     1     -10.980  11.467  64.725  1.00  0.00    -0.272 NA 
HETATM    2  C   UNL     1     -10.913  11.142  65.837  1.00  0.00    -0.103 C  
HETATM    3  C   UNL     1     -10.856  10.738  67.214  1.00  0.00    -0.344 A  
HETATM    4  C   UNL     1     -10.584   9.409  67.547  1.00  0.00    -0.333 A  
HETATM    5  C   UNL     1     -10.616   9.001  68.886  1.00  0.00    -0.203 A  
HETATM    6  C   UNL     1     -10.923   9.911  69.918  1.00  0.00    -0.321 A  
HETATM    7  C   UNL     1     -11.095  11.666  68.233  1.00  0.00    -0.287 A  
HETATM    8  C   UNL     1     -11.105  11.262  69.575  1.00  0.00    -0.299 A  
ENDROOT
BRANCH   6   9
HETATM    9  C   UNL     1     -11.045   9.393  71.357  1.00  0.00    -0.380 C  
BRANCH   9  10
HETATM   10  N   UNL     1     -12.415   8.909  71.585  1.00  0.00    -0.326 NA 
HETATM   11  N   UNL     1     -13.246   9.571  72.425  1.00  0.00    -0.415 NA 
HETATM   12  C   UNL     1     -14.329   8.790  72.398  1.00  0.00    -0.332 A  
HETATM   13  C   UNL     1     -13.024   7.792  71.094  1.00  0.00    -0.134 A  
HETATM   14  N   UNL     1     -14.226   7.682  71.609  1.00  0.00    -0.439 NA 
ENDBRANCH   9  10
BRANCH   9  15
HETATM   15  C   UNL     1      -9.944   8.437  71.865  1.00  0.00    -0.331 A  
HETATM   16  C   UNL     1      -7.833   6.811  72.862  1.00  0.00    -0.098 A  
HETATM   17  C   UNL     1      -8.733   8.287  71.158  1.00  0.00    -0.176 A  
HETATM   18  C   UNL     1      -6.772   5.992  73.365  1.00  0.00    -0.075 C  
HETATM   19  C   UNL     1      -9.006   6.978  73.600  1.00  0.00    -0.188 A  
HETATM   20  C   UNL     1      -7.698   7.475  71.640  1.00  0.00    -0.085 A  
HETATM   21  C   UNL     1     -10.036   7.791  73.116  1.00  0.00    -0.390 A  
HETATM   22  N   UNL     1      -5.913   5.327  73.779  1.00  0.00    -0.044 NA 
ENDBRANCH   9  15
ENDBRANCH   6   9
TORSDOF 3
ENDMDL
MODEL       79
REMARK 921   NORMALIZED FREE ENERGY PREDICTED BY IDOCK:   -4.40 KCAL/MOL
REMARK 922        TOTAL FREE ENERGY PREDICTED BY IDOCK:   -5.87 KCAL/MOL
REMARK 923 INTER-LIGAND FREE ENERGY PREDICTED BY IDOCK:   -5.32 KCAL/MOL
REMARK 924 INTRA-LIGAND FREE ENERGY PREDICTED BY IDOCK:   -0.54 KCAL/MOL
REMARK 927      BINDING AFFINITY PREDICTED BY RF-SCORE:    0.00 PKD
ROOT
HETATM    1  N   UNL     1      -9.434   3.059  64.971  1.00  0.00    -0.147 NA 
HETATM    2  C   UNL     1      -9.502   4.168  65.305  1.00  0.00    -0.173 C  
HETATM    3  C   UNL     1      -9.577   5.533  65.742  1.00  0.00    -0.035 A  
HETATM    4  C   UNL     1      -8.538   6.422  65.456  1.00  0.00    -0.115 A  
HETATM    5  C   UNL     1      -8.574   7.729  65.958  1.00  0.00    -0.166 A  
HETATM    6  C   UNL     1      -9.645   8.172  66.758  1.00  0.00    -0.281 A  
HETATM    7  C   UNL     1     -10.679   5.980  66.478  1.00  0.00    -0.231 A  
HETATM    8  C   UNL     1     -10.725   7.295  66.962  1.00  0.00    -0.406 A  
ENDROOT
BRANCH   6   9
HETATM    9  C   UNL     1      -9.588   9.579  67.369  1.00  0.00    -0.141 C  
BRANCH   9  10
HETATM   10  N   UNL     1      -8.205   9.882  67.762  1.00  0.00    -0.113 NA 
HETATM   11  N   UNL     1      -7.374  10.528  66.910  1.00  0.00    -0.105 NA 
HETATM   12  C   UNL     1      -6.236  10.544  67.607  1.00  0.00    -0.056 A  
HETATM   13  C   UNL     1      -7.548   9.555  68.912  1.00  0.00    -0.075 A  
HETATM   14  N   UNL     1      -6.296   9.943  68.831  1.00  0.00    -0.041 NA 
ENDBRANCH   9  10
BRANCH   9  15
HETATM   15  C   UNL     1     -10.292  10.718  66.598  1.00  0.00    -0.294 A  
HETATM   16  C   UNL     1     -11.447  12.904  65.192  1.00  0.00    -0.348 A  
HETATM   17  C   UNL     1     -10.809  11.840  67.278  1.00  0.00    -0.300 A  
HETATM   18  C   UNL     1     -12.027  14.004  64.483  1.00  0.00    -0.448 C  
HETATM   19  C   UNL     1     -10.904  11.823  64.496  1.00  0.00    -0.377 A  
HETATM   20  C   UNL     1     -11.391  12.911  66.588  1.00  0.00    -0.361 A  
HETATM   21  C   UNL     1     -10.322  10.757  65.188  1.00  0.00    -0.341 A  
HETATM   22  N   UNL     1     -12.497  14.894  63.902  1.00  0.00    -0.769 NA 
ENDBRANCH   9  15
ENDBRANCH   6   9
TORSDOF 3
ENDMDL
MODEL       80
REMARK 921   NORMALIZED FREE ENERGY PREDICTED BY IDOCK:   -4.37 KCAL/MOL
REMARK 922        TOTAL FREE ENERGY PREDICTED BY IDOCK:   -5.83 KCAL/MOL
REMARK 923 INTER-LIGAND FREE ENERGY PREDICTED BY IDOCK:   -5.34 KCAL/MOL
REMARK 924 INTRA-LIGAND FREE ENERGY PREDICTED BY IDOCK:   -0.50 KCAL/MOL
REMARK 927      BINDING AFFINITY PREDICTED BY RF-SCORE:    0.00 PKD
ROOT
HETATM    1  N   UNL     1      -5.135  20.794  72.371  1.00  0.00    -0.401 NA 
HETATM    2  C   UNL     1      -5.623  20.387  71.400  1.00  0.00    -0.271 C  
HETATM    3  C   UNL     1      -6.231  19.908  70.191  1.00  0.00    -0.376 A  
HETATM    4  C   UNL     1      -5.437  19.506  69.115  1.00  0.00    -0.221 A  
HETATM    5  C   UNL     1      -6.033  19.122  67.907  1.00  0.00    -0.212 A  
HETATM    6  C   UNL     1      -7.433  19.136  67.750  1.00  0.00    -0.283 A  
HETATM    7  C   UNL     1      -7.624  19.861  70.071  1.00  0.00     0.485 A  
HETATM    8  C   UNL     1      -8.221  19.456  68.869  1.00  0.00    -0.339 A  
ENDROOT
BRANCH   6   9
HETATM    9  C   UNL     1      -8.032  18.806  66.376  1.00  0.00    -0.282 C  
BRANCH   9  10
HETATM   10  N   UNL     1      -7.076  19.183  65.326  1.00  0.00    -0.451 NA 
HETATM   11  N   UNL     1      -6.293  18.246  64.740  1.00  0.00    -0.172 NA 
HETATM   12  C   UNL     1      -5.551  18.992  63.919  1.00  0.00    -0.237 A  
HETATM   13  C   UNL     1      -6.784  20.422  64.835  1.00  0.00    -0.249 A  
HETATM   14  N   UNL     1      -5.809  20.332  63.960  1.00  0.00    -0.250 NA 
ENDBRANCH   9  10
BRANCH   9  15
HETATM   15  C   UNL     1      -8.657  17.406  66.191  1.00  0.00    -0.191 A  
HETATM   16  C   UNL     1      -9.865  14.837  66.007  1.00  0.00    -0.350 A  
HETATM   17  C   UNL     1      -8.025  16.256  66.708  1.00  0.00    -0.306 A  
HETATM   18  C   UNL     1     -10.475  13.545  65.913  1.00  0.00    -0.292 C  
HETATM   19  C   UNL     1     -10.529  15.966  65.525  1.00  0.00    -0.425 A  
HETATM   20  C   UNL     1      -8.612  14.988  66.605  1.00  0.00    -0.246 A  
HETATM   21  C   UNL     1      -9.941  17.231  65.632  1.00  0.00     0.003 A  
HETATM   22  N   UNL     1     -10.974  12.499  65.836  1.00  0.00    -0.271 NA 
ENDBRANCH   9  15
ENDBRANCH   6   9
TORSDOF 3
ENDMDL
MODEL       81
REMARK 921   NORMALIZED FREE ENERGY PREDICTED BY IDOCK:   -4.37 KCAL/MOL
REMARK 922        TOTAL FREE ENERGY PREDICTED BY IDOCK:   -5.83 KCAL/MOL
REMARK 923 INTER-LIGAND FREE ENERGY PREDICTED BY IDOCK:   -5.65 KCAL/MOL
REMARK 924 INTRA-LIGAND FREE ENERGY PREDICTED BY IDOCK:   -0.17 KCAL/MOL
REMARK 927      BINDING AFFINITY PREDICTED BY RF-SCORE:    0.00 PKD
ROOT
HETATM    1  N   UNL     1     -14.390  14.614  71.860  1.00  0.00    -0.526 NA 
HETATM    2  C   UNL     1     -13.759  13.681  71.581  1.00  0.00    -0.246 C  
HETATM    3  C   UNL     1     -12.960  12.535  71.249  1.00  0.00    -0.301 A  
HETATM    4  C   UNL     1     -13.098  11.348  71.971  1.00  0.00    -0.423 A  
HETATM    5  C   UNL     1     -12.257  10.261  71.703  1.00  0.00    -0.384 A  
HETATM    6  C   UNL     1     -11.259  10.341  70.711  1.00  0.00    -0.373 A  
HETATM    7  C   UNL     1     -12.020  12.604  70.216  1.00  0.00    -0.363 A  
HETATM    8  C   UNL     1     -11.192  11.509  69.933  1.00  0.00    -0.183 A  
ENDROOT
BRANCH   6   9
HETATM    9  C   UNL     1     -10.296   9.160  70.525  1.00  0.00    -0.235 C  
BRANCH   9  10
HETATM   10  N   UNL     1     -10.824   7.986  71.235  1.00  0.00    -0.229 NA 
HETATM   11  N   UNL     1     -11.813   7.240  70.688  1.00  0.00    -0.284 NA 
HETATM   12  C   UNL     1     -12.035   6.344  71.652  1.00  0.00    -0.291 A  
HETATM   13  C   UNL     1     -10.496   7.511  72.470  1.00  0.00    -0.249 A  
HETATM   14  N   UNL     1     -11.261   6.486  72.767  1.00  0.00    -0.249 NA 
ENDBRANCH   9  10
BRANCH   9  15
HETATM   15  C   UNL     1      -9.800   8.865  69.093  1.00  0.00    -0.180 A  
HETATM   16  C   UNL     1      -8.942   8.163  66.472  1.00  0.00    -0.191 A  
HETATM   17  C   UNL     1      -8.583   8.187  68.873  1.00  0.00    -0.130 A  
HETATM   18  C   UNL     1      -8.512   7.811  65.153  1.00  0.00    -0.060 C  
HETATM   19  C   UNL     1     -10.170   8.797  66.668  1.00  0.00    -0.340 A  
HETATM   20  C   UNL     1      -8.152   7.854  67.583  1.00  0.00    -0.124 A  
HETATM   21  C   UNL     1     -10.598   9.126  67.959  1.00  0.00    -0.253 A  
HETATM   22  N   UNL     1      -8.168   7.526  64.081  1.00  0.00    -0.040 NA 
ENDBRANCH   9  15
ENDBRANCH   6   9
TORSDOF 3
ENDMDL
MODEL       82
REMARK 921   NORMALIZED FREE ENERGY PREDICTED BY IDOCK:   -4.36 KCAL/MOL
REMARK 922        TOTAL FREE ENERGY PREDICTED BY IDOCK:   -5.82 KCAL/MOL
REMARK 923 INTER-LIGAND FREE ENERGY PREDICTED BY IDOCK:   -5.48 KCAL/MOL
REMARK 924 INTRA-LIGAND FREE ENERGY PREDICTED BY IDOCK:   -0.34 KCAL/MOL
REMARK 927      BINDING AFFINITY PREDICTED BY RF-SCORE:    0.00 PKD
ROOT
HETATM    1  N   UNL     1     -10.392  12.592  63.658  1.00  0.00    -0.407 NA 
HETATM    2  C   UNL     1     -10.256  12.035  64.667  1.00  0.00    -0.282 C  
HETATM    3  C   UNL     1     -10.111  11.351  65.922  1.00  0.00    -0.286 A  
HETATM    4  C   UNL     1     -10.252   9.963  65.987  1.00  0.00    -0.269 A  
HETATM    5  C   UNL     1     -10.197   9.310  67.225  1.00  0.00    -0.315 A  
HETATM    6  C   UNL     1     -10.005  10.031  68.420  1.00  0.00    -0.178 A  
HETATM    7  C   UNL     1      -9.852  12.071  67.093  1.00  0.00    -0.205 A  
HETATM    8  C   UNL     1      -9.775  11.414  68.329  1.00  0.00    -0.202 A  
ENDROOT
BRANCH   6   9
HETATM    9  C   UNL     1     -10.055   9.281  69.759  1.00  0.00    -0.204 C  
BRANCH   9  10
HETATM   10  N   UNL     1     -11.246   9.704  70.509  1.00  0.00    -0.275 NA 
HETATM   11  N   UNL     1     -11.488   9.214  71.747  1.00  0.00    -0.368 NA 
HETATM   12  C   UNL     1     -12.661   9.783  72.035  1.00  0.00    -0.376 A  
HETATM   13  C   UNL     1     -12.256  10.535  70.119  1.00  0.00    -0.280 A  
HETATM   14  N   UNL     1     -13.173  10.585  71.057  1.00  0.00    -0.318 NA 
ENDBRANCH   9  10
BRANCH   9  15
HETATM   15  C   UNL     1      -9.836   7.753  69.727  1.00  0.00    -0.178 A  
HETATM   16  C   UNL     1      -9.439   4.945  69.501  1.00  0.00    -0.216 A  
HETATM   17  C   UNL     1     -10.916   6.871  69.514  1.00  0.00    -0.289 A  
HETATM   18  C   UNL     1      -9.237   3.532  69.388  1.00  0.00    -0.157 C  
HETATM   19  C   UNL     1      -8.351   5.801  69.670  1.00  0.00    -0.112 A  
HETATM   20  C   UNL     1     -10.724   5.487  69.417  1.00  0.00    -0.312 A  
HETATM   21  C   UNL     1      -8.546   7.183  69.764  1.00  0.00    -0.141 A  
HETATM   22  N   UNL     1      -9.068   2.386  69.295  1.00  0.00    -0.110 NA 
ENDBRANCH   9  15
ENDBRANCH   6   9
TORSDOF 3
ENDMDL
MODEL       83
REMARK 921   NORMALIZED FREE ENERGY PREDICTED BY IDOCK:   -4.35 KCAL/MOL
REMARK 922        TOTAL FREE ENERGY PREDICTED BY IDOCK:   -5.81 KCAL/MOL
REMARK 923 INTER-LIGAND FREE ENERGY PREDICTED BY IDOCK:   -5.30 KCAL/MOL
REMARK 924 INTRA-LIGAND FREE ENERGY PREDICTED BY IDOCK:   -0.50 KCAL/MOL
REMARK 927      BINDING AFFINITY PREDICTED BY RF-SCORE:    0.00 PKD
ROOT
HETATM    1  N   UNL     1     -14.403   8.849  72.787  1.00  0.00    -0.538 NA 
HETATM    2  C   UNL     1     -13.462   8.613  72.151  1.00  0.00    -0.398 C  
HETATM    3  C   UNL     1     -12.311   8.324  71.343  1.00  0.00    -0.326 A  
HETATM    4  C   UNL     1     -11.343   9.307  71.119  1.00  0.00    -0.412 A  
HETATM    5  C   UNL     1     -10.267   9.050  70.261  1.00  0.00    -0.235 A  
HETATM    6  C   UNL     1     -10.140   7.809  69.605  1.00  0.00    -0.196 A  
HETATM    7  C   UNL     1     -12.159   7.066  70.752  1.00  0.00    -0.374 A  
HETATM    8  C   UNL     1     -11.071   6.802  69.909  1.00  0.00    -0.374 A  
ENDROOT
BRANCH   6   9
HETATM    9  C   UNL     1      -9.001   7.614  68.595  1.00  0.00    -0.133 C  
BRANCH   9  10
HETATM   10  N   UNL     1      -8.804   6.177  68.356  1.00  0.00    -0.114 NA 
HETATM   11  N   UNL     1      -7.933   5.468  69.113  1.00  0.00    -0.094 NA 
HETATM   12  C   UNL     1      -8.005   4.262  68.544  1.00  0.00    -0.073 A  
HETATM   13  C   UNL     1      -9.355   5.383  67.394  1.00  0.00    -0.113 A  
HETATM   14  N   UNL     1      -8.851   4.173  67.477  1.00  0.00    -0.108 NA 
ENDBRANCH   9  10
BRANCH   9  15
HETATM   15  C   UNL     1      -9.034   8.470  67.310  1.00  0.00    -0.141 A  
HETATM   16  C   UNL     1      -9.132   9.910  64.858  1.00  0.00    -0.271 A  
HETATM   17  C   UNL     1      -7.944   8.476  66.415  1.00  0.00    -0.099 A  
HETATM   18  C   UNL     1      -9.184  10.635  63.625  1.00  0.00    -0.259 C  
HETATM   19  C   UNL     1     -10.238   9.886  65.709  1.00  0.00    -0.251 A  
HETATM   20  C   UNL     1      -7.985   9.195  65.214  1.00  0.00    -0.111 A  
HETATM   21  C   UNL     1     -10.194   9.164  66.906  1.00  0.00    -0.336 A  
HETATM   22  N   UNL     1      -9.231  11.223  62.624  1.00  0.00    -0.346 NA 
ENDBRANCH   9  15
ENDBRANCH   6   9
TORSDOF 3
ENDMDL
MODEL       84
REMARK 921   NORMALIZED FREE ENERGY PREDICTED BY IDOCK:   -4.35 KCAL/MOL
REMARK 922        TOTAL FREE ENERGY PREDICTED BY IDOCK:   -5.80 KCAL/MOL
REMARK 923 INTER-LIGAND FREE ENERGY PREDICTED BY IDOCK:   -5.51 KCAL/MOL
REMARK 924 INTRA-LIGAND FREE ENERGY PREDICTED BY IDOCK:   -0.29 KCAL/MOL
REMARK 927      BINDING AFFINITY PREDICTED BY RF-SCORE:    0.00 PKD
ROOT
HETATM    1  N   UNL     1     -13.256  14.115  65.133  1.00  0.00    -0.646 NA 
HETATM    2  C   UNL     1     -12.468  13.497  65.720  1.00  0.00    -0.462 C  
HETATM    3  C   UNL     1     -11.513  12.716  66.454  1.00  0.00    -0.409 A  
HETATM    4  C   UNL     1     -10.706  11.787  65.792  1.00  0.00    -0.328 A  
HETATM    5  C   UNL     1      -9.838  10.966  66.522  1.00  0.00    -0.245 A  
HETATM    6  C   UNL     1      -9.762  11.053  67.926  1.00  0.00    -0.183 A  
HETATM    7  C   UNL     1     -11.398  12.860  67.840  1.00  0.00    -0.336 A  
HETATM    8  C   UNL     1     -10.513  12.052  68.568  1.00  0.00    -0.244 A  
ENDROOT
BRANCH   6   9
HETATM    9  C   UNL     1      -8.872  10.061  68.687  1.00  0.00    -0.132 C  
BRANCH   9  10
HETATM   10  N   UNL     1      -7.756  10.788  69.311  1.00  0.00    -0.142 NA 
HETATM   11  N   UNL     1      -7.445  12.043  68.909  1.00  0.00    -0.084 NA 
HETATM   12  C   UNL     1      -6.369  12.303  69.656  1.00  0.00    -0.111 A  
HETATM   13  C   UNL     1      -6.881  10.362  70.266  1.00  0.00    -0.126 A  
HETATM   14  N   UNL     1      -5.982  11.292  70.488  1.00  0.00    -0.266 NA 
ENDBRANCH   9  10
BRANCH   9  15
HETATM   15  C   UNL     1      -9.570   9.051  69.623  1.00  0.00    -0.175 A  
HETATM   16  C   UNL     1     -10.992   7.196  71.246  1.00  0.00    -0.264 A  
HETATM   17  C   UNL     1     -10.525   9.480  70.568  1.00  0.00    -0.358 A  
HETATM   18  C   UNL     1     -11.705   6.261  72.061  1.00  0.00    -0.322 C  
HETATM   19  C   UNL     1     -10.082   6.745  70.288  1.00  0.00    -0.196 A  
HETATM   20  C   UNL     1     -11.215   8.569  71.378  1.00  0.00    -0.327 A  
HETATM   21  C   UNL     1      -9.396   7.658  69.480  1.00  0.00    -0.153 A  
HETATM   22  N   UNL     1     -12.284   5.498  72.720  1.00  0.00    -0.004 NA 
ENDBRANCH   9  15
ENDBRANCH   6   9
TORSDOF 3
ENDMDL
MODEL       85
REMARK 921   NORMALIZED FREE ENERGY PREDICTED BY IDOCK:   -4.33 KCAL/MOL
REMARK 922        TOTAL FREE ENERGY PREDICTED BY IDOCK:   -5.78 KCAL/MOL
REMARK 923 INTER-LIGAND FREE ENERGY PREDICTED BY IDOCK:   -5.26 KCAL/MOL
REMARK 924 INTRA-LIGAND FREE ENERGY PREDICTED BY IDOCK:   -0.52 KCAL/MOL
REMARK 927      BINDING AFFINITY PREDICTED BY RF-SCORE:    0.00 PKD
ROOT
HETATM    1  N   UNL     1     -10.612   7.191  74.179  1.00  0.00    -0.165 NA 
HETATM    2  C   UNL     1     -10.253   7.756  73.231  1.00  0.00    -0.303 C  
HETATM    3  C   UNL     1      -9.810   8.475  72.070  1.00  0.00    -0.383 A  
HETATM    4  C   UNL     1      -8.447   8.582  71.785  1.00  0.00    -0.236 A  
HETATM    5  C   UNL     1      -8.014   9.357  70.702  1.00  0.00    -0.189 A  
HETATM    6  C   UNL     1      -8.935  10.044  69.886  1.00  0.00    -0.178 A  
HETATM    7  C   UNL     1     -10.737   9.096  71.227  1.00  0.00    -0.401 A  
HETATM    8  C   UNL     1     -10.305   9.855  70.130  1.00  0.00    -0.336 A  
ENDROOT
BRANCH   6   9
HETATM    9  C   UNL     1      -8.405  10.962  68.776  1.00  0.00    -0.151 C  
BRANCH   9  10
HETATM   10  N   UNL     1      -7.346  10.265  68.032  1.00  0.00    -0.085 NA 
HETATM   11  N   UNL     1      -7.560   9.026  67.531  1.00  0.00    -0.089 NA 
HETATM   12  C   UNL     1      -6.367   8.740  67.005  1.00  0.00    -0.060 A  
HETATM   13  C   UNL     1      -6.066  10.665  67.783  1.00  0.00    -0.047 A  
HETATM   14  N   UNL     1      -5.420   9.711  67.154  1.00  0.00    -0.042 NA 
ENDBRANCH   9  10
BRANCH   9  15
HETATM   15  C   UNL     1      -9.446  11.671  67.882  1.00  0.00    -0.181 A  
HETATM   16  C   UNL     1     -11.237  13.054  66.157  1.00  0.00    -0.320 A  
HETATM   17  C   UNL     1      -9.835  13.002  68.138  1.00  0.00    -0.228 A  
HETATM   18  C   UNL     1     -12.138  13.748  65.289  1.00  0.00    -0.407 C  
HETATM   19  C   UNL     1     -10.835  11.751  65.861  1.00  0.00    -0.339 A  
HETATM   20  C   UNL     1     -10.727  13.680  67.298  1.00  0.00    -0.283 A  
HETATM   21  C   UNL     1      -9.941  11.078  66.701  1.00  0.00    -0.249 A  
HETATM   22  N   UNL     1     -12.869  14.308  64.580  1.00  0.00    -0.592 NA 
ENDBRANCH   9  15
ENDBRANCH   6   9
TORSDOF 3
ENDMDL
MODEL       86
REMARK 921   NORMALIZED FREE ENERGY PREDICTED BY IDOCK:   -4.32 KCAL/MOL
REMARK 922        TOTAL FREE ENERGY PREDICTED BY IDOCK:   -5.77 KCAL/MOL
REMARK 923 INTER-LIGAND FREE ENERGY PREDICTED BY IDOCK:   -5.83 KCAL/MOL
REMARK 924 INTRA-LIGAND FREE ENERGY PREDICTED BY IDOCK:    0.06 KCAL/MOL
REMARK 927      BINDING AFFINITY PREDICTED BY RF-SCORE:    0.00 PKD
ROOT
HETATM    1  N   UNL     1     -14.117   8.948  72.527  1.00  0.00    -0.512 NA 
HETATM    2  C   UNL     1     -13.322   9.446  71.842  1.00  0.00    -0.434 C  
HETATM    3  C   UNL     1     -12.347  10.045  70.977  1.00  0.00    -0.458 A  
HETATM    4  C   UNL     1     -12.644  11.225  70.290  1.00  0.00    -0.255 A  
HETATM    5  C   UNL     1     -11.724  11.759  69.381  1.00  0.00    -0.405 A  
HETATM    6  C   UNL     1     -10.490  11.123  69.135  1.00  0.00    -0.211 A  
HETATM    7  C   UNL     1     -11.099   9.441  70.793  1.00  0.00    -0.365 A  
HETATM    8  C   UNL     1     -10.168   9.988  69.898  1.00  0.00    -0.304 A  
ENDROOT
BRANCH   6   9
HETATM    9  C   UNL     1      -9.561  11.692  68.054  1.00  0.00    -0.184 C  
BRANCH   9  10
HETATM   10  N   UNL     1     -10.288  11.769  66.779  1.00  0.00    -0.214 NA 
HETATM   11  N   UNL     1      -9.636  11.597  65.605  1.00  0.00    -0.231 NA 
HETATM   12  C   UNL     1     -10.616  11.805  64.722  1.00  0.00    -0.301 A  
HETATM   13  C   UNL     1     -11.603  12.056  66.557  1.00  0.00    -0.314 A  
HETATM   14  N   UNL     1     -11.831  12.106  65.265  1.00  0.00    -0.346 NA 
ENDBRANCH   9  10
BRANCH   9  15
HETATM   15  C   UNL     1      -8.757  12.964  68.404  1.00  0.00    -0.119 A  
HETATM   16  C   UNL     1      -7.304  15.273  69.209  1.00  0.00    -0.191 A  
HETATM   17  C   UNL     1      -9.414  14.158  68.764  1.00  0.00    -0.102 A  
HETATM   18  C   UNL     1      -6.571  16.434  69.614  1.00  0.00    -0.180 C  
HETATM   19  C   UNL     1      -6.634  14.089  68.897  1.00  0.00    -0.101 A  
HETATM   20  C   UNL     1      -8.700  15.301  69.147  1.00  0.00    -0.238 A  
HETATM   21  C   UNL     1      -7.351  12.950  68.517  1.00  0.00    -0.115 A  
HETATM   22  N   UNL     1      -5.971  17.373  69.944  1.00  0.00    -0.251 NA 
ENDBRANCH   9  15
ENDBRANCH   6   9
TORSDOF 3
ENDMDL
MODEL       87
REMARK 921   NORMALIZED FREE ENERGY PREDICTED BY IDOCK:   -4.32 KCAL/MOL
REMARK 922        TOTAL FREE ENERGY PREDICTED BY IDOCK:   -5.77 KCAL/MOL
REMARK 923 INTER-LIGAND FREE ENERGY PREDICTED BY IDOCK:   -5.22 KCAL/MOL
REMARK 924 INTRA-LIGAND FREE ENERGY PREDICTED BY IDOCK:   -0.55 KCAL/MOL
REMARK 927      BINDING AFFINITY PREDICTED BY RF-SCORE:    0.00 PKD
ROOT
HETATM    1  N   UNL     1     -11.017   4.793  66.100  1.00  0.00     0.011 NA 
HETATM    2  C   UNL     1     -10.649   5.832  66.463  1.00  0.00    -0.229 C  
HETATM    3  C   UNL     1     -10.211   7.128  66.897  1.00  0.00    -0.330 A  
HETATM    4  C   UNL     1     -10.693   7.671  68.090  1.00  0.00    -0.127 A  
HETATM    5  C   UNL     1     -10.332   8.971  68.467  1.00  0.00    -0.233 A  
HETATM    6  C   UNL     1      -9.486   9.754  67.657  1.00  0.00    -0.164 A  
HETATM    7  C   UNL     1      -9.316   7.869  66.119  1.00  0.00    -0.188 A  
HETATM    8  C   UNL     1      -8.938   9.162  66.506  1.00  0.00    -0.178 A  
ENDROOT
BRANCH   6   9
HETATM    9  C   UNL     1      -9.203  11.207  68.061  1.00  0.00    -0.159 C  
BRANCH   9  10
HETATM   10  N   UNL     1      -7.766  11.367  68.329  1.00  0.00    -0.116 NA 
HETATM   11  N   UNL     1      -6.952  11.923  67.401  1.00  0.00    -0.116 NA 
HETATM   12  C   UNL     1      -5.761  11.822  67.995  1.00  0.00    -0.046 A  
HETATM   13  C   UNL     1      -7.047  10.974  69.419  1.00  0.00    -0.128 A  
HETATM   14  N   UNL     1      -5.775  11.231  69.225  1.00  0.00    -0.041 NA 
ENDBRANCH   9  10
BRANCH   9  15
HETATM   15  C   UNL     1      -9.811  12.322  67.182  1.00  0.00    -0.207 A  
HETATM   16  C   UNL     1     -10.778  14.441  65.548  1.00  0.00    -0.344 A  
HETATM   17  C   UNL     1     -10.071  13.602  67.714  1.00  0.00    -0.242 A  
HETATM   18  C   UNL     1     -11.264  15.505  64.724  1.00  0.00    -0.390 C  
HETATM   19  C   UNL     1     -10.488  13.194  64.991  1.00  0.00    -0.358 A  
HETATM   20  C   UNL     1     -10.561  14.642  66.913  1.00  0.00    -0.281 A  
HETATM   21  C   UNL     1      -9.996  12.159  65.793  1.00  0.00    -0.271 A  
HETATM   22  N   UNL     1     -11.657  16.367  64.050  1.00  0.00    -1.082 NA 
ENDBRANCH   9  15
ENDBRANCH   6   9
TORSDOF 3
ENDMDL
MODEL       88
REMARK 921   NORMALIZED FREE ENERGY PREDICTED BY IDOCK:   -4.26 KCAL/MOL
REMARK 922        TOTAL FREE ENERGY PREDICTED BY IDOCK:   -5.69 KCAL/MOL
REMARK 923 INTER-LIGAND FREE ENERGY PREDICTED BY IDOCK:   -5.08 KCAL/MOL
REMARK 924 INTRA-LIGAND FREE ENERGY PREDICTED BY IDOCK:   -0.62 KCAL/MOL
REMARK 927      BINDING AFFINITY PREDICTED BY RF-SCORE:    0.00 PKD
ROOT
HETATM    1  N   UNL     1     -11.358  16.824  68.702  1.00  0.00    -0.176 NA 
HETATM    2  C   UNL     1     -11.188  15.676  68.679  1.00  0.00    -0.338 C  
HETATM    3  C   UNL     1     -10.987  14.255  68.628  1.00  0.00    -0.268 A  
HETATM    4  C   UNL     1      -9.739  13.732  68.281  1.00  0.00    -0.231 A  
HETATM    5  C   UNL     1      -9.571  12.349  68.147  1.00  0.00    -0.218 A  
HETATM    6  C   UNL     1     -10.646  11.461  68.352  1.00  0.00    -0.230 A  
HETATM    7  C   UNL     1     -12.045  13.382  68.901  1.00  0.00    -0.289 A  
HETATM    8  C   UNL     1     -11.871  11.996  68.787  1.00  0.00    -0.358 A  
ENDROOT
BRANCH   6   9
HETATM    9  C   UNL     1     -10.436   9.963  68.092  1.00  0.00    -0.215 C  
BRANCH   9  10
HETATM   10  N   UNL     1      -9.369   9.787  67.097  1.00  0.00    -0.141 NA 
HETATM   11  N   UNL     1      -9.652   9.818  65.774  1.00  0.00    -0.234 NA 
HETATM   12  C   UNL     1      -8.456   9.560  65.239  1.00  0.00    -0.148 A  
HETATM   13  C   UNL     1      -8.044   9.529  67.296  1.00  0.00    -0.110 A  
HETATM   14  N   UNL     1      -7.449   9.360  66.138  1.00  0.00    -0.095 NA 
ENDBRANCH   9  10
BRANCH   9  15
HETATM   15  C   UNL     1     -10.314   9.038  69.323  1.00  0.00    -0.227 A  
HETATM   16  C   UNL     1     -10.241   7.384  71.637  1.00  0.00    -0.205 A  
HETATM   17  C   UNL     1      -9.988   9.561  70.592  1.00  0.00    -0.342 A  
HETATM   18  C   UNL     1     -10.205   6.550  72.799  1.00  0.00    -0.186 C  
HETATM   19  C   UNL     1     -10.606   6.853  70.399  1.00  0.00    -0.247 A  
HETATM   20  C   UNL     1      -9.938   8.745  71.730  1.00  0.00    -0.396 A  
HETATM   21  C   UNL     1     -10.657   7.671  69.265  1.00  0.00    -0.206 A  
HETATM   22  N   UNL     1     -10.179   5.869  73.741  1.00  0.00    -0.220 NA 
ENDBRANCH   9  15
ENDBRANCH   6   9
TORSDOF 3
ENDMDL
MODEL       89
REMARK 921   NORMALIZED FREE ENERGY PREDICTED BY IDOCK:   -4.21 KCAL/MOL
REMARK 922        TOTAL FREE ENERGY PREDICTED BY IDOCK:   -5.64 KCAL/MOL
REMARK 923 INTER-LIGAND FREE ENERGY PREDICTED BY IDOCK:   -4.87 KCAL/MOL
REMARK 924 INTRA-LIGAND FREE ENERGY PREDICTED BY IDOCK:   -0.77 KCAL/MOL
REMARK 927      BINDING AFFINITY PREDICTED BY RF-SCORE:    0.00 PKD
ROOT
HETATM    1  N   UNL     1      -6.389  19.195  64.730  1.00  0.00    -0.466 NA 
HETATM    2  C   UNL     1      -6.893  18.447  65.460  1.00  0.00    -0.183 C  
HETATM    3  C   UNL     1      -7.519  17.506  66.345  1.00  0.00    -0.334 A  
HETATM    4  C   UNL     1      -6.740  16.694  67.173  1.00  0.00    -0.223 A  
HETATM    5  C   UNL     1      -7.349  15.716  67.970  1.00  0.00    -0.137 A  
HETATM    6  C   UNL     1      -8.745  15.528  67.951  1.00  0.00    -0.163 A  
HETATM    7  C   UNL     1      -8.911  17.375  66.368  1.00  0.00    -0.273 A  
HETATM    8  C   UNL     1      -9.521  16.411  67.182  1.00  0.00    -0.238 A  
ENDROOT
BRANCH   6   9
HETATM    9  C   UNL     1      -9.353  14.376  68.764  1.00  0.00    -0.150 C  
BRANCH   9  10
HETATM   10  N   UNL     1     -10.593  14.835  69.406  1.00  0.00    -0.236 NA 
HETATM   11  N   UNL     1     -10.548  15.693  70.453  1.00  0.00    -0.317 NA 
HETATM   12  C   UNL     1     -11.841  15.798  70.768  1.00  0.00    -0.404 A  
HETATM   13  C   UNL     1     -11.882  14.478  69.137  1.00  0.00    -0.319 A  
HETATM   14  N   UNL     1     -12.688  15.056  69.997  1.00  0.00    -0.217 NA 
ENDBRANCH   9  10
BRANCH   9  15
HETATM   15  C   UNL     1      -9.470  13.001  68.071  1.00  0.00    -0.217 A  
HETATM   16  C   UNL     1      -9.519  10.464  66.784  1.00  0.00    -0.198 A  
HETATM   17  C   UNL     1      -9.351  12.883  66.671  1.00  0.00    -0.240 A  
HETATM   18  C   UNL     1      -9.544   9.187  66.139  1.00  0.00    -0.266 C  
HETATM   19  C   UNL     1      -9.597  10.553  68.175  1.00  0.00    -0.163 A  
HETATM   20  C   UNL     1      -9.390  11.636  66.034  1.00  0.00    -0.241 A  
HETATM   21  C   UNL     1      -9.556  11.800  68.807  1.00  0.00    -0.053 A  
HETATM   22  N   UNL     1      -9.563   8.147  65.619  1.00  0.00     0.166 NA 
ENDBRANCH   9  15
ENDBRANCH   6   9
TORSDOF 3
ENDMDL
MODEL       90
REMARK 921   NORMALIZED FREE ENERGY PREDICTED BY IDOCK:   -4.21 KCAL/MOL
REMARK 922        TOTAL FREE ENERGY PREDICTED BY IDOCK:   -5.64 KCAL/MOL
REMARK 923 INTER-LIGAND FREE ENERGY PREDICTED BY IDOCK:   -5.57 KCAL/MOL
REMARK 924 INTRA-LIGAND FREE ENERGY PREDICTED BY IDOCK:   -0.07 KCAL/MOL
REMARK 927      BINDING AFFINITY PREDICTED BY RF-SCORE:    0.00 PKD
ROOT
HETATM    1  N   UNL     1      -5.622  21.072  62.468  1.00  0.00    -0.214 NA 
HETATM    2  C   UNL     1      -5.807  20.486  63.453  1.00  0.00    -0.253 C  
HETATM    3  C   UNL     1      -6.017  19.774  64.682  1.00  0.00    -0.305 A  
HETATM    4  C   UNL     1      -6.993  20.201  65.586  1.00  0.00    -0.322 A  
HETATM    5  C   UNL     1      -7.135  19.558  66.821  1.00  0.00    -0.220 A  
HETATM    6  C   UNL     1      -6.303  18.479  67.180  1.00  0.00    -0.190 A  
HETATM    7  C   UNL     1      -5.230  18.662  64.997  1.00  0.00    -0.216 A  
HETATM    8  C   UNL     1      -5.387  18.004  66.225  1.00  0.00    -0.207 A  
ENDROOT
BRANCH   6   9
HETATM    9  C   UNL     1      -6.430  17.874  68.585  1.00  0.00    -0.215 C  
BRANCH   9  10
HETATM   10  N   UNL     1      -6.067  18.888  69.585  1.00  0.00    -0.262 NA 
HETATM   11  N   UNL     1      -5.760  18.524  70.852  1.00  0.00    -0.087 NA 
HETATM   12  C   UNL     1      -5.563  19.711  71.431  1.00  0.00    -0.296 A  
HETATM   13  C   UNL     1      -6.031  20.246  69.457  1.00  0.00    -0.342 A  
HETATM   14  N   UNL     1      -5.736  20.791  70.614  1.00  0.00    -0.553 NA 
ENDBRANCH   9  10
BRANCH   9  15
HETATM   15  C   UNL     1      -7.724  17.098  68.911  1.00  0.00    -0.230 A  
HETATM   16  C   UNL     1     -10.140  15.660  69.347  1.00  0.00    -0.269 A  
HETATM   17  C   UNL     1      -8.978  17.743  68.899  1.00  0.00    -0.124 A  
HETATM   18  C   UNL     1     -11.354  14.934  69.567  1.00  0.00    -0.281 C  
HETATM   19  C   UNL     1      -8.914  14.993  69.323  1.00  0.00    -0.158 A  
HETATM   20  C   UNL     1     -10.167  17.039  69.128  1.00  0.00    -0.288 A  
HETATM   21  C   UNL     1      -7.729  15.699  69.091  1.00  0.00    -0.212 A  
HETATM   22  N   UNL     1     -12.337  14.340  69.745  1.00  0.00    -0.325 NA 
ENDBRANCH   9  15
ENDBRANCH   6   9
TORSDOF 3
ENDMDL
MODEL       91
REMARK 921   NORMALIZED FREE ENERGY PREDICTED BY IDOCK:   -4.17 KCAL/MOL
REMARK 922        TOTAL FREE ENERGY PREDICTED BY IDOCK:   -5.59 KCAL/MOL
REMARK 923 INTER-LIGAND FREE ENERGY PREDICTED BY IDOCK:   -4.88 KCAL/MOL
REMARK 924 INTRA-LIGAND FREE ENERGY PREDICTED BY IDOCK:   -0.71 KCAL/MOL
REMARK 927      BINDING AFFINITY PREDICTED BY RF-SCORE:    0.00 PKD
ROOT
HETATM    1  N   UNL     1     -13.294  11.022  71.865  1.00  0.00    -0.390 NA 
HETATM    2  C   UNL     1     -12.589  10.121  71.672  1.00  0.00    -0.434 C  
HETATM    3  C   UNL     1     -11.724   9.005  71.410  1.00  0.00    -0.392 A  
HETATM    4  C   UNL     1     -10.359   9.208  71.197  1.00  0.00    -0.387 A  
HETATM    5  C   UNL     1      -9.534   8.130  70.855  1.00  0.00    -0.186 A  
HETATM    6  C   UNL     1     -10.057   6.829  70.714  1.00  0.00    -0.208 A  
HETATM    7  C   UNL     1     -12.244   7.709  71.340  1.00  0.00    -0.351 A  
HETATM    8  C   UNL     1     -11.414   6.626  71.019  1.00  0.00    -0.382 A  
ENDROOT
BRANCH   6   9
HETATM    9  C   UNL     1      -9.132   5.701  70.238  1.00  0.00    -0.143 C  
BRANCH   9  10
HETATM   10  N   UNL     1      -9.219   4.572  71.176  1.00  0.00    -0.133 NA 
HETATM   11  N   UNL     1      -9.772   3.399  70.788  1.00  0.00    -0.167 NA 
HETATM   12  C   UNL     1      -9.715   2.691  71.919  1.00  0.00    -0.151 A  
HETATM   13  C   UNL     1      -8.853   4.516  72.488  1.00  0.00    -0.117 A  
HETATM   14  N   UNL     1      -9.175   3.346  72.987  1.00  0.00    -0.097 NA 
ENDBRANCH   9  10
BRANCH   9  15
HETATM   15  C   UNL     1      -9.212   5.296  68.750  1.00  0.00    -0.145 A  
HETATM   16  C   UNL     1      -9.334   4.710  65.968  1.00  0.00    -0.156 A  
HETATM   17  C   UNL     1     -10.388   5.514  68.002  1.00  0.00    -0.237 A  
HETATM   18  C   UNL     1      -9.393   4.415  64.569  1.00  0.00    -0.143 C  
HETATM   19  C   UNL     1      -8.147   4.525  66.679  1.00  0.00    -0.103 A  
HETATM   20  C   UNL     1     -10.454   5.212  66.636  1.00  0.00    -0.328 A  
HETATM   21  C   UNL     1      -8.084   4.830  68.043  1.00  0.00    -0.089 A  
HETATM   22  N   UNL     1      -9.436   4.175  63.433  1.00  0.00    -0.147 NA 
ENDBRANCH   9  15
ENDBRANCH   6   9
TORSDOF 3
ENDMDL
MODEL       92
REMARK 921   NORMALIZED FREE ENERGY PREDICTED BY IDOCK:   -4.10 KCAL/MOL
REMARK 922        TOTAL FREE ENERGY PREDICTED BY IDOCK:   -5.51 KCAL/MOL
REMARK 923 INTER-LIGAND FREE ENERGY PREDICTED BY IDOCK:   -4.81 KCAL/MOL
REMARK 924 INTRA-LIGAND FREE ENERGY PREDICTED BY IDOCK:   -0.71 KCAL/MOL
REMARK 927      BINDING AFFINITY PREDICTED BY RF-SCORE:    0.00 PKD
ROOT
HETATM    1  N   UNL     1     -13.262  13.915  65.109  1.00  0.00    -0.690 NA 
HETATM    2  C   UNL     1     -12.360  13.279  65.468  1.00  0.00    -0.480 C  
HETATM    3  C   UNL     1     -11.259  12.471  65.913  1.00  0.00    -0.356 A  
HETATM    4  C   UNL     1     -10.361  11.934  64.987  1.00  0.00    -0.330 A  
HETATM    5  C   UNL     1      -9.341  11.076  65.416  1.00  0.00    -0.244 A  
HETATM    6  C   UNL     1      -9.201  10.735  66.776  1.00  0.00    -0.174 A  
HETATM    7  C   UNL     1     -11.090  12.195  67.273  1.00  0.00    -0.341 A  
HETATM    8  C   UNL     1     -10.055  11.353  67.705  1.00  0.00    -0.200 A  
ENDROOT
BRANCH   6   9
HETATM    9  C   UNL     1      -8.132   9.711  67.181  1.00  0.00    -0.110 C  
BRANCH   9  10
HETATM   10  N   UNL     1      -7.700   9.978  68.560  1.00  0.00    -0.087 NA 
HETATM   11  N   UNL     1      -6.660  10.809  68.806  1.00  0.00    -0.052 NA 
HETATM   12  C   UNL     1      -6.559  10.726  70.134  1.00  0.00    -0.143 A  
HETATM   13  C   UNL     1      -8.175   9.452  69.726  1.00  0.00    -0.143 A  
HETATM   14  N   UNL     1      -7.457   9.892  70.734  1.00  0.00    -0.294 NA 
ENDBRANCH   9  10
BRANCH   9  15
HETATM   15  C   UNL     1      -8.424   8.223  66.886  1.00  0.00    -0.118 A  
HETATM   16  C   UNL     1      -8.928   5.449  66.503  1.00  0.00    -0.120 A  
HETATM   17  C   UNL     1      -7.372   7.301  66.702  1.00  0.00    -0.080 A  
HETATM   18  C   UNL     1      -9.184   4.054  66.311  1.00  0.00    -0.158 C  
HETATM   19  C   UNL     1      -9.983   6.336  66.724  1.00  0.00    -0.220 A  
HETATM   20  C   UNL     1      -7.619   5.938  66.499  1.00  0.00    -0.095 A  
HETATM   21  C   UNL     1      -9.732   7.697  66.929  1.00  0.00    -0.277 A  
HETATM   22  N   UNL     1      -9.397   2.922  66.156  1.00  0.00    -0.095 NA 
ENDBRANCH   9  15
ENDBRANCH   6   9
TORSDOF 3
ENDMDL
MODEL       93
REMARK 921   NORMALIZED FREE ENERGY PREDICTED BY IDOCK:   -4.06 KCAL/MOL
REMARK 922        TOTAL FREE ENERGY PREDICTED BY IDOCK:   -5.47 KCAL/MOL
REMARK 923 INTER-LIGAND FREE ENERGY PREDICTED BY IDOCK:   -4.86 KCAL/MOL
REMARK 924 INTRA-LIGAND FREE ENERGY PREDICTED BY IDOCK:   -0.60 KCAL/MOL
REMARK 927      BINDING AFFINITY PREDICTED BY RF-SCORE:    0.00 PKD
ROOT
HETATM    1  N   UNL     1      -9.309   2.675  63.709  1.00  0.00    -0.105 NA 
HETATM    2  C   UNL     1      -9.434   3.603  64.394  1.00  0.00    -0.154 C  
HETATM    3  C   UNL     1      -9.583   4.737  65.262  1.00  0.00    -0.126 A  
HETATM    4  C   UNL     1      -8.551   5.670  65.384  1.00  0.00    -0.150 A  
HETATM    5  C   UNL     1      -8.664   6.726  66.296  1.00  0.00    -0.152 A  
HETATM    6  C   UNL     1      -9.808   6.868  67.107  1.00  0.00    -0.214 A  
HETATM    7  C   UNL     1     -10.752   4.905  66.011  1.00  0.00    -0.247 A  
HETATM    8  C   UNL     1     -10.874   5.975  66.909  1.00  0.00    -0.396 A  
ENDROOT
BRANCH   6   9
HETATM    9  C   UNL     1      -9.839   7.982  68.163  1.00  0.00    -0.170 C  
BRANCH   9  10
HETATM   10  N   UNL     1      -8.554   8.014  68.875  1.00  0.00    -0.131 NA 
HETATM   11  N   UNL     1      -7.642   8.977  68.605  1.00  0.00    -0.091 NA 
HETATM   12  C   UNL     1      -6.628   8.615  69.393  1.00  0.00    -0.045 A  
HETATM   13  C   UNL     1      -8.063   7.140  69.800  1.00  0.00    -0.129 A  
HETATM   14  N   UNL     1      -6.839   7.485  70.128  1.00  0.00    -0.050 NA 
ENDBRANCH   9  10
BRANCH   9  15
HETATM   15  C   UNL     1     -10.352   9.369  67.719  1.00  0.00    -0.291 A  
HETATM   16  C   UNL     1     -11.422  11.848  66.823  1.00  0.00    -0.384 A  
HETATM   17  C   UNL     1     -10.120   9.842  66.410  1.00  0.00    -0.313 A  
HETATM   18  C   UNL     1     -11.962  13.096  66.374  1.00  0.00    -0.402 C  
HETATM   19  C   UNL     1     -11.699  11.382  68.108  1.00  0.00    -0.355 A  
HETATM   20  C   UNL     1     -10.634  11.069  65.972  1.00  0.00    -0.275 A  
HETATM   21  C   UNL     1     -11.186  10.155  68.542  1.00  0.00    -0.226 A  
HETATM   22  N   UNL     1     -12.403  14.109  66.014  1.00  0.00    -0.457 NA 
ENDBRANCH   9  15
ENDBRANCH   6   9
TORSDOF 3
ENDMDL
MODEL       94
REMARK 921   NORMALIZED FREE ENERGY PREDICTED BY IDOCK:   -4.05 KCAL/MOL
REMARK 922        TOTAL FREE ENERGY PREDICTED BY IDOCK:   -5.46 KCAL/MOL
REMARK 923 INTER-LIGAND FREE ENERGY PREDICTED BY IDOCK:   -4.88 KCAL/MOL
REMARK 924 INTRA-LIGAND FREE ENERGY PREDICTED BY IDOCK:   -0.58 KCAL/MOL
REMARK 927      BINDING AFFINITY PREDICTED BY RF-SCORE:    0.00 PKD
ROOT
HETATM    1  N   UNL     1     -12.627  15.270  63.874  1.00  0.00    -0.657 NA 
HETATM    2  C   UNL     1     -11.973  14.352  64.150  1.00  0.00    -0.346 C  
HETATM    3  C   UNL     1     -11.181  13.209  64.508  1.00  0.00    -0.383 A  
HETATM    4  C   UNL     1     -11.192  12.066  63.705  1.00  0.00    -0.516 A  
HETATM    5  C   UNL     1     -10.489  10.922  64.103  1.00  0.00    -0.397 A  
HETATM    6  C   UNL     1      -9.764  10.897  65.311  1.00  0.00    -0.296 A  
HETATM    7  C   UNL     1     -10.411  13.220  65.675  1.00  0.00    -0.286 A  
HETATM    8  C   UNL     1      -9.689  12.082  66.062  1.00  0.00    -0.256 A  
ENDROOT
BRANCH   6   9
HETATM    9  C   UNL     1      -9.095   9.588  65.752  1.00  0.00    -0.196 C  
BRANCH   9  10
HETATM   10  N   UNL     1      -8.150   9.152  64.714  1.00  0.00    -0.132 NA 
HETATM   11  N   UNL     1      -7.855   7.839  64.561  1.00  0.00    -0.132 NA 
HETATM   12  C   UNL     1      -6.939   7.883  63.591  1.00  0.00    -0.075 A  
HETATM   13  C   UNL     1      -7.423   9.908  63.842  1.00  0.00    -0.134 A  
HETATM   14  N   UNL     1      -6.635   9.133  63.135  1.00  0.00    -0.090 NA 
ENDBRANCH   9  10
BRANCH   9  15
HETATM   15  C   UNL     1      -8.532   9.525  67.188  1.00  0.00    -0.131 A  
HETATM   16  C   UNL     1      -7.469   9.245  69.813  1.00  0.00    -0.075 A  
HETATM   17  C   UNL     1      -9.317   9.034  68.253  1.00  0.00    -0.145 A  
HETATM   18  C   UNL     1      -6.932   9.105  71.132  1.00  0.00    -0.081 C  
HETATM   19  C   UNL     1      -6.662   9.694  68.767  1.00  0.00    -0.051 A  
HETATM   20  C   UNL     1      -8.800   8.909  69.548  1.00  0.00    -0.144 A  
HETATM   21  C   UNL     1      -7.181   9.815  67.473  1.00  0.00    -0.089 A  
HETATM   22  N   UNL     1      -6.492   8.992  72.201  1.00  0.00    -0.262 NA 
ENDBRANCH   9  15
ENDBRANCH   6   9
TORSDOF 3
ENDMDL
MODEL       95
REMARK 921   NORMALIZED FREE ENERGY PREDICTED BY IDOCK:   -4.05 KCAL/MOL
REMARK 922        TOTAL FREE ENERGY PREDICTED BY IDOCK:   -5.45 KCAL/MOL
REMARK 923 INTER-LIGAND FREE ENERGY PREDICTED BY IDOCK:   -5.14 KCAL/MOL
REMARK 924 INTRA-LIGAND FREE ENERGY PREDICTED BY IDOCK:   -0.31 KCAL/MOL
REMARK 927      BINDING AFFINITY PREDICTED BY RF-SCORE:    0.00 PKD
ROOT
HETATM    1  N   UNL     1     -11.257   4.617  73.969  1.00  0.00    -0.231 NA 
HETATM    2  C   UNL     1     -10.954   4.984  72.910  1.00  0.00    -0.277 C  
HETATM    3  C   UNL     1     -10.577   5.460  71.609  1.00  0.00    -0.284 A  
HETATM    4  C   UNL     1      -9.256   5.336  71.170  1.00  0.00    -0.179 A  
HETATM    5  C   UNL     1      -8.873   5.880  69.938  1.00  0.00    -0.130 A  
HETATM    6  C   UNL     1      -9.799   6.562  69.123  1.00  0.00    -0.156 A  
HETATM    7  C   UNL     1     -11.521   6.074  70.780  1.00  0.00    -0.227 A  
HETATM    8  C   UNL     1     -11.141   6.600  69.537  1.00  0.00    -0.378 A  
ENDROOT
BRANCH   6   9
HETATM    9  C   UNL     1      -9.307   7.228  67.831  1.00  0.00    -0.129 C  
BRANCH   9  10
HETATM   10  N   UNL     1      -9.383   6.262  66.726  1.00  0.00    -0.138 NA 
HETATM   11  N   UNL     1     -10.544   5.622  66.451  1.00  0.00    -0.232 NA 
HETATM   12  C   UNL     1     -10.175   4.815  65.454  1.00  0.00    -0.076 A  
HETATM   13  C   UNL     1      -8.392   5.828  65.895  1.00  0.00    -0.130 A  
HETATM   14  N   UNL     1      -8.861   4.898  65.096  1.00  0.00    -0.151 NA 
ENDBRANCH   9  10
BRANCH   9  15
HETATM   15  C   UNL     1      -9.871   8.625  67.491  1.00  0.00    -0.234 A  
HETATM   16  C   UNL     1     -11.050  11.123  66.813  1.00  0.00    -0.280 A  
HETATM   17  C   UNL     1      -9.878   9.099  66.163  1.00  0.00    -0.363 A  
HETATM   18  C   UNL     1     -11.644  12.380  66.473  1.00  0.00    -0.387 C  
HETATM   19  C   UNL     1     -11.092  10.655  68.127  1.00  0.00    -0.343 A  
HETATM   20  C   UNL     1     -10.445  10.336  65.830  1.00  0.00    -0.159 A  
HETATM   21  C   UNL     1     -10.527   9.419  68.456  1.00  0.00    -0.239 A  
HETATM   22  N   UNL     1     -12.129  13.401  66.202  1.00  0.00    -0.420 NA 
ENDBRANCH   9  15
ENDBRANCH   6   9
TORSDOF 3
ENDMDL
MODEL       96
REMARK 921   NORMALIZED FREE ENERGY PREDICTED BY IDOCK:   -4.03 KCAL/MOL
REMARK 922        TOTAL FREE ENERGY PREDICTED BY IDOCK:   -5.43 KCAL/MOL
REMARK 923 INTER-LIGAND FREE ENERGY PREDICTED BY IDOCK:   -5.33 KCAL/MOL
REMARK 924 INTRA-LIGAND FREE ENERGY PREDICTED BY IDOCK:   -0.10 KCAL/MOL
REMARK 927      BINDING AFFINITY PREDICTED BY RF-SCORE:    0.00 PKD
ROOT
HETATM    1  N   UNL     1      -9.598   1.828  74.291  1.00  0.00    -0.071 NA 
HETATM    2  C   UNL     1      -9.611   2.813  73.676  1.00  0.00    -0.090 C  
HETATM    3  C   UNL     1      -9.627   4.017  72.895  1.00  0.00    -0.169 A  
HETATM    4  C   UNL     1     -10.835   4.665  72.625  1.00  0.00    -0.221 A  
HETATM    5  C   UNL     1     -10.856   5.790  71.791  1.00  0.00    -0.311 A  
HETATM    6  C   UNL     1      -9.673   6.286  71.207  1.00  0.00    -0.193 A  
HETATM    7  C   UNL     1      -8.437   4.539  72.378  1.00  0.00    -0.110 A  
HETATM    8  C   UNL     1      -8.457   5.678  71.560  1.00  0.00    -0.128 A  
ENDROOT
BRANCH   6   9
HETATM    9  C   UNL     1      -9.764   7.457  70.220  1.00  0.00    -0.172 C  
BRANCH   9  10
HETATM   10  N   UNL     1      -9.954   6.933  68.860  1.00  0.00    -0.154 NA 
HETATM   11  N   UNL     1     -11.172   6.502  68.453  1.00  0.00    -0.251 NA 
HETATM   12  C   UNL     1     -10.903   6.061  67.223  1.00  0.00    -0.315 A  
HETATM   13  C   UNL     1      -9.030   6.745  67.875  1.00  0.00    -0.113 A  
HETATM   14  N   UNL     1      -9.598   6.176  66.837  1.00  0.00    -0.137 NA 
ENDBRANCH   9  10
BRANCH   9  15
HETATM   15  C   UNL     1     -10.706   8.625  70.586  1.00  0.00    -0.259 A  
HETATM   16  C   UNL     1     -12.337  10.815  71.385  1.00  0.00    -0.433 A  
HETATM   17  C   UNL     1     -11.618   8.512  71.655  1.00  0.00    -0.364 A  
HETATM   18  C   UNL     1     -13.156  11.918  71.786  1.00  0.00    -0.360 C  
HETATM   19  C   UNL     1     -11.412  10.963  70.351  1.00  0.00    -0.367 A  
HETATM   20  C   UNL     1     -12.432   9.584  72.041  1.00  0.00    -0.427 A  
HETATM   21  C   UNL     1     -10.599   9.890  69.970  1.00  0.00    -0.335 A  
HETATM   22  N   UNL     1     -13.818  12.817  72.109  1.00  0.00    -0.350 NA 
ENDBRANCH   9  15
ENDBRANCH   6   9
TORSDOF 3
ENDMDL
MODEL       97
REMARK 921   NORMALIZED FREE ENERGY PREDICTED BY IDOCK:   -3.99 KCAL/MOL
REMARK 922        TOTAL FREE ENERGY PREDICTED BY IDOCK:   -5.39 KCAL/MOL
REMARK 923 INTER-LIGAND FREE ENERGY PREDICTED BY IDOCK:   -4.90 KCAL/MOL
REMARK 924 INTRA-LIGAND FREE ENERGY PREDICTED BY IDOCK:   -0.49 KCAL/MOL
REMARK 927      BINDING AFFINITY PREDICTED BY RF-SCORE:    0.00 PKD
ROOT
HETATM    1  N   UNL     1      -9.329   2.302  64.973  1.00  0.00    -0.117 NA 
HETATM    2  C   UNL     1      -9.362   3.377  65.410  1.00  0.00    -0.153 C  
HETATM    3  C   UNL     1      -9.405   4.697  65.973  1.00  0.00    -0.156 A  
HETATM    4  C   UNL     1      -8.222   5.407  66.192  1.00  0.00    -0.111 A  
HETATM    5  C   UNL     1      -8.260   6.657  66.822  1.00  0.00    -0.114 A  
HETATM    6  C   UNL     1      -9.480   7.219  67.249  1.00  0.00    -0.169 A  
HETATM    7  C   UNL     1     -10.627   5.273  66.331  1.00  0.00    -0.338 A  
HETATM    8  C   UNL     1     -10.667   6.534  66.942  1.00  0.00    -0.403 A  
ENDROOT
BRANCH   6   9
HETATM    9  C   UNL     1      -9.458   8.543  68.026  1.00  0.00    -0.140 C  
BRANCH   9  10
HETATM   10  N   UNL     1      -9.493   9.664  67.076  1.00  0.00    -0.150 NA 
HETATM   11  N   UNL     1      -8.730  10.764  67.283  1.00  0.00    -0.130 NA 
HETATM   12  C   UNL     1      -9.098  11.540  66.261  1.00  0.00    -0.208 A  
HETATM   13  C   UNL     1     -10.261   9.820  65.959  1.00  0.00    -0.193 A  
HETATM   14  N   UNL     1     -10.046  11.006  65.438  1.00  0.00    -0.255 NA 
ENDBRANCH   9  10
BRANCH   9  15
HETATM   15  C   UNL     1     -10.436   8.687  69.213  1.00  0.00    -0.226 A  
HETATM   16  C   UNL     1     -12.361   8.915  71.295  1.00  0.00    -0.342 A  
HETATM   17  C   UNL     1     -11.215   9.852  69.372  1.00  0.00    -0.196 A  
HETATM   18  C   UNL     1     -13.329   9.027  72.343  1.00  0.00    -0.460 C  
HETATM   19  C   UNL     1     -11.631   7.736  71.132  1.00  0.00    -0.301 A  
HETATM   20  C   UNL     1     -12.153   9.972  70.405  1.00  0.00    -0.284 A  
HETATM   21  C   UNL     1     -10.697   7.620  70.098  1.00  0.00    -0.245 A  
HETATM   22  N   UNL     1     -14.115   9.113  73.195  1.00  0.00    -0.208 NA 
ENDBRANCH   9  15
ENDBRANCH   6   9
TORSDOF 3
ENDMDL
MODEL       98
REMARK 921   NORMALIZED FREE ENERGY PREDICTED BY IDOCK:   -3.94 KCAL/MOL
REMARK 922        TOTAL FREE ENERGY PREDICTED BY IDOCK:   -5.32 KCAL/MOL
REMARK 923 INTER-LIGAND FREE ENERGY PREDICTED BY IDOCK:   -5.57 KCAL/MOL
REMARK 924 INTRA-LIGAND FREE ENERGY PREDICTED BY IDOCK:    0.25 KCAL/MOL
REMARK 927      BINDING AFFINITY PREDICTED BY RF-SCORE:    0.00 PKD
ROOT
HETATM    1  N   UNL     1     -11.055   4.220  73.252  1.00  0.00    -0.250 NA 
HETATM    2  C   UNL     1     -11.012   5.214  72.654  1.00  0.00    -0.243 C  
HETATM    3  C   UNL     1     -10.984   6.447  71.919  1.00  0.00    -0.295 A  
HETATM    4  C   UNL     1     -10.632   7.639  72.556  1.00  0.00    -0.336 A  
HETATM    5  C   UNL     1     -10.689   8.851  71.857  1.00  0.00    -0.426 A  
HETATM    6  C   UNL     1     -11.104   8.897  70.511  1.00  0.00    -0.288 A  
HETATM    7  C   UNL     1     -11.332   6.469  70.564  1.00  0.00    -0.426 A  
HETATM    8  C   UNL     1     -11.369   7.681  69.859  1.00  0.00    -0.017 A  
ENDROOT
BRANCH   6   9
HETATM    9  C   UNL     1     -11.249  10.261  69.822  1.00  0.00    -0.282 C  
BRANCH   9  10
HETATM   10  N   UNL     1     -12.070  11.145  70.661  1.00  0.00    -0.364 NA 
HETATM   11  N   UNL     1     -12.862  10.631  71.632  1.00  0.00    -0.448 NA 
HETATM   12  C   UNL     1     -13.464  11.729  72.095  1.00  0.00    -0.168 A  
HETATM   13  C   UNL     1     -12.219  12.499  70.592  1.00  0.00    -0.276 A  
HETATM   14  N   UNL     1     -13.110  12.891  71.473  1.00  0.00    -0.351 NA 
ENDBRANCH   9  10
BRANCH   9  15
HETATM   15  C   UNL     1      -9.966  10.920  69.273  1.00  0.00    -0.137 A  
HETATM   16  C   UNL     1      -7.603  12.024  68.136  1.00  0.00    -0.120 A  
HETATM   17  C   UNL     1      -8.701  10.336  69.491  1.00  0.00    -0.155 A  
HETATM   18  C   UNL     1      -6.415  12.581  67.564  1.00  0.00    -0.153 C  
HETATM   19  C   UNL     1      -8.848  12.596  67.873  1.00  0.00    -0.182 A  
HETATM   20  C   UNL     1      -7.535  10.886  68.944  1.00  0.00    -0.116 A  
HETATM   21  C   UNL     1     -10.011  12.042  68.419  1.00  0.00    -0.209 A  
HETATM   22  N   UNL     1      -5.454  13.036  67.095  1.00  0.00    -0.326 NA 
ENDBRANCH   9  15
ENDBRANCH   6   9
TORSDOF 3
ENDMDL
MODEL       99
REMARK 921   NORMALIZED FREE ENERGY PREDICTED BY IDOCK:   -3.91 KCAL/MOL
REMARK 922        TOTAL FREE ENERGY PREDICTED BY IDOCK:   -5.29 KCAL/MOL
REMARK 923 INTER-LIGAND FREE ENERGY PREDICTED BY IDOCK:   -5.05 KCAL/MOL
REMARK 924 INTRA-LIGAND FREE ENERGY PREDICTED BY IDOCK:   -0.24 KCAL/MOL
REMARK 927      BINDING AFFINITY PREDICTED BY RF-SCORE:    0.00 PKD
ROOT
HETATM    1  N   UNL     1     -10.832   5.480  73.236  1.00  0.00    -0.274 NA 
HETATM    2  C   UNL     1     -10.712   6.039  72.226  1.00  0.00    -0.230 C  
HETATM    3  C   UNL     1     -10.587   6.741  70.980  1.00  0.00    -0.252 A  
HETATM    4  C   UNL     1      -9.875   7.940  70.916  1.00  0.00    -0.192 A  
HETATM    5  C   UNL     1      -9.828   8.666  69.719  1.00  0.00    -0.183 A  
HETATM    6  C   UNL     1     -10.496   8.210  68.565  1.00  0.00    -0.199 A  
HETATM    7  C   UNL     1     -11.197   6.243  69.824  1.00  0.00    -0.499 A  
HETATM    8  C   UNL     1     -11.133   6.959  68.620  1.00  0.00    -0.152 A  
ENDROOT
BRANCH   6   9
HETATM    9  C   UNL     1     -10.501   9.092  67.309  1.00  0.00    -0.265 C  
BRANCH   9  10
HETATM   10  N   UNL     1     -10.681  10.497  67.702  1.00  0.00    -0.254 NA 
HETATM   11  N   UNL     1     -11.923  11.007  67.879  1.00  0.00    -0.580 NA 
HETATM   12  C   UNL     1     -11.651  12.284  68.156  1.00  0.00    -0.339 A  
HETATM   13  C   UNL     1      -9.738  11.465  67.886  1.00  0.00    -0.180 A  
HETATM   14  N   UNL     1     -10.325  12.609  68.152  1.00  0.00    -0.227 NA 
ENDBRANCH   9  10
BRANCH   9  15
HETATM   15  C   UNL     1      -9.377   8.863  66.275  1.00  0.00    -0.279 A  
HETATM   16  C   UNL     1      -7.418   8.364  64.273  1.00  0.00    -0.109 A  
HETATM   17  C   UNL     1      -8.731   7.614  66.172  1.00  0.00    -0.176 A  
HETATM   18  C   UNL     1      -6.433   8.114  63.265  1.00  0.00    -0.080 C  
HETATM   19  C   UNL     1      -8.074   9.594  64.329  1.00  0.00    -0.146 A  
HETATM   20  C   UNL     1      -7.756   7.371  65.196  1.00  0.00    -0.112 A  
HETATM   21  C   UNL     1      -9.049   9.833  65.303  1.00  0.00    -0.259 A  
HETATM   22  N   UNL     1      -5.635   7.916  62.443  1.00  0.00    -0.063 NA 
ENDBRANCH   9  15
ENDBRANCH   6   9
TORSDOF 3
ENDMDL
MODEL      100
REMARK 921   NORMALIZED FREE ENERGY PREDICTED BY IDOCK:   -3.91 KCAL/MOL
REMARK 922        TOTAL FREE ENERGY PREDICTED BY IDOCK:   -5.29 KCAL/MOL
REMARK 923 INTER-LIGAND FREE ENERGY PREDICTED BY IDOCK:   -4.75 KCAL/MOL
REMARK 924 INTRA-LIGAND FREE ENERGY PREDICTED BY IDOCK:   -0.53 KCAL/MOL
REMARK 927      BINDING AFFINITY PREDICTED BY RF-SCORE:    0.00 PKD
ROOT
HETATM    1  N   UNL     1     -11.103   7.058  66.835  1.00  0.00    -0.258 NA 
HETATM    2  C   UNL     1     -10.778   8.147  67.072  1.00  0.00    -0.177 C  
HETATM    3  C   UNL     1     -10.357   9.485  67.380  1.00  0.00    -0.319 A  
HETATM    4  C   UNL     1      -9.546  10.190  66.488  1.00  0.00    -0.236 A  
HETATM    5  C   UNL     1      -9.066  11.461  66.830  1.00  0.00    -0.181 A  
HETATM    6  C   UNL     1      -9.383  12.048  68.071  1.00  0.00    -0.196 A  
HETATM    7  C   UNL     1     -10.734  10.084  68.585  1.00  0.00    -0.256 A  
HETATM    8  C   UNL     1     -10.271  11.365  68.918  1.00  0.00    -0.184 A  
ENDROOT
BRANCH   6   9
HETATM    9  C   UNL     1      -8.749  13.396  68.440  1.00  0.00    -0.134 C  
BRANCH   9  10
HETATM   10  N   UNL     1      -7.285  13.280  68.372  1.00  0.00    -0.101 NA 
HETATM   11  N   UNL     1      -6.627  12.406  69.170  1.00  0.00    -0.098 NA 
HETATM   12  C   UNL     1      -5.356  12.657  68.850  1.00  0.00    -0.066 A  
HETATM   13  C   UNL     1      -6.402  13.994  67.617  1.00  0.00    -0.118 A  
HETATM   14  N   UNL     1      -5.174  13.635  67.915  1.00  0.00    -0.197 NA 
ENDBRANCH   9  10
BRANCH   9  15
HETATM   15  C   UNL     1      -9.316  14.660  67.759  1.00  0.00    -0.197 A  
HETATM   16  C   UNL     1     -10.206  17.029  66.457  1.00  0.00    -0.321 A  
HETATM   17  C   UNL     1      -9.228  15.922  68.383  1.00  0.00    -0.197 A  
HETATM   18  C   UNL     1     -10.654  18.219  65.801  1.00  0.00    -0.186 C  
HETATM   19  C   UNL     1     -10.265  15.797  65.803  1.00  0.00    -0.394 A  
HETATM   20  C   UNL     1      -9.679  17.087  67.750  1.00  0.00    -0.258 A  
HETATM   21  C   UNL     1      -9.812  14.636  66.438  1.00  0.00    -0.302 A  
HETATM   22  N   UNL     1     -11.018  19.183  65.263  1.00  0.00    -0.379 NA 
ENDBRANCH   9  15
ENDBRANCH   6   9
TORSDOF 3
ENDMDL
MODEL      101
REMARK 921   NORMALIZED FREE ENERGY PREDICTED BY IDOCK:   -3.89 KCAL/MOL
REMARK 922        TOTAL FREE ENERGY PREDICTED BY IDOCK:   -5.27 KCAL/MOL
REMARK 923 INTER-LIGAND FREE ENERGY PREDICTED BY IDOCK:   -4.63 KCAL/MOL
REMARK 924 INTRA-LIGAND FREE ENERGY PREDICTED BY IDOCK:   -0.63 KCAL/MOL
REMARK 927      BINDING AFFINITY PREDICTED BY RF-SCORE:    0.00 PKD
ROOT
HETATM    1  N   UNL     1     -12.482  15.257  69.104  1.00  0.00    -0.031 NA 
HETATM    2  C   UNL     1     -11.995  14.205  69.068  1.00  0.00    -0.340 C  
HETATM    3  C   UNL     1     -11.373  12.911  69.037  1.00  0.00    -0.341 A  
HETATM    4  C   UNL     1     -11.755  11.924  69.948  1.00  0.00    -0.383 A  
HETATM    5  C   UNL     1     -11.085  10.694  69.972  1.00  0.00    -0.359 A  
HETATM    6  C   UNL     1     -10.019  10.428  69.090  1.00  0.00    -0.237 A  
HETATM    7  C   UNL     1     -10.362  12.635  68.110  1.00  0.00    -0.238 A  
HETATM    8  C   UNL     1      -9.707  11.396  68.120  1.00  0.00    -0.194 A  
ENDROOT
BRANCH   6   9
HETATM    9  C   UNL     1      -9.252   9.106  69.225  1.00  0.00    -0.146 C  
BRANCH   9  10
HETATM   10  N   UNL     1      -7.821   9.390  69.401  1.00  0.00    -0.082 NA 
HETATM   11  N   UNL     1      -7.410  10.324  70.291  1.00  0.00    -0.240 NA 
HETATM   12  C   UNL     1      -6.089  10.316  70.096  1.00  0.00    -0.088 A  
HETATM   13  C   UNL     1      -6.753   8.867  68.732  1.00  0.00    -0.054 A  
HETATM   14  N   UNL     1      -5.649   9.450  69.137  1.00  0.00    -0.036 NA 
ENDBRANCH   9  10
BRANCH   9  15
HETATM   15  C   UNL     1      -9.815   8.054  70.206  1.00  0.00    -0.184 A  
HETATM   16  C   UNL     1     -10.738   6.008  71.954  1.00  0.00    -0.282 A  
HETATM   17  C   UNL     1     -10.703   7.053  69.763  1.00  0.00    -0.265 A  
HETATM   18  C   UNL     1     -11.202   4.980  72.835  1.00  0.00    -0.271 C  
HETATM   19  C   UNL     1      -9.827   6.965  72.404  1.00  0.00    -0.172 A  
HETATM   20  C   UNL     1     -11.170   6.053  70.626  1.00  0.00    -0.347 A  
HETATM   21  C   UNL     1      -9.361   7.960  71.539  1.00  0.00    -0.179 A  
HETATM   22  N   UNL     1     -11.574   4.146  73.554  1.00  0.00    -0.161 NA 
ENDBRANCH   9  15
ENDBRANCH   6   9
TORSDOF 3
ENDMDL
MODEL      102
REMARK 921   NORMALIZED FREE ENERGY PREDICTED BY IDOCK:   -3.83 KCAL/MOL
REMARK 922        TOTAL FREE ENERGY PREDICTED BY IDOCK:   -5.19 KCAL/MOL
REMARK 923 INTER-LIGAND FREE ENERGY PREDICTED BY IDOCK:   -4.77 KCAL/MOL
REMARK 924 INTRA-LIGAND FREE ENERGY PREDICTED BY IDOCK:   -0.42 KCAL/MOL
REMARK 927      BINDING AFFINITY PREDICTED BY RF-SCORE:    0.00 PKD
ROOT
HETATM    1  N   UNL     1     -11.919   6.752  71.016  1.00  0.00    -0.370 NA 
HETATM    2  C   UNL     1     -11.277   7.496  70.399  1.00  0.00    -0.253 C  
HETATM    3  C   UNL     1     -10.498   8.414  69.616  1.00  0.00    -0.221 A  
HETATM    4  C   UNL     1     -10.659   9.792  69.781  1.00  0.00    -0.285 A  
HETATM    5  C   UNL     1      -9.962  10.683  68.956  1.00  0.00    -0.226 A  
HETATM    6  C   UNL     1      -9.095  10.216  67.948  1.00  0.00    -0.133 A  
HETATM    7  C   UNL     1      -9.589   7.938  68.666  1.00  0.00    -0.155 A  
HETATM    8  C   UNL     1      -8.876   8.831  67.854  1.00  0.00    -0.136 A  
ENDROOT
BRANCH   6   9
HETATM    9  C   UNL     1      -8.435  11.230  67.004  1.00  0.00    -0.150 C  
BRANCH   9  10
HETATM   10  N   UNL     1      -8.406  10.679  65.642  1.00  0.00    -0.164 NA 
HETATM   11  N   UNL     1      -9.559  10.378  64.998  1.00  0.00    -0.254 NA 
HETATM   12  C   UNL     1      -9.099   9.860  63.856  1.00  0.00    -0.259 A  
HETATM   13  C   UNL     1      -7.330  10.347  64.872  1.00  0.00    -0.059 A  
HETATM   14  N   UNL     1      -7.740   9.808  63.748  1.00  0.00    -0.129 NA 
ENDBRANCH   9  10
BRANCH   9  15
HETATM   15  C   UNL     1      -8.917  12.695  67.084  1.00  0.00    -0.205 A  
HETATM   16  C   UNL     1      -9.898  15.351  67.364  1.00  0.00    -0.216 A  
HETATM   17  C   UNL     1     -10.176  13.073  66.575  1.00  0.00    -0.270 A  
HETATM   18  C   UNL     1     -10.389  16.688  67.506  1.00  0.00    -0.294 C  
HETATM   19  C   UNL     1      -8.666  14.991  67.913  1.00  0.00    -0.155 A  
HETATM   20  C   UNL     1     -10.655  14.383  66.699  1.00  0.00    -0.282 A  
HETATM   21  C   UNL     1      -8.193  13.680  67.789  1.00  0.00    -0.179 A  
HETATM   22  N   UNL     1     -10.785  17.774  67.625  1.00  0.00    -0.371 NA 
ENDBRANCH   9  15
ENDBRANCH   6   9
TORSDOF 3
ENDMDL
MODEL      103
REMARK 921   NORMALIZED FREE ENERGY PREDICTED BY IDOCK:   -3.82 KCAL/MOL
REMARK 922        TOTAL FREE ENERGY PREDICTED BY IDOCK:   -5.18 KCAL/MOL
REMARK 923 INTER-LIGAND FREE ENERGY PREDICTED BY IDOCK:   -5.20 KCAL/MOL
REMARK 924 INTRA-LIGAND FREE ENERGY PREDICTED BY IDOCK:    0.02 KCAL/MOL
REMARK 927      BINDING AFFINITY PREDICTED BY RF-SCORE:    0.00 PKD
ROOT
HETATM    1  N   UNL     1      -6.049  19.448  65.649  1.00  0.00    -0.187 NA 
HETATM    2  C   UNL     1      -6.792  18.588  65.885  1.00  0.00    -0.283 C  
HETATM    3  C   UNL     1      -7.709  17.517  66.153  1.00  0.00    -0.304 A  
HETATM    4  C   UNL     1      -7.251  16.319  66.708  1.00  0.00    -0.221 A  
HETATM    5  C   UNL     1      -8.132  15.246  66.887  1.00  0.00    -0.224 A  
HETATM    6  C   UNL     1      -9.486  15.346  66.511  1.00  0.00    -0.298 A  
HETATM    7  C   UNL     1      -9.065  17.652  65.840  1.00  0.00     0.087 A  
HETATM    8  C   UNL     1      -9.952  16.585  66.039  1.00  0.00    -0.359 A  
ENDROOT
BRANCH   6   9
HETATM    9  C   UNL     1     -10.386  14.109  66.632  1.00  0.00    -0.277 C  
BRANCH   9  10
HETATM   10  N   UNL     1     -11.054  13.866  65.346  1.00  0.00    -0.302 NA 
HETATM   11  N   UNL     1     -10.449  13.127  64.386  1.00  0.00    -0.411 NA 
HETATM   12  C   UNL     1     -11.335  13.205  63.390  1.00  0.00    -0.042 A  
HETATM   13  C   UNL     1     -12.255  14.335  64.899  1.00  0.00    -0.440 A  
HETATM   14  N   UNL     1     -12.446  13.949  63.659  1.00  0.00    -0.805 NA 
ENDBRANCH   9  10
BRANCH   9  15
HETATM   15  C   UNL     1      -9.776  12.845  67.278  1.00  0.00    -0.220 A  
HETATM   16  C   UNL     1      -8.553  10.618  68.557  1.00  0.00    -0.137 A  
HETATM   17  C   UNL     1      -8.529  12.344  66.851  1.00  0.00    -0.147 A  
HETATM   18  C   UNL     1      -7.940   9.497  69.202  1.00  0.00    -0.094 C  
HETATM   19  C   UNL     1      -9.768  11.122  69.023  1.00  0.00    -0.113 A  
HETATM   20  C   UNL     1      -7.932  11.239  67.470  1.00  0.00    -0.124 A  
HETATM   21  C   UNL     1     -10.360  12.227  68.404  1.00  0.00    -0.231 A  
HETATM   22  N   UNL     1      -7.445   8.588  69.730  1.00  0.00    -0.069 NA 
ENDBRANCH   9  15
ENDBRANCH   6   9
TORSDOF 3
ENDMDL
MODEL      104
REMARK 921   NORMALIZED FREE ENERGY PREDICTED BY IDOCK:   -3.80 KCAL/MOL
REMARK 922        TOTAL FREE ENERGY PREDICTED BY IDOCK:   -5.16 KCAL/MOL
REMARK 923 INTER-LIGAND FREE ENERGY PREDICTED BY IDOCK:   -5.87 KCAL/MOL
REMARK 924 INTRA-LIGAND FREE ENERGY PREDICTED BY IDOCK:    0.71 KCAL/MOL
REMARK 927      BINDING AFFINITY PREDICTED BY RF-SCORE:    0.00 PKD
ROOT
HETATM    1  N   UNL     1     -14.408   8.289  72.986  1.00  0.00    -0.042 NA 
HETATM    2  C   UNL     1     -13.593   8.717  72.279  1.00  0.00    -0.430 C  
HETATM    3  C   UNL     1     -12.596   9.235  71.386  1.00  0.00    -0.411 A  
HETATM    4  C   UNL     1     -12.749  10.501  70.816  1.00  0.00    -0.471 A  
HETATM    5  C   UNL     1     -11.819  10.966  69.879  1.00  0.00    -0.427 A  
HETATM    6  C   UNL     1     -10.721  10.175  69.488  1.00  0.00    -0.277 A  
HETATM    7  C   UNL     1     -11.474   8.467  71.058  1.00  0.00    -0.313 A  
HETATM    8  C   UNL     1     -10.531   8.942  70.136  1.00  0.00    -0.236 A  
ENDROOT
BRANCH   6   9
HETATM    9  C   UNL     1      -9.788  10.687  68.382  1.00  0.00    -0.161 C  
BRANCH   9  10
HETATM   10  N   UNL     1      -8.762   9.673  68.103  1.00  0.00    -0.120 NA 
HETATM   11  N   UNL     1      -8.915   8.808  67.072  1.00  0.00    -0.130 NA 
HETATM   12  C   UNL     1      -7.830   8.040  67.205  1.00  0.00    -0.109 A  
HETATM   13  C   UNL     1      -7.615   9.400  68.788  1.00  0.00    -0.079 A  
HETATM   14  N   UNL     1      -7.018   8.359  68.254  1.00  0.00    -0.072 NA 
ENDBRANCH   9  10
BRANCH   9  15
HETATM   15  C   UNL     1     -10.445  11.289  67.121  1.00  0.00    -0.259 A  
HETATM   16  C   UNL     1     -11.536  12.517  64.798  1.00  0.00    -0.369 A  
HETATM   17  C   UNL     1     -11.285  12.419  67.210  1.00  0.00    -0.357 A  
HETATM   18  C   UNL     1     -12.084  13.133  63.628  1.00  0.00    -0.513 C  
HETATM   19  C   UNL     1     -10.674  11.426  64.682  1.00  0.00    -0.378 A  
HETATM   20  C   UNL     1     -11.834  13.016  66.069  1.00  0.00    -0.471 A  
HETATM   21  C   UNL     1     -10.125  10.834  65.824  1.00  0.00    -0.320 A  
HETATM   22  N   UNL     1     -12.525  13.631  62.675  1.00  0.00     0.071 NA 
ENDBRANCH   9  15
ENDBRANCH   6   9
TORSDOF 3
ENDMDL
MODEL      105
REMARK 921   NORMALIZED FREE ENERGY PREDICTED BY IDOCK:   -3.79 KCAL/MOL
REMARK 922        TOTAL FREE ENERGY PREDICTED BY IDOCK:   -5.15 KCAL/MOL
REMARK 923 INTER-LIGAND FREE ENERGY PREDICTED BY IDOCK:   -4.55 KCAL/MOL
REMARK 924 INTRA-LIGAND FREE ENERGY PREDICTED BY IDOCK:   -0.61 KCAL/MOL
REMARK 927      BINDING AFFINITY PREDICTED BY RF-SCORE:    0.00 PKD
ROOT
HETATM    1  N   UNL     1     -11.682  16.754  64.084  1.00  0.00    -0.931 NA 
HETATM    2  C   UNL     1     -11.364  15.908  64.813  1.00  0.00    -0.309 C  
HETATM    3  C   UNL     1     -10.977  14.878  65.735  1.00  0.00    -0.345 A  
HETATM    4  C   UNL     1     -11.854  13.832  66.030  1.00  0.00    -0.415 A  
HETATM    5  C   UNL     1     -11.509  12.877  66.994  1.00  0.00    -0.390 A  
HETATM    6  C   UNL     1     -10.282  12.951  67.685  1.00  0.00    -0.220 A  
HETATM    7  C   UNL     1      -9.728  14.924  66.363  1.00  0.00    -0.306 A  
HETATM    8  C   UNL     1      -9.373  13.955  67.312  1.00  0.00    -0.231 A  
ENDROOT
BRANCH   6   9
HETATM    9  C   UNL     1      -9.995  11.940  68.804  1.00  0.00    -0.092 C  
BRANCH   9  10
HETATM   10  N   UNL     1     -11.256  11.578  69.467  1.00  0.00    -0.253 NA 
HETATM   11  N   UNL     1     -11.682  12.264  70.553  1.00  0.00    -0.070 NA 
HETATM   12  C   UNL     1     -12.792  11.594  70.874  1.00  0.00    -0.173 A  
HETATM   13  C   UNL     1     -12.113  10.556  69.182  1.00  0.00     0.013 A  
HETATM   14  N   UNL     1     -13.081  10.531  70.068  1.00  0.00     0.009 NA 
ENDBRANCH   9  10
BRANCH   9  15
HETATM   15  C   UNL     1      -9.091  10.736  68.460  1.00  0.00    -0.170 A  
HETATM   16  C   UNL     1      -7.312   8.626  67.770  1.00  0.00    -0.092 A  
HETATM   17  C   UNL     1      -8.994  10.258  67.137  1.00  0.00    -0.145 A  
HETATM   18  C   UNL     1      -6.416   7.564  67.426  1.00  0.00    -0.058 C  
HETATM   19  C   UNL     1      -7.361   9.110  69.078  1.00  0.00    -0.073 A  
HETATM   20  C   UNL     1      -8.129   9.210  66.798  1.00  0.00    -0.111 A  
HETATM   21  C   UNL     1      -8.225  10.159  69.412  1.00  0.00    -0.171 A  
HETATM   22  N   UNL     1      -5.686   6.703  67.150  1.00  0.00    -0.013 NA 
ENDBRANCH   9  15
ENDBRANCH   6   9
TORSDOF 3
ENDMDL
MODEL      106
REMARK 921   NORMALIZED FREE ENERGY PREDICTED BY IDOCK:   -3.76 KCAL/MOL
REMARK 922        TOTAL FREE ENERGY PREDICTED BY IDOCK:   -5.12 KCAL/MOL
REMARK 923 INTER-LIGAND FREE ENERGY PREDICTED BY IDOCK:   -4.84 KCAL/MOL
REMARK 924 INTRA-LIGAND FREE ENERGY PREDICTED BY IDOCK:   -0.28 KCAL/MOL
REMARK 927      BINDING AFFINITY PREDICTED BY RF-SCORE:    0.00 PKD
ROOT
HETATM    1  N   UNL     1     -10.843  19.287  66.039  1.00  0.00    -0.351 NA 
HETATM    2  C   UNL     1     -10.257  18.357  66.412  1.00  0.00    -0.410 C  
HETATM    3  C   UNL     1      -9.544  17.192  66.855  1.00  0.00    -0.268 A  
HETATM    4  C   UNL     1      -8.234  16.964  66.428  1.00  0.00    -0.342 A  
HETATM    5  C   UNL     1      -7.573  15.784  66.792  1.00  0.00    -0.177 A  
HETATM    6  C   UNL     1      -8.209  14.808  67.585  1.00  0.00    -0.187 A  
HETATM    7  C   UNL     1     -10.162  16.264  67.698  1.00  0.00    -0.272 A  
HETATM    8  C   UNL     1      -9.492  15.093  68.080  1.00  0.00    -0.201 A  
ENDROOT
BRANCH   6   9
HETATM    9  C   UNL     1      -7.479  13.489  67.870  1.00  0.00    -0.153 C  
BRANCH   9  10
HETATM   10  N   UNL     1      -6.822  13.570  69.182  1.00  0.00    -0.104 NA 
HETATM   11  N   UNL     1      -6.699  14.760  69.816  1.00  0.00    -0.166 NA 
HETATM   12  C   UNL     1      -6.009  14.412  70.905  1.00  0.00    -0.185 A  
HETATM   13  C   UNL     1      -6.224  12.580  69.905  1.00  0.00    -0.094 A  
HETATM   14  N   UNL     1      -5.684  13.089  70.988  1.00  0.00    -0.294 NA 
ENDBRANCH   9  10
BRANCH   9  15
HETATM   15  C   UNL     1      -8.261  12.178  67.633  1.00  0.00    -0.163 A  
HETATM   16  C   UNL     1      -9.600   9.689  67.307  1.00  0.00    -0.203 A  
HETATM   17  C   UNL     1      -7.745  11.168  66.794  1.00  0.00    -0.153 A  
HETATM   18  C   UNL     1     -10.275   8.437  67.144  1.00  0.00    -0.292 C  
HETATM   19  C   UNL     1     -10.108  10.657  68.174  1.00  0.00    -0.179 A  
HETATM   20  C   UNL     1      -8.410   9.948  66.621  1.00  0.00    -0.125 A  
HETATM   21  C   UNL     1      -9.439  11.873  68.346  1.00  0.00    -0.189 A  
HETATM   22  N   UNL     1     -10.826   7.422  67.016  1.00  0.00    -0.332 NA 
ENDBRANCH   9  15
ENDBRANCH   6   9
TORSDOF 3
ENDMDL
MODEL      107
REMARK 921   NORMALIZED FREE ENERGY PREDICTED BY IDOCK:   -3.76 KCAL/MOL
REMARK 922        TOTAL FREE ENERGY PREDICTED BY IDOCK:   -5.11 KCAL/MOL
REMARK 923 INTER-LIGAND FREE ENERGY PREDICTED BY IDOCK:   -4.70 KCAL/MOL
REMARK 924 INTRA-LIGAND FREE ENERGY PREDICTED BY IDOCK:   -0.41 KCAL/MOL
REMARK 927      BINDING AFFINITY PREDICTED BY RF-SCORE:    0.00 PKD
ROOT
HETATM    1  N   UNL     1      -6.398   4.319  66.494  1.00  0.00    -0.036 NA 
HETATM    2  C   UNL     1      -6.843   5.389  66.425  1.00  0.00    -0.059 C  
HETATM    3  C   UNL     1      -7.402   6.710  66.362  1.00  0.00    -0.073 A  
HETATM    4  C   UNL     1      -6.598   7.827  66.599  1.00  0.00    -0.054 A  
HETATM    5  C   UNL     1      -7.164   9.107  66.623  1.00  0.00    -0.085 A  
HETATM    6  C   UNL     1      -8.545   9.296  66.416  1.00  0.00    -0.141 A  
HETATM    7  C   UNL     1      -8.761   6.889  66.086  1.00  0.00    -0.153 A  
HETATM    8  C   UNL     1      -9.324   8.173  66.090  1.00  0.00    -0.232 A  
ENDROOT
BRANCH   6   9
HETATM    9  C   UNL     1      -9.134  10.707  66.554  1.00  0.00    -0.162 C  
BRANCH   9  10
HETATM   10  N   UNL     1      -9.636  11.154  65.247  1.00  0.00    -0.221 NA 
HETATM   11  N   UNL     1     -10.940  11.484  65.089  1.00  0.00    -0.267 NA 
HETATM   12  C   UNL     1     -10.989  11.762  63.784  1.00  0.00    -0.429 A  
HETATM   13  C   UNL     1      -8.972  11.256  64.061  1.00  0.00     0.108 A  
HETATM   14  N   UNL     1      -9.808  11.617  63.115  1.00  0.00    -0.409 NA 
ENDBRANCH   9  10
BRANCH   9  15
HETATM   15  C   UNL     1     -10.106  10.960  67.727  1.00  0.00    -0.203 A  
HETATM   16  C   UNL     1     -11.764  11.424  69.992  1.00  0.00    -0.416 A  
HETATM   17  C   UNL     1     -10.520   9.904  68.565  1.00  0.00    -0.232 A  
HETATM   18  C   UNL     1     -12.598  11.660  71.130  1.00  0.00    -0.335 C  
HETATM   19  C   UNL     1     -11.333  12.490  69.201  1.00  0.00    -0.331 A  
HETATM   20  C   UNL     1     -11.348  10.129  69.672  1.00  0.00    -0.289 A  
HETATM   21  C   UNL     1     -10.504  12.262  68.097  1.00  0.00    -0.228 A  
HETATM   22  N   UNL     1     -13.275  11.857  72.055  1.00  0.00    -0.456 NA 
ENDBRANCH   9  15
ENDBRANCH   6   9
TORSDOF 3
ENDMDL
MODEL      108
REMARK 921   NORMALIZED FREE ENERGY PREDICTED BY IDOCK:   -3.75 KCAL/MOL
REMARK 922        TOTAL FREE ENERGY PREDICTED BY IDOCK:   -5.10 KCAL/MOL
REMARK 923 INTER-LIGAND FREE ENERGY PREDICTED BY IDOCK:   -4.40 KCAL/MOL
REMARK 924 INTRA-LIGAND FREE ENERGY PREDICTED BY IDOCK:   -0.70 KCAL/MOL
REMARK 927      BINDING AFFINITY PREDICTED BY RF-SCORE:    0.00 PKD
ROOT
HETATM    1  N   UNL     1      -6.186   8.365  63.270  1.00  0.00    -0.081 NA 
HETATM    2  C   UNL     1      -6.814   9.047  63.969  1.00  0.00    -0.088 C  
HETATM    3  C   UNL     1      -7.584   9.910  64.818  1.00  0.00    -0.139 A  
HETATM    4  C   UNL     1      -8.968  10.006  64.656  1.00  0.00    -0.249 A  
HETATM    5  C   UNL     1      -9.704  10.914  65.427  1.00  0.00    -0.287 A  
HETATM    6  C   UNL     1      -9.072  11.746  66.372  1.00  0.00    -0.215 A  
HETATM    7  C   UNL     1      -6.954  10.682  65.800  1.00  0.00    -0.094 A  
HETATM    8  C   UNL     1      -7.694  11.575  66.587  1.00  0.00    -0.101 A  
ENDROOT
BRANCH   6   9
HETATM    9  C   UNL     1      -9.908  12.795  67.118  1.00  0.00    -0.216 C  
BRANCH   9  10
HETATM   10  N   UNL     1     -10.638  12.145  68.215  1.00  0.00    -0.210 NA 
HETATM   11  N   UNL     1     -10.104  11.080  68.860  1.00  0.00    -0.203 NA 
HETATM   12  C   UNL     1     -11.084  10.764  69.710  1.00  0.00    -0.281 A  
HETATM   13  C   UNL     1     -11.882  12.421  68.701  1.00  0.00    -0.302 A  
HETATM   14  N   UNL     1     -12.197  11.550  69.632  1.00  0.00    -0.265 NA 
ENDBRANCH   9  10
BRANCH   9  15
HETATM   15  C   UNL     1      -9.205  14.111  67.518  1.00  0.00    -0.192 A  
HETATM   16  C   UNL     1      -7.765  16.455  68.246  1.00  0.00    -0.162 A  
HETATM   17  C   UNL     1      -8.772  14.328  68.842  1.00  0.00    -0.027 A  
HETATM   18  C   UNL     1      -7.041  17.634  68.610  1.00  0.00    -0.245 C  
HETATM   19  C   UNL     1      -8.148  16.243  66.921  1.00  0.00    -0.270 A  
HETATM   20  C   UNL     1      -8.075  15.487  69.206  1.00  0.00    -0.248 A  
HETATM   21  C   UNL     1      -8.841  15.083  66.561  1.00  0.00    -0.286 A  
HETATM   22  N   UNL     1      -6.452  18.593  68.901  1.00  0.00    -0.237 NA 
ENDBRANCH   9  15
ENDBRANCH   6   9
TORSDOF 3
ENDMDL
MODEL      109
REMARK 921   NORMALIZED FREE ENERGY PREDICTED BY IDOCK:   -3.75 KCAL/MOL
REMARK 922        TOTAL FREE ENERGY PREDICTED BY IDOCK:   -5.10 KCAL/MOL
REMARK 923 INTER-LIGAND FREE ENERGY PREDICTED BY IDOCK:   -4.48 KCAL/MOL
REMARK 924 INTRA-LIGAND FREE ENERGY PREDICTED BY IDOCK:   -0.62 KCAL/MOL
REMARK 927      BINDING AFFINITY PREDICTED BY RF-SCORE:    0.00 PKD
ROOT
HETATM    1  N   UNL     1     -10.291   3.958  74.552  1.00  0.00    -0.207 NA 
HETATM    2  C   UNL     1     -10.124   4.755  73.725  1.00  0.00    -0.175 C  
HETATM    3  C   UNL     1      -9.896   5.730  72.696  1.00  0.00    -0.183 A  
HETATM    4  C   UNL     1     -10.494   5.583  71.443  1.00  0.00    -0.305 A  
HETATM    5  C   UNL     1     -10.201   6.487  70.415  1.00  0.00    -0.227 A  
HETATM    6  C   UNL     1      -9.301   7.553  70.618  1.00  0.00    -0.163 A  
HETATM    7  C   UNL     1      -9.054   6.821  72.931  1.00  0.00    -0.142 A  
HETATM    8  C   UNL     1      -8.777   7.739  71.908  1.00  0.00    -0.150 A  
ENDROOT
BRANCH   6   9
HETATM    9  C   UNL     1      -8.934   8.454  69.431  1.00  0.00    -0.153 C  
BRANCH   9  10
HETATM   10  N   UNL     1      -8.863   7.643  68.208  1.00  0.00    -0.126 NA 
HETATM   11  N   UNL     1      -9.935   7.542  67.388  1.00  0.00    -0.170 NA 
HETATM   12  C   UNL     1      -9.485   6.690  66.463  1.00  0.00    -0.152 A  
HETATM   13  C   UNL     1      -7.835   6.875  67.746  1.00  0.00    -0.113 A  
HETATM   14  N   UNL     1      -8.210   6.245  66.656  1.00  0.00    -0.109 NA 
ENDBRANCH   9  10
BRANCH   9  15
HETATM   15  C   UNL     1      -9.719   9.775  69.272  1.00  0.00    -0.204 A  
HETATM   16  C   UNL     1     -11.091  12.262  69.117  1.00  0.00    -0.261 A  
HETATM   17  C   UNL     1     -10.875  10.027  70.040  1.00  0.00    -0.352 A  
HETATM   18  C   UNL     1     -11.780  13.514  69.037  1.00  0.00    -0.327 C  
HETATM   19  C   UNL     1      -9.926  12.050  68.378  1.00  0.00    -0.209 A  
HETATM   20  C   UNL     1     -11.560  11.246  69.954  1.00  0.00    -0.413 A  
HETATM   21  C   UNL     1      -9.243  10.832  68.468  1.00  0.00    -0.174 A  
HETATM   22  N   UNL     1     -12.335  14.533  68.970  1.00  0.00    -0.165 NA 
ENDBRANCH   9  15
ENDBRANCH   6   9
TORSDOF 3
ENDMDL
MODEL      110
REMARK 921   NORMALIZED FREE ENERGY PREDICTED BY IDOCK:   -3.72 KCAL/MOL
REMARK 922        TOTAL FREE ENERGY PREDICTED BY IDOCK:   -5.06 KCAL/MOL
REMARK 923 INTER-LIGAND FREE ENERGY PREDICTED BY IDOCK:   -4.55 KCAL/MOL
REMARK 924 INTRA-LIGAND FREE ENERGY PREDICTED BY IDOCK:   -0.51 KCAL/MOL
REMARK 927      BINDING AFFINITY PREDICTED BY RF-SCORE:    0.00 PKD
ROOT
HETATM    1  N   UNL     1     -12.001  11.375  67.612  1.00  0.00    -0.626 NA 
HETATM    2  C   UNL     1     -11.328  10.696  68.271  1.00  0.00    -0.289 C  
HETATM    3  C   UNL     1     -10.515   9.839  69.087  1.00  0.00    -0.232 A  
HETATM    4  C   UNL     1      -9.579   8.986  68.497  1.00  0.00    -0.161 A  
HETATM    5  C   UNL     1      -8.850   8.090  69.288  1.00  0.00    -0.141 A  
HETATM    6  C   UNL     1      -9.044   8.026  70.682  1.00  0.00    -0.154 A  
HETATM    7  C   UNL     1     -10.668   9.833  70.477  1.00  0.00    -0.381 A  
HETATM    8  C   UNL     1      -9.922   8.951  71.271  1.00  0.00    -0.358 A  
ENDROOT
BRANCH   6   9
HETATM    9  C   UNL     1      -8.295   6.957  71.490  1.00  0.00    -0.114 C  
BRANCH   9  10
HETATM   10  N   UNL     1      -7.440   7.613  72.489  1.00  0.00    -0.075 NA 
HETATM   11  N   UNL     1      -7.494   7.242  73.790  1.00  0.00    -0.099 NA 
HETATM   12  C   UNL     1      -6.638   8.101  74.349  1.00  0.00    -0.122 A  
HETATM   13  C   UNL     1      -6.566   8.648  72.325  1.00  0.00    -0.060 A  
HETATM   14  N   UNL     1      -6.062   8.989  73.488  1.00  0.00    -0.295 NA 
ENDBRANCH   9  10
BRANCH   9  15
HETATM   15  C   UNL     1      -9.121   5.774  72.042  1.00  0.00    -0.143 A  
HETATM   16  C   UNL     1     -10.735   3.602  72.920  1.00  0.00    -0.192 A  
HETATM   17  C   UNL     1     -10.380   5.987  72.641  1.00  0.00    -0.222 A  
HETATM   18  C   UNL     1     -11.545   2.508  73.360  1.00  0.00    -0.056 C  
HETATM   19  C   UNL     1      -9.511   3.365  72.292  1.00  0.00    -0.185 A  
HETATM   20  C   UNL     1     -11.169   4.920  73.087  1.00  0.00    -0.403 A  
HETATM   21  C   UNL     1      -8.726   4.434  71.846  1.00  0.00    -0.131 A  
HETATM   22  N   UNL     1     -12.201   1.616  73.715  1.00  0.00    -0.112 NA 
ENDBRANCH   9  15
ENDBRANCH   6   9
TORSDOF 3
ENDMDL
MODEL      111
REMARK 921   NORMALIZED FREE ENERGY PREDICTED BY IDOCK:   -3.68 KCAL/MOL
REMARK 922        TOTAL FREE ENERGY PREDICTED BY IDOCK:   -5.01 KCAL/MOL
REMARK 923 INTER-LIGAND FREE ENERGY PREDICTED BY IDOCK:   -4.47 KCAL/MOL
REMARK 924 INTRA-LIGAND FREE ENERGY PREDICTED BY IDOCK:   -0.55 KCAL/MOL
REMARK 927      BINDING AFFINITY PREDICTED BY RF-SCORE:    0.00 PKD
ROOT
HETATM    1  N   UNL     1     -11.410  15.912  68.308  1.00  0.00    -0.356 NA 
HETATM    2  C   UNL     1     -11.030  14.821  68.417  1.00  0.00    -0.252 C  
HETATM    3  C   UNL     1     -10.550  13.477  68.576  1.00  0.00    -0.257 A  
HETATM    4  C   UNL     1     -11.419  12.463  68.984  1.00  0.00    -0.352 A  
HETATM    5  C   UNL     1     -10.929  11.172  69.222  1.00  0.00    -0.300 A  
HETATM    6  C   UNL     1      -9.562  10.872  69.061  1.00  0.00    -0.170 A  
HETATM    7  C   UNL     1      -9.204  13.176  68.346  1.00  0.00    -0.141 A  
HETATM    8  C   UNL     1      -8.718  11.879  68.563  1.00  0.00    -0.108 A  
ENDROOT
BRANCH   6   9
HETATM    9  C   UNL     1      -9.059   9.470  69.432  1.00  0.00    -0.168 C  
BRANCH   9  10
HETATM   10  N   UNL     1      -9.952   8.885  70.442  1.00  0.00    -0.184 NA 
HETATM   11  N   UNL     1     -11.007   8.124  70.067  1.00  0.00    -0.233 NA 
HETATM   12  C   UNL     1     -11.575   7.856  71.245  1.00  0.00    -0.276 A  
HETATM   13  C   UNL     1      -9.925   9.028  71.798  1.00  0.00    -0.289 A  
HETATM   14  N   UNL     1     -10.952   8.405  72.328  1.00  0.00    -0.341 NA 
ENDBRANCH   9  10
BRANCH   9  15
HETATM   15  C   UNL     1      -8.697   8.514  68.275  1.00  0.00    -0.143 A  
HETATM   16  C   UNL     1      -8.145   6.644  66.203  1.00  0.00    -0.118 A  
HETATM   17  C   UNL     1      -7.847   7.409  68.487  1.00  0.00    -0.122 A  
HETATM   18  C   UNL     1      -7.869   5.705  65.159  1.00  0.00    -0.099 C  
HETATM   19  C   UNL     1      -9.023   7.706  65.981  1.00  0.00    -0.178 A  
HETATM   20  C   UNL     1      -7.562   6.496  67.464  1.00  0.00    -0.105 A  
HETATM   21  C   UNL     1      -9.306   8.615  67.006  1.00  0.00    -0.202 A  
HETATM   22  N   UNL     1      -7.649   4.943  64.309  1.00  0.00    -0.071 NA 
ENDBRANCH   9  15
ENDBRANCH   6   9
TORSDOF 3
ENDMDL
MODEL      112
REMARK 921   NORMALIZED FREE ENERGY PREDICTED BY IDOCK:   -3.67 KCAL/MOL
REMARK 922        TOTAL FREE ENERGY PREDICTED BY IDOCK:   -5.00 KCAL/MOL
REMARK 923 INTER-LIGAND FREE ENERGY PREDICTED BY IDOCK:   -4.61 KCAL/MOL
REMARK 924 INTRA-LIGAND FREE ENERGY PREDICTED BY IDOCK:   -0.39 KCAL/MOL
REMARK 927      BINDING AFFINITY PREDICTED BY RF-SCORE:    0.00 PKD
ROOT
HETATM    1  N   UNL     1     -10.018   4.762  74.345  1.00  0.00    -0.176 NA 
HETATM    2  C   UNL     1     -10.127   5.481  73.441  1.00  0.00    -0.186 C  
HETATM    3  C   UNL     1     -10.287   6.372  72.326  1.00  0.00    -0.215 A  
HETATM    4  C   UNL     1     -10.108   7.747  72.492  1.00  0.00    -0.301 A  
HETATM    5  C   UNL     1     -10.349   8.620  71.425  1.00  0.00    -0.331 A  
HETATM    6  C   UNL     1     -10.780   8.138  70.173  1.00  0.00    -0.243 A  
HETATM    7  C   UNL     1     -10.648   5.874  71.070  1.00  0.00    -0.312 A  
HETATM    8  C   UNL     1     -10.869   6.747  69.996  1.00  0.00    -0.311 A  
ENDROOT
BRANCH   6   9
HETATM    9  C   UNL     1     -11.130   9.143  69.067  1.00  0.00     0.093 C  
BRANCH   9  10
HETATM   10  N   UNL     1     -11.484  10.432  69.676  1.00  0.00    -0.259 NA 
HETATM   11  N   UNL     1     -12.508  10.517  70.558  1.00  0.00    -0.335 NA 
HETATM   12  C   UNL     1     -12.535  11.828  70.810  1.00  0.00    -0.312 A  
HETATM   13  C   UNL     1     -10.946  11.665  69.450  1.00  0.00    -0.152 A  
HETATM   14  N   UNL     1     -11.606  12.568  70.138  1.00  0.00    -0.155 NA 
ENDBRANCH   9  10
BRANCH   9  15
HETATM   15  C   UNL     1     -10.158   9.252  67.872  1.00  0.00    -0.246 A  
HETATM   16  C   UNL     1      -8.373   9.621  65.687  1.00  0.00    -0.133 A  
HETATM   17  C   UNL     1     -10.628   9.584  66.584  1.00  0.00    -0.174 A  
HETATM   18  C   UNL     1      -7.473   9.806  64.589  1.00  0.00    -0.134 C  
HETATM   19  C   UNL     1      -7.881   9.334  66.961  1.00  0.00    -0.098 A  
HETATM   20  C   UNL     1      -9.752   9.752  65.504  1.00  0.00    -0.382 A  
HETATM   21  C   UNL     1      -8.759   9.170  68.038  1.00  0.00    -0.129 A  
HETATM   22  N   UNL     1      -6.739   9.957  63.702  1.00  0.00    -0.121 NA 
ENDBRANCH   9  15
ENDBRANCH   6   9
TORSDOF 3
ENDMDL
MODEL      113
REMARK 921   NORMALIZED FREE ENERGY PREDICTED BY IDOCK:   -3.67 KCAL/MOL
REMARK 922        TOTAL FREE ENERGY PREDICTED BY IDOCK:   -5.00 KCAL/MOL
REMARK 923 INTER-LIGAND FREE ENERGY PREDICTED BY IDOCK:   -4.61 KCAL/MOL
REMARK 924 INTRA-LIGAND FREE ENERGY PREDICTED BY IDOCK:   -0.39 KCAL/MOL
REMARK 927      BINDING AFFINITY PREDICTED BY RF-SCORE:    0.00 PKD
ROOT
HETATM    1  N   UNL     1     -10.531  20.910  69.569  1.00  0.00     0.603 NA 
HETATM    2  C   UNL     1     -10.158  19.897  69.142  1.00  0.00    -0.244 C  
HETATM    3  C   UNL     1      -9.713  18.646  68.596  1.00  0.00    -0.418 A  
HETATM    4  C   UNL     1      -8.630  18.608  67.714  1.00  0.00    -0.294 A  
HETATM    5  C   UNL     1      -8.255  17.399  67.116  1.00  0.00    -0.229 A  
HETATM    6  C   UNL     1      -8.956  16.206  67.383  1.00  0.00    -0.201 A  
HETATM    7  C   UNL     1     -10.374  17.458  68.922  1.00  0.00    -0.340 A  
HETATM    8  C   UNL     1      -9.985  16.244  68.340  1.00  0.00    -0.234 A  
ENDROOT
BRANCH   6   9
HETATM    9  C   UNL     1      -8.571  14.929  66.624  1.00  0.00    -0.172 C  
BRANCH   9  10
HETATM   10  N   UNL     1      -7.723  14.090  67.483  1.00  0.00    -0.176 NA 
HETATM   11  N   UNL     1      -6.374  14.136  67.373  1.00  0.00    -0.308 NA 
HETATM   12  C   UNL     1      -6.002  13.206  68.255  1.00  0.00    -0.090 A  
HETATM   13  C   UNL     1      -8.093  13.163  68.413  1.00  0.00    -0.130 A  
HETATM   14  N   UNL     1      -7.025  12.575  68.900  1.00  0.00    -0.098 NA 
ENDBRANCH   9  10
BRANCH   9  15
HETATM   15  C   UNL     1      -9.701  14.160  65.905  1.00  0.00    -0.267 A  
HETATM   16  C   UNL     1     -11.708  12.780  64.435  1.00  0.00    -0.426 A  
HETATM   17  C   UNL     1     -10.765  14.848  65.287  1.00  0.00    -0.409 A  
HETATM   18  C   UNL     1     -12.716  12.083  63.696  1.00  0.00    -0.431 C  
HETATM   19  C   UNL     1     -10.641  12.081  65.003  1.00  0.00    -0.332 A  
HETATM   20  C   UNL     1     -11.762  14.169  64.575  1.00  0.00    -0.426 A  
HETATM   21  C   UNL     1      -9.646  12.763  65.712  1.00  0.00    -0.102 A  
HETATM   22  N   UNL     1     -13.532  11.514  63.096  1.00  0.00     0.111 NA 
ENDBRANCH   9  15
ENDBRANCH   6   9
TORSDOF 3
ENDMDL
MODEL      114
REMARK 921   NORMALIZED FREE ENERGY PREDICTED BY IDOCK:   -3.65 KCAL/MOL
REMARK 922        TOTAL FREE ENERGY PREDICTED BY IDOCK:   -4.99 KCAL/MOL
REMARK 923 INTER-LIGAND FREE ENERGY PREDICTED BY IDOCK:   -4.34 KCAL/MOL
REMARK 924 INTRA-LIGAND FREE ENERGY PREDICTED BY IDOCK:   -0.65 KCAL/MOL
REMARK 927      BINDING AFFINITY PREDICTED BY RF-SCORE:    0.00 PKD
ROOT
HETATM    1  N   UNL     1      -8.620  11.229  62.330  1.00  0.00    -0.266 NA 
HETATM    2  C   UNL     1      -8.783  10.538  63.249  1.00  0.00    -0.195 C  
HETATM    3  C   UNL     1      -9.003   9.672  64.373  1.00  0.00    -0.276 A  
HETATM    4  C   UNL     1      -8.213   8.534  64.550  1.00  0.00    -0.158 A  
HETATM    5  C   UNL     1      -8.486   7.646  65.597  1.00  0.00    -0.152 A  
HETATM    6  C   UNL     1      -9.557   7.874  66.484  1.00  0.00    -0.281 A  
HETATM    7  C   UNL     1     -10.025   9.946  65.286  1.00  0.00    -0.320 A  
HETATM    8  C   UNL     1     -10.285   9.068  66.348  1.00  0.00    -0.297 A  
ENDROOT
BRANCH   6   9
HETATM    9  C   UNL     1      -9.879   6.819  67.551  1.00  0.00    -0.132 C  
BRANCH   9  10
HETATM   10  N   UNL     1      -9.457   5.496  67.070  1.00  0.00    -0.126 NA 
HETATM   11  N   UNL     1     -10.212   4.818  66.174  1.00  0.00    -0.261 NA 
HETATM   12  C   UNL     1      -9.529   3.676  66.058  1.00  0.00    -0.160 A  
HETATM   13  C   UNL     1      -8.373   4.754  67.438  1.00  0.00    -0.105 A  
HETATM   14  N   UNL     1      -8.406   3.591  66.829  1.00  0.00    -0.099 NA 
ENDBRANCH   9  10
BRANCH   9  15
HETATM   15  C   UNL     1      -9.460   7.127  69.006  1.00  0.00    -0.143 A  
HETATM   16  C   UNL     1      -8.749   7.849  71.664  1.00  0.00    -0.153 A  
HETATM   17  C   UNL     1      -8.281   7.850  69.282  1.00  0.00    -0.128 A  
HETATM   18  C   UNL     1      -8.393   8.212  73.002  1.00  0.00    -0.199 C  
HETATM   19  C   UNL     1      -9.941   7.170  71.411  1.00  0.00    -0.193 A  
HETATM   20  C   UNL     1      -7.922   8.193  70.591  1.00  0.00    -0.096 A  
HETATM   21  C   UNL     1     -10.298   6.831  70.101  1.00  0.00    -0.228 A  
HETATM   22  N   UNL     1      -8.109   8.505  74.090  1.00  0.00    -0.371 NA 
ENDBRANCH   9  15
ENDBRANCH   6   9
TORSDOF 3
ENDMDL
MODEL      115
REMARK 921   NORMALIZED FREE ENERGY PREDICTED BY IDOCK:   -3.62 KCAL/MOL
REMARK 922        TOTAL FREE ENERGY PREDICTED BY IDOCK:   -4.95 KCAL/MOL
REMARK 923 INTER-LIGAND FREE ENERGY PREDICTED BY IDOCK:   -4.75 KCAL/MOL
REMARK 924 INTRA-LIGAND FREE ENERGY PREDICTED BY IDOCK:   -0.20 KCAL/MOL
REMARK 927      BINDING AFFINITY PREDICTED BY RF-SCORE:    0.00 PKD
ROOT
HETATM    1  N   UNL     1      -5.427  12.753  70.612  1.00  0.00    -0.158 NA 
HETATM    2  C   UNL     1      -6.249  12.268  69.953  1.00  0.00    -0.110 C  
HETATM    3  C   UNL     1      -7.248  11.657  69.123  1.00  0.00    -0.064 A  
HETATM    4  C   UNL     1      -7.858  10.463  69.518  1.00  0.00    -0.161 A  
HETATM    5  C   UNL     1      -8.768   9.825  68.666  1.00  0.00    -0.122 A  
HETATM    6  C   UNL     1      -9.083  10.363  67.402  1.00  0.00    -0.144 A  
HETATM    7  C   UNL     1      -7.604  12.237  67.901  1.00  0.00    -0.127 A  
HETATM    8  C   UNL     1      -8.531  11.608  67.058  1.00  0.00    -0.168 A  
ENDROOT
BRANCH   6   9
HETATM    9  C   UNL     1     -10.006   9.573  66.465  1.00  0.00    -0.261 C  
BRANCH   9  10
HETATM   10  N   UNL     1      -9.962  10.169  65.122  1.00  0.00    -0.325 NA 
HETATM   11  N   UNL     1     -10.745  11.230  64.816  1.00  0.00    -0.305 NA 
HETATM   12  C   UNL     1     -10.456  11.411  63.525  1.00  0.00    -0.417 A  
HETATM   13  C   UNL     1      -9.246   9.774  64.030  1.00  0.00    -0.215 A  
HETATM   14  N   UNL     1      -9.556  10.529  63.002  1.00  0.00    -0.329 NA 
ENDBRANCH   9  10
BRANCH   9  15
HETATM   15  C   UNL     1      -9.884   8.033  66.478  1.00  0.00    -0.289 A  
HETATM   16  C   UNL     1      -9.562   5.211  66.637  1.00  0.00    -0.162 A  
HETATM   17  C   UNL     1      -8.735   7.393  65.969  1.00  0.00    -0.171 A  
HETATM   18  C   UNL     1      -9.402   3.791  66.718  1.00  0.00    -0.190 C  
HETATM   19  C   UNL     1     -10.689   5.826  67.185  1.00  0.00    -0.358 A  
HETATM   20  C   UNL     1      -8.581   6.002  66.034  1.00  0.00    -0.147 A  
HETATM   21  C   UNL     1     -10.838   7.215  67.120  1.00  0.00    -0.403 A  
HETATM   22  N   UNL     1      -9.276   2.638  66.788  1.00  0.00    -0.123 NA 
ENDBRANCH   9  15
ENDBRANCH   6   9
TORSDOF 3
ENDMDL
MODEL      116
REMARK 921   NORMALIZED FREE ENERGY PREDICTED BY IDOCK:   -3.60 KCAL/MOL
REMARK 922        TOTAL FREE ENERGY PREDICTED BY IDOCK:   -4.92 KCAL/MOL
REMARK 923 INTER-LIGAND FREE ENERGY PREDICTED BY IDOCK:   -4.57 KCAL/MOL
REMARK 924 INTRA-LIGAND FREE ENERGY PREDICTED BY IDOCK:   -0.35 KCAL/MOL
REMARK 927      BINDING AFFINITY PREDICTED BY RF-SCORE:    0.00 PKD
ROOT
HETATM    1  N   UNL     1      -6.141  21.379  63.672  1.00  0.00    -0.280 NA 
HETATM    2  C   UNL     1      -6.198  20.425  64.331  1.00  0.00    -0.286 C  
HETATM    3  C   UNL     1      -6.257  19.257  65.163  1.00  0.00    -0.312 A  
HETATM    4  C   UNL     1      -7.425  18.951  65.865  1.00  0.00    -0.242 A  
HETATM    5  C   UNL     1      -7.451  17.861  66.744  1.00  0.00    -0.239 A  
HETATM    6  C   UNL     1      -6.310  17.059  66.942  1.00  0.00    -0.242 A  
HETATM    7  C   UNL     1      -5.138  18.429  65.299  1.00  0.00    -0.204 A  
HETATM    8  C   UNL     1      -5.171  17.325  66.162  1.00  0.00    -0.089 A  
ENDROOT
BRANCH   6   9
HETATM    9  C   UNL     1      -6.358  15.940  67.991  1.00  0.00    -0.131 C  
BRANCH   9  10
HETATM   10  N   UNL     1      -5.900  16.466  69.285  1.00  0.00    -0.139 NA 
HETATM   11  N   UNL     1      -5.688  17.793  69.450  1.00  0.00    -0.210 NA 
HETATM   12  C   UNL     1      -5.231  17.836  70.704  1.00  0.00    -0.280 A  
HETATM   13  C   UNL     1      -5.578  15.786  70.423  1.00  0.00    -0.142 A  
HETATM   14  N   UNL     1      -5.133  16.626  71.328  1.00  0.00    -0.300 NA 
ENDBRANCH   9  10
BRANCH   9  15
HETATM   15  C   UNL     1      -7.649  15.096  68.073  1.00  0.00    -0.127 A  
HETATM   16  C   UNL     1      -9.936  13.418  68.288  1.00  0.00    -0.240 A  
HETATM   17  C   UNL     1      -7.926  14.101  67.112  1.00  0.00    -0.100 A  
HETATM   18  C   UNL     1     -11.087  12.574  68.398  1.00  0.00    -0.258 C  
HETATM   19  C   UNL     1      -9.661  14.367  69.273  1.00  0.00     0.109 A  
HETATM   20  C   UNL     1      -9.059  13.284  67.208  1.00  0.00    -0.221 A  
HETATM   21  C   UNL     1      -8.527  15.180  69.174  1.00  0.00    -0.220 A  
HETATM   22  N   UNL     1     -12.023  11.891  68.493  1.00  0.00    -0.422 NA 
ENDBRANCH   9  15
ENDBRANCH   6   9
TORSDOF 3
ENDMDL
MODEL      117
REMARK 921   NORMALIZED FREE ENERGY PREDICTED BY IDOCK:   -3.60 KCAL/MOL
REMARK 922        TOTAL FREE ENERGY PREDICTED BY IDOCK:   -4.92 KCAL/MOL
REMARK 923 INTER-LIGAND FREE ENERGY PREDICTED BY IDOCK:   -4.55 KCAL/MOL
REMARK 924 INTRA-LIGAND FREE ENERGY PREDICTED BY IDOCK:   -0.37 KCAL/MOL
REMARK 927      BINDING AFFINITY PREDICTED BY RF-SCORE:    0.00 PKD
ROOT
HETATM    1  N   UNL     1      -8.274   3.133  71.747  1.00  0.00    -0.058 NA 
HETATM    2  C   UNL     1      -8.794   4.094  71.354  1.00  0.00    -0.108 C  
HETATM    3  C   UNL     1      -9.458   5.275  70.881  1.00  0.00    -0.216 A  
HETATM    4  C   UNL     1      -9.237   6.505  71.506  1.00  0.00    -0.144 A  
HETATM    5  C   UNL     1      -9.952   7.638  71.098  1.00  0.00    -0.188 A  
HETATM    6  C   UNL     1     -10.903   7.564  70.062  1.00  0.00    -0.260 A  
HETATM    7  C   UNL     1     -10.349   5.203  69.806  1.00  0.00    -0.332 A  
HETATM    8  C   UNL     1     -11.049   6.342  69.384  1.00  0.00    -0.477 A  
ENDROOT
BRANCH   6   9
HETATM    9  C   UNL     1     -11.733   8.809  69.722  1.00  0.00     0.486 C  
BRANCH   9  10
HETATM   10  N   UNL     1     -12.553   9.179  70.884  1.00  0.00    -0.141 NA 
HETATM   11  N   UNL     1     -13.327   8.255  71.502  1.00  0.00    -0.311 NA 
HETATM   12  C   UNL     1     -13.936   8.995  72.432  1.00  0.00    -0.448 A  
HETATM   13  C   UNL     1     -12.719  10.403  71.463  1.00  0.00    -0.459 A  
HETATM   14  N   UNL     1     -13.604  10.318  72.430  1.00  0.00    -0.134 NA 
ENDBRANCH   9  10
BRANCH   9  15
HETATM   15  C   UNL     1     -10.998   9.996  69.062  1.00  0.00    -0.249 A  
HETATM   16  C   UNL     1      -9.701  12.280  67.969  1.00  0.00    -0.205 A  
HETATM   17  C   UNL     1     -11.697  10.934  68.274  1.00  0.00    -0.259 A  
HETATM   18  C   UNL     1      -9.046  13.429  67.420  1.00  0.00    -0.216 C  
HETATM   19  C   UNL     1      -8.998  11.388  68.780  1.00  0.00    -0.086 A  
HETATM   20  C   UNL     1     -11.057  12.051  67.723  1.00  0.00    -0.303 A  
HETATM   21  C   UNL     1      -9.641  10.275  69.330  1.00  0.00    -0.237 A  
HETATM   22  N   UNL     1      -8.511  14.361  66.978  1.00  0.00    -0.206 NA 
ENDBRANCH   9  15
ENDBRANCH   6   9
TORSDOF 3
ENDMDL
MODEL      118
REMARK 921   NORMALIZED FREE ENERGY PREDICTED BY IDOCK:   -3.58 KCAL/MOL
REMARK 922        TOTAL FREE ENERGY PREDICTED BY IDOCK:   -4.90 KCAL/MOL
REMARK 923 INTER-LIGAND FREE ENERGY PREDICTED BY IDOCK:   -4.21 KCAL/MOL
REMARK 924 INTRA-LIGAND FREE ENERGY PREDICTED BY IDOCK:   -0.69 KCAL/MOL
REMARK 927      BINDING AFFINITY PREDICTED BY RF-SCORE:    0.00 PKD
ROOT
HETATM    1  N   UNL     1      -5.167  13.193  72.041  1.00  0.00    -0.346 NA 
HETATM    2  C   UNL     1      -5.590  12.737  71.062  1.00  0.00    -0.117 C  
HETATM    3  C   UNL     1      -6.090  12.163  69.845  1.00  0.00    -0.146 A  
HETATM    4  C   UNL     1      -6.790  10.955  69.872  1.00  0.00    -0.126 A  
HETATM    5  C   UNL     1      -7.201  10.354  68.676  1.00  0.00    -0.082 A  
HETATM    6  C   UNL     1      -6.916  10.945  67.429  1.00  0.00    -0.084 A  
HETATM    7  C   UNL     1      -5.860  12.795  68.618  1.00  0.00    -0.064 A  
HETATM    8  C   UNL     1      -6.290  12.203  67.422  1.00  0.00    -0.144 A  
ENDROOT
BRANCH   6   9
HETATM    9  C   UNL     1      -7.296  10.197  66.144  1.00  0.00    -0.115 C  
BRANCH   9  10
HETATM   10  N   UNL     1      -7.142   8.751  66.360  1.00  0.00    -0.082 NA 
HETATM   11  N   UNL     1      -5.924   8.168  66.269  1.00  0.00    -0.041 NA 
HETATM   12  C   UNL     1      -6.227   6.882  66.462  1.00  0.00    -0.045 A  
HETATM   13  C   UNL     1      -8.101   7.813  66.609  1.00  0.00    -0.111 A  
HETATM   14  N   UNL     1      -7.552   6.622  66.657  1.00  0.00    -0.092 NA 
ENDBRANCH   9  10
BRANCH   9  15
HETATM   15  C   UNL     1      -8.617  10.597  65.452  1.00  0.00    -0.185 A  
HETATM   16  C   UNL     1     -10.992  11.490  64.166  1.00  0.00    -0.434 A  
HETATM   17  C   UNL     1      -9.636  11.261  66.166  1.00  0.00    -0.241 A  
HETATM   18  C   UNL     1     -12.186  11.939  63.517  1.00  0.00    -0.482 C  
HETATM   19  C   UNL     1      -9.980  10.872  63.431  1.00  0.00    -0.414 A  
HETATM   20  C   UNL     1     -10.813  11.688  65.537  1.00  0.00    -0.334 A  
HETATM   21  C   UNL     1      -8.805  10.449  64.062  1.00  0.00    -0.225 A  
HETATM   22  N   UNL     1     -13.154  12.302  62.985  1.00  0.00    -0.300 NA 
ENDBRANCH   9  15
ENDBRANCH   6   9
TORSDOF 3
ENDMDL
MODEL      119
REMARK 921   NORMALIZED FREE ENERGY PREDICTED BY IDOCK:   -3.54 KCAL/MOL
REMARK 922        TOTAL FREE ENERGY PREDICTED BY IDOCK:   -4.85 KCAL/MOL
REMARK 923 INTER-LIGAND FREE ENERGY PREDICTED BY IDOCK:   -4.16 KCAL/MOL
REMARK 924 INTRA-LIGAND FREE ENERGY PREDICTED BY IDOCK:   -0.69 KCAL/MOL
REMARK 927      BINDING AFFINITY PREDICTED BY RF-SCORE:    0.00 PKD
ROOT
HETATM    1  N   UNL     1      -5.306  10.735  72.079  1.00  0.00    -0.318 NA 
HETATM    2  C   UNL     1      -5.564  10.427  70.990  1.00  0.00    -0.075 C  
HETATM    3  C   UNL     1      -5.907  10.057  69.646  1.00  0.00    -0.041 A  
HETATM    4  C   UNL     1      -5.524  10.865  68.574  1.00  0.00    -0.040 A  
HETATM    5  C   UNL     1      -5.934  10.547  67.273  1.00  0.00    -0.053 A  
HETATM    6  C   UNL     1      -6.739   9.418  67.020  1.00  0.00    -0.076 A  
HETATM    7  C   UNL     1      -6.648   8.896  69.401  1.00  0.00    -0.045 A  
HETATM    8  C   UNL     1      -7.041   8.566  68.096  1.00  0.00    -0.085 A  
ENDROOT
BRANCH   6   9
HETATM    9  C   UNL     1      -7.247   9.170  65.593  1.00  0.00    -0.082 C  
BRANCH   9  10
HETATM   10  N   UNL     1      -7.399   7.725  65.375  1.00  0.00    -0.074 NA 
HETATM   11  N   UNL     1      -8.579   7.111  65.628  1.00  0.00    -0.137 NA 
HETATM   12  C   UNL     1      -8.278   5.836  65.370  1.00  0.00    -0.138 A  
HETATM   13  C   UNL     1      -6.464   6.814  64.976  1.00  0.00    -0.042 A  
HETATM   14  N   UNL     1      -6.988   5.611  64.985  1.00  0.00    -0.058 NA 
ENDBRANCH   9  10
BRANCH   9  15
HETATM   15  C   UNL     1      -8.448  10.013  65.109  1.00  0.00    -0.160 A  
HETATM   16  C   UNL     1     -10.741  11.422  64.186  1.00  0.00    -0.434 A  
HETATM   17  C   UNL     1      -8.686  10.211  63.733  1.00  0.00    -0.220 A  
HETATM   18  C   UNL     1     -11.895  12.131  63.724  1.00  0.00    -0.500 C  
HETATM   19  C   UNL     1     -10.548  11.202  65.551  1.00  0.00    -0.289 A  
HETATM   20  C   UNL     1      -9.807  10.917  63.278  1.00  0.00    -0.409 A  
HETATM   21  C   UNL     1      -9.429  10.495  66.002  1.00  0.00    -0.227 A  
HETATM   22  N   UNL     1     -12.834  12.706  63.353  1.00  0.00    -0.659 NA 
ENDBRANCH   9  15
ENDBRANCH   6   9
TORSDOF 3
ENDMDL
MODEL      120
REMARK 921   NORMALIZED FREE ENERGY PREDICTED BY IDOCK:   -3.53 KCAL/MOL
REMARK 922        TOTAL FREE ENERGY PREDICTED BY IDOCK:   -4.84 KCAL/MOL
REMARK 923 INTER-LIGAND FREE ENERGY PREDICTED BY IDOCK:   -4.49 KCAL/MOL
REMARK 924 INTRA-LIGAND FREE ENERGY PREDICTED BY IDOCK:   -0.35 KCAL/MOL
REMARK 927      BINDING AFFINITY PREDICTED BY RF-SCORE:    0.00 PKD
ROOT
HETATM    1  N   UNL     1      -5.126  14.683  72.055  1.00  0.00    -0.170 NA 
HETATM    2  C   UNL     1      -5.550  13.924  71.286  1.00  0.00    -0.223 C  
HETATM    3  C   UNL     1      -6.093  12.980  70.350  1.00  0.00    -0.041 A  
HETATM    4  C   UNL     1      -6.886  13.419  69.287  1.00  0.00    -0.036 A  
HETATM    5  C   UNL     1      -7.485  12.490  68.428  1.00  0.00    -0.127 A  
HETATM    6  C   UNL     1      -7.308  11.104  68.617  1.00  0.00    -0.110 A  
HETATM    7  C   UNL     1      -5.853  11.612  70.508  1.00  0.00    -0.128 A  
HETATM    8  C   UNL     1      -6.436  10.682  69.635  1.00  0.00    -0.096 A  
ENDROOT
BRANCH   6   9
HETATM    9  C   UNL     1      -8.069  10.126  67.712  1.00  0.00    -0.109 C  
BRANCH   9  10
HETATM   10  N   UNL     1      -8.586   9.015  68.523  1.00  0.00    -0.128 NA 
HETATM   11  N   UNL     1      -9.618   9.211  69.378  1.00  0.00    -0.161 NA 
HETATM   12  C   UNL     1      -9.728   8.008  69.946  1.00  0.00    -0.180 A  
HETATM   13  C   UNL     1      -8.138   7.730  68.606  1.00  0.00    -0.127 A  
HETATM   14  N   UNL     1      -8.828   7.078  69.512  1.00  0.00    -0.134 NA 
ENDBRANCH   9  10
BRANCH   9  15
HETATM   15  C   UNL     1      -9.096  10.721  66.724  1.00  0.00    -0.167 A  
HETATM   16  C   UNL     1     -11.050  11.665  64.884  1.00  0.00    -0.317 A  
HETATM   17  C   UNL     1      -8.911  10.606  65.331  1.00  0.00    -0.208 A  
HETATM   18  C   UNL     1     -12.034  12.140  63.961  1.00  0.00    -0.440 C  
HETATM   19  C   UNL     1     -11.273  11.752  66.259  1.00  0.00    -0.370 A  
HETATM   20  C   UNL     1      -9.866  11.083  64.423  1.00  0.00    -0.351 A  
HETATM   21  C   UNL     1     -10.319  11.272  67.163  1.00  0.00    -0.244 A  
HETATM   22  N   UNL     1     -12.838  12.526  63.214  1.00  0.00    -0.626 NA 
ENDBRANCH   9  15
ENDBRANCH   6   9
TORSDOF 3
ENDMDL
MODEL      121
REMARK 921   NORMALIZED FREE ENERGY PREDICTED BY IDOCK:   -3.49 KCAL/MOL
REMARK 922        TOTAL FREE ENERGY PREDICTED BY IDOCK:   -4.79 KCAL/MOL
REMARK 923 INTER-LIGAND FREE ENERGY PREDICTED BY IDOCK:   -4.10 KCAL/MOL
REMARK 924 INTRA-LIGAND FREE ENERGY PREDICTED BY IDOCK:   -0.69 KCAL/MOL
REMARK 927      BINDING AFFINITY PREDICTED BY RF-SCORE:    0.00 PKD
ROOT
HETATM    1  N   UNL     1     -11.859  12.858  68.253  1.00  0.00    -0.342 NA 
HETATM    2  C   UNL     1     -11.344  11.972  68.797  1.00  0.00    -0.278 C  
HETATM    3  C   UNL     1     -10.716  10.859  69.453  1.00  0.00    -0.265 A  
HETATM    4  C   UNL     1      -9.362  10.590  69.241  1.00  0.00    -0.177 A  
HETATM    5  C   UNL     1      -8.775   9.455  69.812  1.00  0.00    -0.189 A  
HETATM    6  C   UNL     1      -9.529   8.564  70.602  1.00  0.00    -0.203 A  
HETATM    7  C   UNL     1     -11.460  10.021  70.289  1.00  0.00    -0.372 A  
HETATM    8  C   UNL     1     -10.866   8.895  70.878  1.00  0.00    -0.308 A  
ENDROOT
BRANCH   6   9
HETATM    9  C   UNL     1      -8.865   7.281  71.119  1.00  0.00    -0.140 C  
BRANCH   9  10
HETATM   10  N   UNL     1      -9.626   6.768  72.267  1.00  0.00    -0.146 NA 
HETATM   11  N   UNL     1      -9.526   7.363  73.479  1.00  0.00    -0.232 NA 
HETATM   12  C   UNL     1     -10.298   6.574  74.229  1.00  0.00    -0.287 A  
HETATM   13  C   UNL     1     -10.443   5.678  72.338  1.00  0.00    -0.211 A  
HETATM   14  N   UNL     1     -10.864   5.521  73.571  1.00  0.00    -0.282 NA 
ENDBRANCH   9  10
BRANCH   9  15
HETATM   15  C   UNL     1      -8.487   6.205  70.078  1.00  0.00    -0.129 A  
HETATM   16  C   UNL     1      -7.718   4.342  68.069  1.00  0.00    -0.080 A  
HETATM   17  C   UNL     1      -9.226   6.062  68.884  1.00  0.00    -0.125 A  
HETATM   18  C   UNL     1      -7.330   3.405  67.060  1.00  0.00    -0.067 C  
HETATM   19  C   UNL     1      -6.949   4.495  69.223  1.00  0.00    -0.050 A  
HETATM   20  C   UNL     1      -8.857   5.135  67.901  1.00  0.00    -0.104 A  
HETATM   21  C   UNL     1      -7.319   5.423  70.202  1.00  0.00    -0.068 A  
HETATM   22  N   UNL     1      -7.009   2.644  66.242  1.00  0.00    -0.051 NA 
ENDBRANCH   9  15
ENDBRANCH   6   9
TORSDOF 3
ENDMDL
MODEL      122
REMARK 921   NORMALIZED FREE ENERGY PREDICTED BY IDOCK:   -3.48 KCAL/MOL
REMARK 922        TOTAL FREE ENERGY PREDICTED BY IDOCK:   -4.78 KCAL/MOL
REMARK 923 INTER-LIGAND FREE ENERGY PREDICTED BY IDOCK:   -5.10 KCAL/MOL
REMARK 924 INTRA-LIGAND FREE ENERGY PREDICTED BY IDOCK:    0.32 KCAL/MOL
REMARK 927      BINDING AFFINITY PREDICTED BY RF-SCORE:    0.00 PKD
ROOT
HETATM    1  N   UNL     1     -11.758  16.782  64.003  1.00  0.00    -0.867 NA 
HETATM    2  C   UNL     1     -11.229  16.020  64.701  1.00  0.00    -0.330 C  
HETATM    3  C   UNL     1     -10.569  15.064  65.545  1.00  0.00    -0.380 A  
HETATM    4  C   UNL     1      -9.260  15.291  65.977  1.00  0.00    -0.308 A  
HETATM    5  C   UNL     1      -8.590  14.317  66.727  1.00  0.00    -0.113 A  
HETATM    6  C   UNL     1      -9.211  13.097  67.056  1.00  0.00    -0.233 A  
HETATM    7  C   UNL     1     -11.222  13.887  65.924  1.00  0.00    -0.297 A  
HETATM    8  C   UNL     1     -10.557  12.921  66.693  1.00  0.00    -0.273 A  
ENDROOT
BRANCH   6   9
HETATM    9  C   UNL     1      -8.399  12.021  67.791  1.00  0.00    -0.156 C  
BRANCH   9  10
HETATM   10  N   UNL     1      -7.499  12.667  68.757  1.00  0.00    -0.083 NA 
HETATM   11  N   UNL     1      -7.670  13.967  69.092  1.00  0.00    -0.003 NA 
HETATM   12  C   UNL     1      -6.638  14.169  69.916  1.00  0.00    -0.082 A  
HETATM   13  C   UNL     1      -6.405  12.152  69.387  1.00  0.00    -0.116 A  
HETATM   14  N   UNL     1      -5.830  13.086  70.109  1.00  0.00    -0.146 NA 
ENDBRANCH   9  10
BRANCH   9  15
HETATM   15  C   UNL     1      -9.172  10.809  68.356  1.00  0.00    -0.164 A  
HETATM   16  C   UNL     1     -10.467   8.551  69.504  1.00  0.00    -0.222 A  
HETATM   17  C   UNL     1      -8.834   9.494  67.975  1.00  0.00    -0.123 A  
HETATM   18  C   UNL     1     -11.120   7.417  70.083  1.00  0.00    -0.246 C  
HETATM   19  C   UNL     1     -10.788   9.841  69.927  1.00  0.00    -0.306 A  
HETATM   20  C   UNL     1      -9.481   8.382  68.528  1.00  0.00    -0.149 A  
HETATM   21  C   UNL     1     -10.139  10.950  69.374  1.00  0.00    -0.116 A  
HETATM   22  N   UNL     1     -11.652   6.498  70.557  1.00  0.00    -0.384 NA 
ENDBRANCH   9  15
ENDBRANCH   6   9
TORSDOF 3
ENDMDL
MODEL      123
REMARK 921   NORMALIZED FREE ENERGY PREDICTED BY IDOCK:   -3.46 KCAL/MOL
REMARK 922        TOTAL FREE ENERGY PREDICTED BY IDOCK:   -4.76 KCAL/MOL
REMARK 923 INTER-LIGAND FREE ENERGY PREDICTED BY IDOCK:   -4.33 KCAL/MOL
REMARK 924 INTRA-LIGAND FREE ENERGY PREDICTED BY IDOCK:   -0.43 KCAL/MOL
REMARK 927      BINDING AFFINITY PREDICTED BY RF-SCORE:    0.00 PKD
ROOT
HETATM    1  N   UNL     1     -13.769  15.912  71.351  1.00  0.00    -0.312 NA 
HETATM    2  C   UNL     1     -13.016  15.469  70.587  1.00  0.00    -0.372 C  
HETATM    3  C   UNL     1     -12.086  14.898  69.654  1.00  0.00    -0.334 A  
HETATM    4  C   UNL     1     -12.517  14.495  68.388  1.00  0.00     0.188 A  
HETATM    5  C   UNL     1     -11.627  13.859  67.514  1.00  0.00    -0.392 A  
HETATM    6  C   UNL     1     -10.292  13.609  67.888  1.00  0.00    -0.249 A  
HETATM    7  C   UNL     1     -10.746  14.717  70.013  1.00  0.00    -0.031 A  
HETATM    8  C   UNL     1      -9.850  14.099  69.129  1.00  0.00     0.054 A  
ENDROOT
BRANCH   6   9
HETATM    9  C   UNL     1      -9.386  12.818  66.935  1.00  0.00    -0.234 C  
BRANCH   9  10
HETATM   10  N   UNL     1      -7.993  13.247  67.119  1.00  0.00    -0.119 NA 
HETATM   11  N   UNL     1      -7.011  12.334  67.304  1.00  0.00    -0.152 NA 
HETATM   12  C   UNL     1      -5.947  13.119  67.490  1.00  0.00    -0.086 A  
HETATM   13  C   UNL     1      -7.487  14.512  67.191  1.00  0.00     0.032 A  
HETATM   14  N   UNL     1      -6.200  14.459  67.446  1.00  0.00    -0.313 NA 
ENDBRANCH   9  10
BRANCH   9  15
HETATM   15  C   UNL     1      -9.575  11.286  66.881  1.00  0.00    -0.210 A  
HETATM   16  C   UNL     1     -10.087   8.489  66.772  1.00  0.00    -0.369 A  
HETATM   17  C   UNL     1      -9.975  10.565  68.026  1.00  0.00    -0.177 A  
HETATM   18  C   UNL     1     -10.344   7.083  66.715  1.00  0.00    -0.221 C  
HETATM   19  C   UNL     1      -9.733   9.189  65.618  1.00  0.00    -0.247 A  
HETATM   20  C   UNL     1     -10.213   9.186  67.977  1.00  0.00    -0.258 A  
HETATM   21  C   UNL     1      -9.497  10.567  65.670  1.00  0.00    -0.259 A  
HETATM   22  N   UNL     1     -10.554   5.941  66.663  1.00  0.00    -0.274 NA 
ENDBRANCH   9  15
ENDBRANCH   6   9
TORSDOF 3
ENDMDL
MODEL      124
REMARK 921   NORMALIZED FREE ENERGY PREDICTED BY IDOCK:   -3.45 KCAL/MOL
REMARK 922        TOTAL FREE ENERGY PREDICTED BY IDOCK:   -4.74 KCAL/MOL
REMARK 923 INTER-LIGAND FREE ENERGY PREDICTED BY IDOCK:   -4.14 KCAL/MOL
REMARK 924 INTRA-LIGAND FREE ENERGY PREDICTED BY IDOCK:   -0.60 KCAL/MOL
REMARK 927      BINDING AFFINITY PREDICTED BY RF-SCORE:    0.00 PKD
ROOT
HETATM    1  N   UNL     1     -11.332  11.805  63.456  1.00  0.00    -0.424 NA 
HETATM    2  C   UNL     1     -10.744  11.258  64.293  1.00  0.00    -0.349 C  
HETATM    3  C   UNL     1     -10.006  10.603  65.336  1.00  0.00    -0.343 A  
HETATM    4  C   UNL     1     -10.619  10.316  66.558  1.00  0.00    -0.202 A  
HETATM    5  C   UNL     1      -9.872   9.757  67.603  1.00  0.00    -0.202 A  
HETATM    6  C   UNL     1      -8.499   9.480  67.450  1.00  0.00    -0.125 A  
HETATM    7  C   UNL     1      -8.661  10.270  65.148  1.00  0.00    -0.181 A  
HETATM    8  C   UNL     1      -7.919   9.691  66.188  1.00  0.00    -0.108 A  
ENDROOT
BRANCH   6   9
HETATM    9  C   UNL     1      -7.704   8.964  68.657  1.00  0.00    -0.097 C  
BRANCH   9  10
HETATM   10  N   UNL     1      -6.960  10.079  69.260  1.00  0.00    -0.057 NA 
HETATM   11  N   UNL     1      -7.354  11.358  69.058  1.00  0.00    -0.118 NA 
HETATM   12  C   UNL     1      -6.402  12.036  69.703  1.00  0.00    -0.120 A  
HETATM   13  C   UNL     1      -5.820  10.044  70.009  1.00  0.00    -0.049 A  
HETATM   14  N   UNL     1      -5.435  11.269  70.284  1.00  0.00    -0.097 NA 
ENDBRANCH   9  10
BRANCH   9  15
HETATM   15  C   UNL     1      -8.452   8.076  69.675  1.00  0.00    -0.131 A  
HETATM   16  C   UNL     1      -9.973   6.500  71.491  1.00  0.00    -0.193 A  
HETATM   17  C   UNL     1      -8.978   8.624  70.864  1.00  0.00    -0.227 A  
HETATM   18  C   UNL     1     -10.739   5.706  72.402  1.00  0.00    -0.237 C  
HETATM   19  C   UNL     1      -9.498   5.947  70.301  1.00  0.00    -0.191 A  
HETATM   20  C   UNL     1      -9.715   7.846  71.766  1.00  0.00    -0.219 A  
HETATM   21  C   UNL     1      -8.764   6.728  69.401  1.00  0.00    -0.136 A  
HETATM   22  N   UNL     1     -11.361   5.057  73.139  1.00  0.00    -0.332 NA 
ENDBRANCH   9  15
ENDBRANCH   6   9
TORSDOF 3
ENDMDL
MODEL      125
REMARK 921   NORMALIZED FREE ENERGY PREDICTED BY IDOCK:   -3.41 KCAL/MOL
REMARK 922        TOTAL FREE ENERGY PREDICTED BY IDOCK:   -4.70 KCAL/MOL
REMARK 923 INTER-LIGAND FREE ENERGY PREDICTED BY IDOCK:   -4.16 KCAL/MOL
REMARK 924 INTRA-LIGAND FREE ENERGY PREDICTED BY IDOCK:   -0.54 KCAL/MOL
REMARK 927      BINDING AFFINITY PREDICTED BY RF-SCORE:    0.00 PKD
ROOT
HETATM    1  N   UNL     1     -14.313   9.442  72.783  1.00  0.00    -0.288 NA 
HETATM    2  C   UNL     1     -13.388   8.954  72.281  1.00  0.00    -0.449 C  
HETATM    3  C   UNL     1     -12.248   8.362  71.638  1.00  0.00    -0.358 A  
HETATM    4  C   UNL     1     -10.979   8.924  71.797  1.00  0.00    -0.431 A  
HETATM    5  C   UNL     1      -9.886   8.396  71.100  1.00  0.00    -0.242 A  
HETATM    6  C   UNL     1     -10.039   7.300  70.227  1.00  0.00    -0.196 A  
HETATM    7  C   UNL     1     -12.401   7.232  70.829  1.00  0.00    -0.223 A  
HETATM    8  C   UNL     1     -11.302   6.690  70.148  1.00  0.00    -0.440 A  
ENDROOT
BRANCH   6   9
HETATM    9  C   UNL     1      -8.831   6.825  69.409  1.00  0.00    -0.135 C  
BRANCH   9  10
HETATM   10  N   UNL     1      -7.704   6.559  70.314  1.00  0.00    -0.096 NA 
HETATM   11  N   UNL     1      -7.913   5.973  71.517  1.00  0.00    -0.112 NA 
HETATM   12  C   UNL     1      -6.681   5.975  72.032  1.00  0.00    -0.064 A  
HETATM   13  C   UNL     1      -6.385   6.871  70.159  1.00  0.00    -0.035 A  
HETATM   14  N   UNL     1      -5.721   6.531  71.239  1.00  0.00    -0.027 NA 
ENDBRANCH   9  10
BRANCH   9  15
HETATM   15  C   UNL     1      -9.074   5.720  68.358  1.00  0.00    -0.118 A  
HETATM   16  C   UNL     1      -9.357   3.686  66.389  1.00  0.00    -0.194 A  
HETATM   17  C   UNL     1      -9.145   6.030  66.984  1.00  0.00    -0.117 A  
HETATM   18  C   UNL     1      -9.500   2.661  65.400  1.00  0.00     0.014 C  
HETATM   19  C   UNL     1      -9.247   3.352  67.740  1.00  0.00    -0.235 A  
HETATM   20  C   UNL     1      -9.299   5.031  66.014  1.00  0.00    -0.161 A  
HETATM   21  C   UNL     1      -9.091   4.352  68.705  1.00  0.00    -0.173 A  
HETATM   22  N   UNL     1      -9.614   1.825  64.600  1.00  0.00    -0.081 NA 
ENDBRANCH   9  15
ENDBRANCH   6   9
TORSDOF 3
ENDMDL
MODEL      126
REMARK 921   NORMALIZED FREE ENERGY PREDICTED BY IDOCK:   -3.41 KCAL/MOL
REMARK 922        TOTAL FREE ENERGY PREDICTED BY IDOCK:   -4.70 KCAL/MOL
REMARK 923 INTER-LIGAND FREE ENERGY PREDICTED BY IDOCK:   -4.49 KCAL/MOL
REMARK 924 INTRA-LIGAND FREE ENERGY PREDICTED BY IDOCK:   -0.21 KCAL/MOL
REMARK 927      BINDING AFFINITY PREDICTED BY RF-SCORE:    0.00 PKD
ROOT
HETATM    1  N   UNL     1      -6.552   1.715  70.596  1.00  0.00    -0.024 NA 
HETATM    2  C   UNL     1      -7.182   2.629  70.257  1.00  0.00    -0.033 C  
HETATM    3  C   UNL     1      -7.979   3.753  69.854  1.00  0.00    -0.054 A  
HETATM    4  C   UNL     1      -7.806   4.996  70.466  1.00  0.00    -0.074 A  
HETATM    5  C   UNL     1      -8.645   6.066  70.132  1.00  0.00    -0.135 A  
HETATM    6  C   UNL     1      -9.675   5.915  69.182  1.00  0.00    -0.176 A  
HETATM    7  C   UNL     1      -8.954   3.607  68.861  1.00  0.00    -0.182 A  
HETATM    8  C   UNL     1      -9.779   4.685  68.510  1.00  0.00    -0.208 A  
ENDROOT
BRANCH   6   9
HETATM    9  C   UNL     1     -10.631   7.087  68.927  1.00  0.00    -0.215 C  
BRANCH   9  10
HETATM   10  N   UNL     1     -10.944   7.747  70.202  1.00  0.00    -0.256 NA 
HETATM   11  N   UNL     1     -12.095   7.466  70.857  1.00  0.00    -0.289 NA 
HETATM   12  C   UNL     1     -12.021   8.299  71.898  1.00  0.00    -0.330 A  
HETATM   13  C   UNL     1     -10.240   8.708  70.867  1.00  0.00    -0.209 A  
HETATM   14  N   UNL     1     -10.908   9.089  71.931  1.00  0.00    -0.362 NA 
ENDBRANCH   9  10
BRANCH   9  15
HETATM   15  C   UNL     1     -10.273   8.060  67.781  1.00  0.00    -0.282 A  
HETATM   16  C   UNL     1      -9.738   9.783  65.581  1.00  0.00    -0.357 A  
HETATM   17  C   UNL     1      -9.511   7.628  66.676  1.00  0.00    -0.255 A  
HETATM   18  C   UNL     1      -9.470  10.651  64.476  1.00  0.00    -0.264 C  
HETATM   19  C   UNL     1     -10.529  10.219  66.645  1.00  0.00    -0.260 A  
HETATM   20  C   UNL     1      -9.235   8.479  65.599  1.00  0.00    -0.161 A  
HETATM   21  C   UNL     1     -10.806   9.365  67.718  1.00  0.00    -0.223 A  
HETATM   22  N   UNL     1      -9.256  11.360  63.579  1.00  0.00    -0.140 NA 
ENDBRANCH   9  15
ENDBRANCH   6   9
TORSDOF 3
ENDMDL
MODEL      127
REMARK 921   NORMALIZED FREE ENERGY PREDICTED BY IDOCK:   -3.41 KCAL/MOL
REMARK 922        TOTAL FREE ENERGY PREDICTED BY IDOCK:   -4.70 KCAL/MOL
REMARK 923 INTER-LIGAND FREE ENERGY PREDICTED BY IDOCK:   -4.54 KCAL/MOL
REMARK 924 INTRA-LIGAND FREE ENERGY PREDICTED BY IDOCK:   -0.16 KCAL/MOL
REMARK 927      BINDING AFFINITY PREDICTED BY RF-SCORE:    0.00 PKD
ROOT
HETATM    1  N   UNL     1      -5.828  10.610  64.970  1.00  0.00    -0.112 NA 
HETATM    2  C   UNL     1      -6.553   9.850  65.463  1.00  0.00    -0.092 C  
HETATM    3  C   UNL     1      -7.455   8.899  66.050  1.00  0.00    -0.090 A  
HETATM    4  C   UNL     1      -6.960   7.748  66.667  1.00  0.00    -0.071 A  
HETATM    5  C   UNL     1      -7.845   6.781  67.161  1.00  0.00    -0.112 A  
HETATM    6  C   UNL     1      -9.240   6.943  67.044  1.00  0.00    -0.160 A  
HETATM    7  C   UNL     1      -8.837   9.105  65.989  1.00  0.00    -0.200 A  
HETATM    8  C   UNL     1      -9.722   8.147  66.503  1.00  0.00    -0.309 A  
ENDROOT
BRANCH   6   9
HETATM    9  C   UNL     1     -10.163   5.809  67.508  1.00  0.00    -0.196 C  
BRANCH   9  10
HETATM   10  N   UNL     1      -9.829   4.579  66.776  1.00  0.00    -0.209 NA 
HETATM   11  N   UNL     1     -10.048   4.493  65.442  1.00  0.00    -0.205 NA 
HETATM   12  C   UNL     1      -9.682   3.234  65.192  1.00  0.00    -0.058 A  
HETATM   13  C   UNL     1      -9.343   3.399  67.256  1.00  0.00    -0.201 A  
HETATM   14  N   UNL     1      -9.261   2.525  66.280  1.00  0.00    -0.085 NA 
ENDBRANCH   9  10
BRANCH   9  15
HETATM   15  C   UNL     1     -10.339   5.612  69.030  1.00  0.00    -0.314 A  
HETATM   16  C   UNL     1     -10.546   5.366  71.857  1.00  0.00    -0.288 A  
HETATM   17  C   UNL     1      -9.412   4.851  69.773  1.00  0.00    -0.223 A  
HETATM   18  C   UNL     1     -10.652   5.244  73.279  1.00  0.00    -0.245 C  
HETATM   19  C   UNL     1     -11.450   6.158  71.148  1.00  0.00    -0.314 A  
HETATM   20  C   UNL     1      -9.521   4.717  71.163  1.00  0.00    -0.218 A  
HETATM   21  C   UNL     1     -11.337   6.291  69.760  1.00  0.00    -0.506 A  
HETATM   22  N   UNL     1     -10.741   5.150  74.434  1.00  0.00    -0.330 NA 
ENDBRANCH   9  15
ENDBRANCH   6   9
TORSDOF 3
ENDMDL
MODEL      128
REMARK 921   NORMALIZED FREE ENERGY PREDICTED BY IDOCK:   -3.40 KCAL/MOL
REMARK 922        TOTAL FREE ENERGY PREDICTED BY IDOCK:   -4.68 KCAL/MOL
REMARK 923 INTER-LIGAND FREE ENERGY PREDICTED BY IDOCK:   -4.72 KCAL/MOL
REMARK 924 INTRA-LIGAND FREE ENERGY PREDICTED BY IDOCK:    0.04 KCAL/MOL
REMARK 927      BINDING AFFINITY PREDICTED BY RF-SCORE:    0.00 PKD
ROOT
HETATM    1  N   UNL     1      -8.016  15.812  66.917  1.00  0.00    -0.237 NA 
HETATM    2  C   UNL     1      -8.230  14.716  67.234  1.00  0.00    -0.212 C  
HETATM    3  C   UNL     1      -8.500  13.369  67.650  1.00  0.00    -0.187 A  
HETATM    4  C   UNL     1      -9.746  12.790  67.395  1.00  0.00    -0.197 A  
HETATM    5  C   UNL     1     -10.036  11.508  67.879  1.00  0.00    -0.202 A  
HETATM    6  C   UNL     1      -9.090  10.782  68.629  1.00  0.00    -0.173 A  
HETATM    7  C   UNL     1      -7.529  12.632  68.334  1.00  0.00    -0.127 A  
HETATM    8  C   UNL     1      -7.812  11.340  68.800  1.00  0.00    -0.139 A  
ENDROOT
BRANCH   6   9
HETATM    9  C   UNL     1      -9.493   9.425  69.223  1.00  0.00    -0.164 C  
BRANCH   9  10
HETATM   10  N   UNL     1     -10.642   9.609  70.121  1.00  0.00    -0.250 NA 
HETATM   11  N   UNL     1     -10.899   8.711  71.101  1.00  0.00    -0.244 NA 
HETATM   12  C   UNL     1     -12.027   9.200  71.622  1.00  0.00    -0.367 A  
HETATM   13  C   UNL     1     -11.598  10.582  70.103  1.00  0.00    -0.326 A  
HETATM   14  N   UNL     1     -12.497  10.335  71.028  1.00  0.00    -0.351 NA 
ENDBRANCH   9  10
BRANCH   9  15
HETATM   15  C   UNL     1      -9.635   8.236  68.249  1.00  0.00    -0.158 A  
HETATM   16  C   UNL     1      -9.846   5.943  66.577  1.00  0.00    -0.189 A  
HETATM   17  C   UNL     1      -8.503   7.676  67.619  1.00  0.00    -0.117 A  
HETATM   18  C   UNL     1      -9.954   4.790  65.737  1.00  0.00    -0.207 C  
HETATM   19  C   UNL     1     -10.973   6.454  67.222  1.00  0.00    -0.474 A  
HETATM   20  C   UNL     1      -8.608   6.556  66.785  1.00  0.00    -0.117 A  
HETATM   21  C   UNL     1     -10.865   7.571  68.057  1.00  0.00    -0.097 A  
HETATM   22  N   UNL     1     -10.047   3.852  65.056  1.00  0.00    -0.186 NA 
ENDBRANCH   9  15
ENDBRANCH   6   9
TORSDOF 3
ENDMDL
MODEL      129
REMARK 921   NORMALIZED FREE ENERGY PREDICTED BY IDOCK:   -3.39 KCAL/MOL
REMARK 922        TOTAL FREE ENERGY PREDICTED BY IDOCK:   -4.67 KCAL/MOL
REMARK 923 INTER-LIGAND FREE ENERGY PREDICTED BY IDOCK:   -4.12 KCAL/MOL
REMARK 924 INTRA-LIGAND FREE ENERGY PREDICTED BY IDOCK:   -0.55 KCAL/MOL
REMARK 927      BINDING AFFINITY PREDICTED BY RF-SCORE:    0.00 PKD
ROOT
HETATM    1  N   UNL     1     -12.024  12.189  66.537  1.00  0.00    -0.631 NA 
HETATM    2  C   UNL     1     -11.295  11.538  67.163  1.00  0.00    -0.284 C  
HETATM    3  C   UNL     1     -10.411  10.715  67.940  1.00  0.00    -0.243 A  
HETATM    4  C   UNL     1      -9.483   9.886  67.306  1.00  0.00    -0.181 A  
HETATM    5  C   UNL     1      -8.683   9.021  68.063  1.00  0.00    -0.129 A  
HETATM    6  C   UNL     1      -8.799   8.964  69.467  1.00  0.00    -0.144 A  
HETATM    7  C   UNL     1     -10.488  10.718  69.336  1.00  0.00    -0.229 A  
HETATM    8  C   UNL     1      -9.673   9.867  70.095  1.00  0.00    -0.255 A  
ENDROOT
BRANCH   6   9
HETATM    9  C   UNL     1      -7.974   7.927  70.241  1.00  0.00    -0.102 C  
BRANCH   9  10
HETATM   10  N   UNL     1      -7.062   8.620  71.162  1.00  0.00    -0.073 NA 
HETATM   11  N   UNL     1      -6.097   9.441  70.685  1.00  0.00    -0.057 NA 
HETATM   12  C   UNL     1      -5.473   9.801  71.810  1.00  0.00    -0.041 A  
HETATM   13  C   UNL     1      -6.985   8.532  72.521  1.00  0.00    -0.042 A  
HETATM   14  N   UNL     1      -5.976   9.252  72.953  1.00  0.00    -0.301 NA 
ENDBRANCH   9  10
BRANCH   9  15
HETATM   15  C   UNL     1      -8.735   6.742  70.875  1.00  0.00    -0.142 A  
HETATM   16  C   UNL     1     -10.070   4.601  72.190  1.00  0.00    -0.256 A  
HETATM   17  C   UNL     1      -8.075   5.529  71.164  1.00  0.00    -0.112 A  
HETATM   18  C   UNL     1     -10.744   3.526  72.852  1.00  0.00    -0.094 C  
HETATM   19  C   UNL     1     -10.731   5.807  71.951  1.00  0.00    -0.297 A  
HETATM   20  C   UNL     1      -8.735   4.469  71.798  1.00  0.00    -0.131 A  
HETATM   21  C   UNL     1     -10.068   6.864  71.320  1.00  0.00    -0.203 A  
HETATM   22  N   UNL     1     -11.294   2.656  73.391  1.00  0.00    -0.173 NA 
ENDBRANCH   9  15
ENDBRANCH   6   9
TORSDOF 3
ENDMDL
MODEL      130
REMARK 921   NORMALIZED FREE ENERGY PREDICTED BY IDOCK:   -3.36 KCAL/MOL
REMARK 922        TOTAL FREE ENERGY PREDICTED BY IDOCK:   -4.64 KCAL/MOL
REMARK 923 INTER-LIGAND FREE ENERGY PREDICTED BY IDOCK:   -3.98 KCAL/MOL
REMARK 924 INTRA-LIGAND FREE ENERGY PREDICTED BY IDOCK:   -0.66 KCAL/MOL
REMARK 927      BINDING AFFINITY PREDICTED BY RF-SCORE:    0.00 PKD
ROOT
HETATM    1  N   UNL     1     -12.437  12.705  65.670  1.00  0.00    -0.620 NA 
HETATM    2  C   UNL     1     -11.637  12.022  66.160  1.00  0.00    -0.304 C  
HETATM    3  C   UNL     1     -10.663  11.156  66.762  1.00  0.00    -0.326 A  
HETATM    4  C   UNL     1      -9.575  10.694  66.016  1.00  0.00    -0.244 A  
HETATM    5  C   UNL     1      -8.675   9.782  66.580  1.00  0.00    -0.139 A  
HETATM    6  C   UNL     1      -8.846   9.310  67.897  1.00  0.00    -0.124 A  
HETATM    7  C   UNL     1     -10.806  10.748  68.092  1.00  0.00    -0.284 A  
HETATM    8  C   UNL     1      -9.892   9.851  68.663  1.00  0.00    -0.168 A  
ENDROOT
BRANCH   6   9
HETATM    9  C   UNL     1      -7.892   8.233  68.432  1.00  0.00    -0.118 C  
BRANCH   9  10
HETATM   10  N   UNL     1      -7.478   8.586  69.797  1.00  0.00    -0.069 NA 
HETATM   11  N   UNL     1      -7.994   7.929  70.863  1.00  0.00    -0.091 NA 
HETATM   12  C   UNL     1      -7.424   8.580  71.880  1.00  0.00    -0.095 A  
HETATM   13  C   UNL     1      -6.632   9.573  70.210  1.00  0.00    -0.077 A  
HETATM   14  N   UNL     1      -6.596   9.605  71.522  1.00  0.00    -0.311 NA 
ENDBRANCH   9  10
BRANCH   9  15
HETATM   15  C   UNL     1      -8.315   6.758  68.260  1.00  0.00    -0.118 A  
HETATM   16  C   UNL     1      -9.055   4.015  68.103  1.00  0.00    -0.179 A  
HETATM   17  C   UNL     1      -7.351   5.744  68.083  1.00  0.00    -0.077 A  
HETATM   18  C   UNL     1      -9.430   2.636  68.024  1.00  0.00    -0.149 C  
HETATM   19  C   UNL     1     -10.023   4.997  68.320  1.00  0.00    -0.193 A  
HETATM   20  C   UNL     1      -7.715   4.394  67.991  1.00  0.00    -0.080 A  
HETATM   21  C   UNL     1      -9.655   6.344  68.413  1.00  0.00    -0.125 A  
HETATM   22  N   UNL     1      -9.738   1.517  67.963  1.00  0.00    -0.085 NA 
ENDBRANCH   9  15
ENDBRANCH   6   9
TORSDOF 3
ENDMDL
MODEL      131
REMARK 921   NORMALIZED FREE ENERGY PREDICTED BY IDOCK:   -3.30 KCAL/MOL
REMARK 922        TOTAL FREE ENERGY PREDICTED BY IDOCK:   -4.57 KCAL/MOL
REMARK 923 INTER-LIGAND FREE ENERGY PREDICTED BY IDOCK:   -4.05 KCAL/MOL
REMARK 924 INTRA-LIGAND FREE ENERGY PREDICTED BY IDOCK:   -0.52 KCAL/MOL
REMARK 927      BINDING AFFINITY PREDICTED BY RF-SCORE:    0.00 PKD
ROOT
HETATM    1  N   UNL     1     -14.261  15.953  73.737  1.00  0.00     0.956 NA 
HETATM    2  C   UNL     1     -13.625  15.810  72.777  1.00  0.00    -0.580 C  
HETATM    3  C   UNL     1     -12.832  15.610  71.598  1.00  0.00    -0.533 A  
HETATM    4  C   UNL     1     -13.433  15.198  70.406  1.00  0.00     0.020 A  
HETATM    5  C   UNL     1     -12.646  14.919  69.282  1.00  0.00     0.094 A  
HETATM    6  C   UNL     1     -11.243  15.042  69.328  1.00  0.00    -0.297 A  
HETATM    7  C   UNL     1     -11.447  15.801  71.637  1.00  0.00    -0.495 A  
HETATM    8  C   UNL     1     -10.661  15.543  70.505  1.00  0.00    -0.309 A  
ENDROOT
BRANCH   6   9
HETATM    9  C   UNL     1     -10.418  14.626  68.102  1.00  0.00    -0.237 C  
BRANCH   9  10
HETATM   10  N   UNL     1      -9.103  15.279  68.157  1.00  0.00    -0.173 NA 
HETATM   11  N   UNL     1      -8.839  16.360  67.386  1.00  0.00    -0.182 NA 
HETATM   12  C   UNL     1      -7.558  16.594  67.681  1.00  0.00    -0.153 A  
HETATM   13  C   UNL     1      -7.997  14.924  68.873  1.00  0.00    -0.163 A  
HETATM   14  N   UNL     1      -7.001  15.726  68.574  1.00  0.00    -0.114 NA 
ENDBRANCH   9  10
BRANCH   9  15
HETATM   15  C   UNL     1     -10.365  13.122  67.757  1.00  0.00    -0.230 A  
HETATM   16  C   UNL     1     -10.424  10.337  67.177  1.00  0.00    -0.311 A  
HETATM   17  C   UNL     1     -10.156  12.155  68.763  1.00  0.00    -0.098 A  
HETATM   18  C   UNL     1     -10.455   8.937  66.883  1.00  0.00    -0.234 C  
HETATM   19  C   UNL     1     -10.675  11.274  66.173  1.00  0.00    -0.307 A  
HETATM   20  C   UNL     1     -10.171  10.785  68.476  1.00  0.00    -0.192 A  
HETATM   21  C   UNL     1     -10.662  12.643  66.464  1.00  0.00    -0.273 A  
HETATM   22  N   UNL     1     -10.482   7.801  66.639  1.00  0.00    -0.241 NA 
ENDBRANCH   9  15
ENDBRANCH   6   9
TORSDOF 3
ENDMDL
MODEL      132
REMARK 921   NORMALIZED FREE ENERGY PREDICTED BY IDOCK:   -3.22 KCAL/MOL
REMARK 922        TOTAL FREE ENERGY PREDICTED BY IDOCK:   -4.47 KCAL/MOL
REMARK 923 INTER-LIGAND FREE ENERGY PREDICTED BY IDOCK:   -4.50 KCAL/MOL
REMARK 924 INTRA-LIGAND FREE ENERGY PREDICTED BY IDOCK:    0.03 KCAL/MOL
REMARK 927      BINDING AFFINITY PREDICTED BY RF-SCORE:    0.00 PKD
ROOT
HETATM    1  N   UNL     1     -12.349  14.082  66.643  1.00  0.00    -0.431 NA 
HETATM    2  C   UNL     1     -11.809  13.286  67.293  1.00  0.00    -0.372 C  
HETATM    3  C   UNL     1     -11.159  12.286  68.091  1.00  0.00    -0.285 A  
HETATM    4  C   UNL     1     -10.064  11.581  67.583  1.00  0.00    -0.202 A  
HETATM    5  C   UNL     1      -9.488  10.546  68.330  1.00  0.00    -0.158 A  
HETATM    6  C   UNL     1      -9.996  10.192  69.596  1.00  0.00    -0.262 A  
HETATM    7  C   UNL     1     -11.629  11.990  69.375  1.00  0.00    -0.393 A  
HETATM    8  C   UNL     1     -11.038  10.968  70.131  1.00  0.00    -0.175 A  
ENDROOT
BRANCH   6   9
HETATM    9  C   UNL     1      -9.395   8.985  70.328  1.00  0.00    -0.198 C  
BRANCH   9  10
HETATM   10  N   UNL     1     -10.435   8.347  71.148  1.00  0.00    -0.205 NA 
HETATM   11  N   UNL     1     -11.512   7.769  70.565  1.00  0.00    -0.247 NA 
HETATM   12  C   UNL     1     -12.217   7.382  71.631  1.00  0.00    -0.330 A  
HETATM   13  C   UNL     1     -10.532   8.274  72.507  1.00  0.00    -0.336 A  
HETATM   14  N   UNL     1     -11.660   7.688  72.838  1.00  0.00    -0.289 NA 
ENDBRANCH   9  10
BRANCH   9  15
HETATM   15  C   UNL     1      -8.549   7.996  69.496  1.00  0.00    -0.136 A  
HETATM   16  C   UNL     1      -6.884   6.167  68.091  1.00  0.00    -0.067 A  
HETATM   17  C   UNL     1      -7.387   8.426  68.823  1.00  0.00    -0.087 A  
HETATM   18  C   UNL     1      -6.047   5.245  67.385  1.00  0.00    -0.030 C  
HETATM   19  C   UNL     1      -8.006   5.712  68.785  1.00  0.00    -0.097 A  
HETATM   20  C   UNL     1      -6.574   7.529  68.119  1.00  0.00    -0.050 A  
HETATM   21  C   UNL     1      -8.815   6.610  69.489  1.00  0.00    -0.139 A  
HETATM   22  N   UNL     1      -5.370   4.492  66.814  1.00  0.00    -0.012 NA 
ENDBRANCH   9  15
ENDBRANCH   6   9
TORSDOF 3
ENDMDL
MODEL      133
REMARK 921   NORMALIZED FREE ENERGY PREDICTED BY IDOCK:   -2.97 KCAL/MOL
REMARK 922        TOTAL FREE ENERGY PREDICTED BY IDOCK:   -4.18 KCAL/MOL
REMARK 923 INTER-LIGAND FREE ENERGY PREDICTED BY IDOCK:   -4.10 KCAL/MOL
REMARK 924 INTRA-LIGAND FREE ENERGY PREDICTED BY IDOCK:   -0.09 KCAL/MOL
REMARK 927      BINDING AFFINITY PREDICTED BY RF-SCORE:    0.00 PKD
ROOT
HETATM    1  N   UNL     1      -5.508   8.899  73.943  1.00  0.00    -0.107 NA 
HETATM    2  C   UNL     1      -6.032   8.875  72.908  1.00  0.00    -0.039 C  
HETATM    3  C   UNL     1      -6.684   8.820  71.629  1.00  0.00    -0.078 A  
HETATM    4  C   UNL     1      -8.040   9.134  71.517  1.00  0.00     0.073 A  
HETATM    5  C   UNL     1      -8.692   8.996  70.285  1.00  0.00    -0.202 A  
HETATM    6  C   UNL     1      -8.004   8.536  69.145  1.00  0.00    -0.112 A  
HETATM    7  C   UNL     1      -5.973   8.428  70.490  1.00  0.00    -0.031 A  
HETATM    8  C   UNL     1      -6.622   8.310  69.253  1.00  0.00    -0.039 A  
ENDROOT
BRANCH   6   9
HETATM    9  C   UNL     1      -8.787   8.304  67.845  1.00  0.00    -0.138 C  
BRANCH   9  10
HETATM   10  N   UNL     1      -9.445   6.990  67.902  1.00  0.00    -0.125 NA 
HETATM   11  N   UNL     1      -8.953   6.010  68.696  1.00  0.00    -0.118 NA 
HETATM   12  C   UNL     1      -9.776   4.998  68.411  1.00  0.00    -0.152 A  
HETATM   13  C   UNL     1     -10.523   6.539  67.199  1.00  0.00    -0.287 A  
HETATM   14  N   UNL     1     -10.740   5.276  67.486  1.00  0.00    -0.082 NA 
ENDBRANCH   9  10
BRANCH   9  15
HETATM   15  C   UNL     1      -9.699   9.448  67.350  1.00  0.00    -0.205 A  
HETATM   16  C   UNL     1     -11.263  11.663  66.490  1.00  0.00    -0.356 A  
HETATM   17  C   UNL     1     -10.500  10.178  68.252  1.00  0.00    -0.244 A  
HETATM   18  C   UNL     1     -12.049  12.778  66.055  1.00  0.00    -0.395 C  
HETATM   19  C   UNL     1     -10.446  10.981  65.587  1.00  0.00    -0.293 A  
HETATM   20  C   UNL     1     -11.282  11.260  67.828  1.00  0.00    -0.354 A  
HETATM   21  C   UNL     1      -9.665   9.903  66.015  1.00  0.00    -0.310 A  
HETATM   22  N   UNL     1     -12.684  13.683  65.698  1.00  0.00    -0.503 NA 
ENDBRANCH   9  15
ENDBRANCH   6   9
TORSDOF 3
ENDMDL
MODEL      134
REMARK 921   NORMALIZED FREE ENERGY PREDICTED BY IDOCK:   -2.77 KCAL/MOL
REMARK 922        TOTAL FREE ENERGY PREDICTED BY IDOCK:   -3.95 KCAL/MOL
REMARK 923 INTER-LIGAND FREE ENERGY PREDICTED BY IDOCK:   -3.50 KCAL/MOL
REMARK 924 INTRA-LIGAND FREE ENERGY PREDICTED BY IDOCK:   -0.45 KCAL/MOL
REMARK 927      BINDING AFFINITY PREDICTED BY RF-SCORE:    0.00 PKD
ROOT
HETATM    1  N   UNL     1      -8.311   2.156  63.406  1.00  0.00    -0.080 NA 
HETATM    2  C   UNL     1      -8.373   3.129  64.036  1.00  0.00    -0.090 C  
HETATM    3  C   UNL     1      -8.428   4.326  64.827  1.00  0.00    -0.119 A  
HETATM    4  C   UNL     1      -7.951   5.533  64.311  1.00  0.00    -0.120 A  
HETATM    5  C   UNL     1      -7.925   6.679  65.115  1.00  0.00    -0.124 A  
HETATM    6  C   UNL     1      -8.371   6.640  66.452  1.00  0.00    -0.121 A  
HETATM    7  C   UNL     1      -8.936   4.290  66.129  1.00  0.00    -0.123 A  
HETATM    8  C   UNL     1      -8.930   5.442  66.928  1.00  0.00    -0.110 A  
ENDROOT
BRANCH   6   9
HETATM    9  C   UNL     1      -8.227   7.896  67.322  1.00  0.00    -0.122 C  
BRANCH   9  10
HETATM   10  N   UNL     1      -8.747   9.059  66.589  1.00  0.00    -0.125 NA 
HETATM   11  N   UNL     1      -9.956   9.003  65.981  1.00  0.00    -0.256 NA 
HETATM   12  C   UNL     1     -10.016  10.201  65.395  1.00  0.00    -0.307 A  
HETATM   13  C   UNL     1      -8.152  10.264  66.356  1.00  0.00    -0.123 A  
HETATM   14  N   UNL     1      -8.923  10.996  65.587  1.00  0.00    -0.200 NA 
ENDBRANCH   9  10
BRANCH   9  15
HETATM   15  C   UNL     1      -8.707   7.805  68.788  1.00  0.00    -0.128 A  
HETATM   16  C   UNL     1      -9.611   7.473  71.464  1.00  0.00    -0.171 A  
HETATM   17  C   UNL     1     -10.081   7.728  69.096  1.00  0.00    -0.196 A  
HETATM   18  C   UNL     1     -10.065   7.306  72.812  1.00  0.00    -0.210 C  
HETATM   19  C   UNL     1      -8.246   7.505  71.178  1.00  0.00    -0.101 A  
HETATM   20  C   UNL     1     -10.528   7.578  70.415  1.00  0.00    -0.227 A  
HETATM   21  C   UNL     1      -7.802   7.652  69.860  1.00  0.00    -0.102 A  
HETATM   22  N   UNL     1     -10.428   7.168  73.907  1.00  0.00    -0.343 NA 
ENDBRANCH   9  15
ENDBRANCH   6   9
TORSDOF 3
ENDMDL
MODEL      135
REMARK 921   NORMALIZED FREE ENERGY PREDICTED BY IDOCK:   -2.77 KCAL/MOL
REMARK 922        TOTAL FREE ENERGY PREDICTED BY IDOCK:   -3.95 KCAL/MOL
REMARK 923 INTER-LIGAND FREE ENERGY PREDICTED BY IDOCK:   -4.06 KCAL/MOL
REMARK 924 INTRA-LIGAND FREE ENERGY PREDICTED BY IDOCK:    0.11 KCAL/MOL
REMARK 927      BINDING AFFINITY PREDICTED BY RF-SCORE:    0.00 PKD
ROOT
HETATM    1  N   UNL     1      -7.897   8.218  72.735  1.00  0.00    -0.219 NA 
HETATM    2  C   UNL     1      -7.966   8.824  71.747  1.00  0.00    -0.049 C  
HETATM    3  C   UNL     1      -8.054   9.595  70.540  1.00  0.00    -0.145 A  
HETATM    4  C   UNL     1      -6.895   9.946  69.843  1.00  0.00    -0.096 A  
HETATM    5  C   UNL     1      -6.977  10.771  68.715  1.00  0.00    -0.075 A  
HETATM    6  C   UNL     1      -8.217  11.266  68.263  1.00  0.00    -0.143 A  
HETATM    7  C   UNL     1      -9.297  10.023  70.063  1.00  0.00    -0.165 A  
HETATM    8  C   UNL     1      -9.380  10.832  68.921  1.00  0.00    -0.183 A  
ENDROOT
BRANCH   6   9
HETATM    9  C   UNL     1      -8.243  12.248  67.085  1.00  0.00    -0.179 C  
BRANCH   9  10
HETATM   10  N   UNL     1      -9.488  12.066  66.327  1.00  0.00    -0.227 NA 
HETATM   11  N   UNL     1     -10.669  12.498  66.830  1.00  0.00    -0.233 NA 
HETATM   12  C   UNL     1     -11.525  12.091  65.890  1.00  0.00    -0.333 A  
HETATM   13  C   UNL     1      -9.681  11.441  65.129  1.00  0.00    -0.244 A  
HETATM   14  N   UNL     1     -10.961  11.425  64.840  1.00  0.00    -0.256 NA 
ENDBRANCH   9  10
BRANCH   9  15
HETATM   15  C   UNL     1      -7.892  13.723  67.381  1.00  0.00    -0.167 A  
HETATM   16  C   UNL     1      -7.155  16.441  67.785  1.00  0.00    -0.151 A  
HETATM   17  C   UNL     1      -6.643  14.073  67.936  1.00  0.00    -0.173 A  
HETATM   18  C   UNL     1      -6.786  17.809  67.987  1.00  0.00    -0.191 C  
HETATM   19  C   UNL     1      -8.379  16.120  67.195  1.00  0.00    -0.225 A  
HETATM   20  C   UNL     1      -6.285  15.410  68.149  1.00  0.00    -0.135 A  
HETATM   21  C   UNL     1      -8.732  14.784  66.982  1.00  0.00    -0.258 A  
HETATM   22  N   UNL     1      -6.491  18.922  68.148  1.00  0.00    -0.214 NA 
ENDBRANCH   9  15
ENDBRANCH   6   9
TORSDOF 3
ENDMDL
MODEL      136
REMARK 921   NORMALIZED FREE ENERGY PREDICTED BY IDOCK:   -2.73 KCAL/MOL
REMARK 922        TOTAL FREE ENERGY PREDICTED BY IDOCK:   -3.90 KCAL/MOL
REMARK 923 INTER-LIGAND FREE ENERGY PREDICTED BY IDOCK:   -3.33 KCAL/MOL
REMARK 924 INTRA-LIGAND FREE ENERGY PREDICTED BY IDOCK:   -0.58 KCAL/MOL
REMARK 927      BINDING AFFINITY PREDICTED BY RF-SCORE:    0.00 PKD
ROOT
HETATM    1  N   UNL     1      -5.598  17.911  65.636  1.00  0.00    -0.173 NA 
HETATM    2  C   UNL     1      -6.560  17.453  66.096  1.00  0.00    -0.213 C  
HETATM    3  C   UNL     1      -7.756  16.876  66.643  1.00  0.00    -0.298 A  
HETATM    4  C   UNL     1      -7.696  15.676  67.354  1.00  0.00    -0.215 A  
HETATM    5  C   UNL     1      -8.874  15.072  67.811  1.00  0.00    -0.172 A  
HETATM    6  C   UNL     1     -10.134  15.652  67.562  1.00  0.00    -0.253 A  
HETATM    7  C   UNL     1      -8.993  17.498  66.448  1.00  0.00    -0.264 A  
HETATM    8  C   UNL     1     -10.170  16.904  66.924  1.00  0.00    -0.296 A  
ENDROOT
BRANCH   6   9
HETATM    9  C   UNL     1     -11.400  14.900  67.993  1.00  0.00    -0.324 C  
BRANCH   9  10
HETATM   10  N   UNL     1     -11.254  13.475  67.664  1.00  0.00    -0.269 NA 
HETATM   11  N   UNL     1     -10.835  12.592  68.601  1.00  0.00    -0.244 NA 
HETATM   12  C   UNL     1     -10.778  11.460  67.896  1.00  0.00    -0.200 A  
HETATM   13  C   UNL     1     -11.437  12.847  66.467  1.00  0.00    -0.341 A  
HETATM   14  N   UNL     1     -11.122  11.577  66.581  1.00  0.00    -0.302 NA 
ENDBRANCH   9  10
BRANCH   9  15
HETATM   15  C   UNL     1     -11.939  15.169  69.415  1.00  0.00    -0.337 A  
HETATM   16  C   UNL     1     -12.926  15.502  72.062  1.00  0.00    -0.517 A  
HETATM   17  C   UNL     1     -13.299  14.963  69.725  1.00  0.00     0.862 A  
HETATM   18  C   UNL     1     -13.420  15.669  73.395  1.00  0.00    -0.346 C  
HETATM   19  C   UNL     1     -11.568  15.670  71.788  1.00  0.00    -0.531 A  
HETATM   20  C   UNL     1     -13.789  15.141  71.025  1.00  0.00    -0.423 A  
HETATM   21  C   UNL     1     -11.081  15.490  70.488  1.00  0.00    -0.369 A  
HETATM   22  N   UNL     1     -13.817  15.805  74.479  1.00  0.00     1.898 NA 
ENDBRANCH   9  15
ENDBRANCH   6   9
TORSDOF 3
ENDMDL
MODEL      137
REMARK 921   NORMALIZED FREE ENERGY PREDICTED BY IDOCK:   -2.55 KCAL/MOL
REMARK 922        TOTAL FREE ENERGY PREDICTED BY IDOCK:   -3.70 KCAL/MOL
REMARK 923 INTER-LIGAND FREE ENERGY PREDICTED BY IDOCK:   -3.17 KCAL/MOL
REMARK 924 INTRA-LIGAND FREE ENERGY PREDICTED BY IDOCK:   -0.52 KCAL/MOL
REMARK 927      BINDING AFFINITY PREDICTED BY RF-SCORE:    0.00 PKD
ROOT
HETATM    1  N   UNL     1     -12.407  14.419  68.550  1.00  0.00    -0.124 NA 
HETATM    2  C   UNL     1     -11.750  13.463  68.595  1.00  0.00    -0.349 C  
HETATM    3  C   UNL     1     -10.948  12.273  68.631  1.00  0.00    -0.276 A  
HETATM    4  C   UNL     1      -9.660  12.275  68.091  1.00  0.00    -0.213 A  
HETATM    5  C   UNL     1      -8.914  11.090  68.049  1.00  0.00    -0.145 A  
HETATM    6  C   UNL     1      -9.443   9.880  68.542  1.00  0.00    -0.149 A  
HETATM    7  C   UNL     1     -11.458  11.094  69.185  1.00  0.00    -0.366 A  
HETATM    8  C   UNL     1     -10.703   9.913  69.162  1.00  0.00    -0.247 A  
ENDROOT
BRANCH   6   9
HETATM    9  C   UNL     1      -8.627   8.590  68.379  1.00  0.00    -0.139 C  
BRANCH   9  10
HETATM   10  N   UNL     1      -8.374   8.005  69.703  1.00  0.00    -0.124 NA 
HETATM   11  N   UNL     1      -7.487   8.580  70.550  1.00  0.00    -0.057 NA 
HETATM   12  C   UNL     1      -7.507   7.727  71.577  1.00  0.00    -0.077 A  
HETATM   13  C   UNL     1      -8.883   6.864  70.249  1.00  0.00    -0.148 A  
HETATM   14  N   UNL     1      -8.335   6.653  71.424  1.00  0.00    -0.120 NA 
ENDBRANCH   9  10
BRANCH   9  15
HETATM   15  C   UNL     1      -9.106   7.574  67.319  1.00  0.00    -0.137 A  
HETATM   16  C   UNL     1      -9.929   5.581  65.464  1.00  0.00     0.272 A  
HETATM   17  C   UNL     1      -8.199   7.000  66.405  1.00  0.00    -0.117 A  
HETATM   18  C   UNL     1     -10.345   4.578  64.531  1.00  0.00     0.136 C  
HETATM   19  C   UNL     1     -10.835   6.105  66.387  1.00  0.00    -0.016 A  
HETATM   20  C   UNL     1      -8.605   6.029  65.481  1.00  0.00    -0.145 A  
HETATM   21  C   UNL     1     -10.425   7.073  67.309  1.00  0.00    -0.363 A  
HETATM   22  N   UNL     1     -10.687   3.763  63.777  1.00  0.00    -0.268 NA 
ENDBRANCH   9  15
ENDBRANCH   6   9
TORSDOF 3
ENDMDL
MODEL      138
REMARK 921   NORMALIZED FREE ENERGY PREDICTED BY IDOCK:   -2.51 KCAL/MOL
REMARK 922        TOTAL FREE ENERGY PREDICTED BY IDOCK:   -3.65 KCAL/MOL
REMARK 923 INTER-LIGAND FREE ENERGY PREDICTED BY IDOCK:   -3.21 KCAL/MOL
REMARK 924 INTRA-LIGAND FREE ENERGY PREDICTED BY IDOCK:   -0.43 KCAL/MOL
REMARK 927      BINDING AFFINITY PREDICTED BY RF-SCORE:    0.00 PKD
ROOT
HETATM    1  N   UNL     1     -11.948  15.926  68.513  1.00  0.00    -0.198 NA 
HETATM    2  C   UNL     1     -11.181  15.055  68.532  1.00  0.00    -0.287 C  
HETATM    3  C   UNL     1     -10.237  13.974  68.530  1.00  0.00    -0.237 A  
HETATM    4  C   UNL     1      -8.869  14.234  68.426  1.00  0.00    -0.187 A  
HETATM    5  C   UNL     1      -7.958  13.174  68.337  1.00  0.00    -0.130 A  
HETATM    6  C   UNL     1      -8.396  11.835  68.345  1.00  0.00    -0.153 A  
HETATM    7  C   UNL     1     -10.680  12.649  68.608  1.00  0.00    -0.269 A  
HETATM    8  C   UNL     1      -9.765  11.589  68.541  1.00  0.00    -0.191 A  
ENDROOT
BRANCH   6   9
HETATM    9  C   UNL     1      -7.368  10.713  68.142  1.00  0.00    -0.088 C  
BRANCH   9  10
HETATM   10  N   UNL     1      -7.231   9.948  69.389  1.00  0.00    -0.073 NA 
HETATM   11  N   UNL     1      -7.932   8.804  69.574  1.00  0.00    -0.094 NA 
HETATM   12  C   UNL     1      -7.579   8.473  70.818  1.00  0.00    -0.074 A  
HETATM   13  C   UNL     1      -6.496  10.241  70.500  1.00  0.00    -0.104 A  
HETATM   14  N   UNL     1      -6.714   9.336  71.426  1.00  0.00    -0.255 NA 
ENDBRANCH   9  10
BRANCH   9  15
HETATM   15  C   UNL     1      -7.509   9.841  66.875  1.00  0.00    -0.091 A  
HETATM   16  C   UNL     1      -7.845   8.119  64.635  1.00  0.00    -0.136 A  
HETATM   17  C   UNL     1      -6.638   8.756  66.643  1.00  0.00    -0.064 A  
HETATM   18  C   UNL     1      -8.016   7.254  63.508  1.00  0.00    -0.066 C  
HETATM   19  C   UNL     1      -8.744   9.161  64.867  1.00  0.00    -0.215 A  
HETATM   20  C   UNL     1      -6.793   7.916  65.533  1.00  0.00    -0.055 A  
HETATM   21  C   UNL     1      -8.587   9.997  65.978  1.00  0.00    -0.148 A  
HETATM   22  N   UNL     1      -8.160   6.554  62.592  1.00  0.00    -0.098 NA 
ENDBRANCH   9  15
ENDBRANCH   6   9
TORSDOF 3
ENDMDL
MODEL      139
REMARK 921   NORMALIZED FREE ENERGY PREDICTED BY IDOCK:   -2.47 KCAL/MOL
REMARK 922        TOTAL FREE ENERGY PREDICTED BY IDOCK:   -3.59 KCAL/MOL
REMARK 923 INTER-LIGAND FREE ENERGY PREDICTED BY IDOCK:   -2.86 KCAL/MOL
REMARK 924 INTRA-LIGAND FREE ENERGY PREDICTED BY IDOCK:   -0.73 KCAL/MOL
REMARK 927      BINDING AFFINITY PREDICTED BY RF-SCORE:    0.00 PKD
ROOT
HETATM    1  N   UNL     1      -5.581  10.477  65.594  1.00  0.00    -0.103 NA 
HETATM    2  C   UNL     1      -6.132  11.371  66.089  1.00  0.00     0.049 C  
HETATM    3  C   UNL     1      -6.830  12.460  66.711  1.00  0.00     0.297 A  
HETATM    4  C   UNL     1      -6.377  12.987  67.923  1.00  0.00    -0.134 A  
HETATM    5  C   UNL     1      -7.109  13.990  68.570  1.00  0.00    -0.102 A  
HETATM    6  C   UNL     1      -8.310  14.483  68.022  1.00  0.00    -0.153 A  
HETATM    7  C   UNL     1      -7.984  12.988  66.122  1.00  0.00     1.470 A  
HETATM    8  C   UNL     1      -8.705  14.008  66.760  1.00  0.00    -0.134 A  
ENDROOT
BRANCH   6   9
HETATM    9  C   UNL     1      -9.128  15.508  68.819  1.00  0.00    -0.207 C  
BRANCH   9  10
HETATM   10  N   UNL     1      -9.452  16.651  67.954  1.00  0.00    -0.223 NA 
HETATM   11  N   UNL     1     -10.698  16.796  67.445  1.00  0.00    -0.288 NA 
HETATM   12  C   UNL     1     -10.553  17.887  66.689  1.00  0.00    -0.238 A  
HETATM   13  C   UNL     1      -8.634  17.644  67.501  1.00  0.00    -0.222 A  
HETATM   14  N   UNL     1      -9.299  18.426  66.683  1.00  0.00    -0.297 NA 
ENDBRANCH   9  10
BRANCH   9  15
HETATM   15  C   UNL     1     -10.322  14.979  69.644  1.00  0.00    -0.201 A  
HETATM   16  C   UNL     1     -12.418  13.893  71.232  1.00  0.00    -0.440 A  
HETATM   17  C   UNL     1     -10.995  13.797  69.268  1.00  0.00    -0.205 A  
HETATM   18  C   UNL     1     -13.472  13.349  72.032  1.00  0.00    -0.494 C  
HETATM   19  C   UNL     1     -11.740  15.040  71.645  1.00  0.00    -0.439 A  
HETATM   20  C   UNL     1     -12.036  13.270  70.041  1.00  0.00    -0.385 A  
HETATM   21  C   UNL     1     -10.698  15.563  70.871  1.00  0.00    -0.140 A  
HETATM   22  N   UNL     1     -14.327  12.910  72.686  1.00  0.00    -0.277 NA 
ENDBRANCH   9  15
ENDBRANCH   6   9
TORSDOF 3
ENDMDL
MODEL      140
REMARK 921   NORMALIZED FREE ENERGY PREDICTED BY IDOCK:   -2.43 KCAL/MOL
REMARK 922        TOTAL FREE ENERGY PREDICTED BY IDOCK:   -3.55 KCAL/MOL
REMARK 923 INTER-LIGAND FREE ENERGY PREDICTED BY IDOCK:   -3.73 KCAL/MOL
REMARK 924 INTRA-LIGAND FREE ENERGY PREDICTED BY IDOCK:    0.18 KCAL/MOL
REMARK 927      BINDING AFFINITY PREDICTED BY RF-SCORE:    0.00 PKD
ROOT
HETATM    1  N   UNL     1      -7.305   9.083  67.456  1.00  0.00    -0.080 NA 
HETATM    2  C   UNL     1      -7.653  10.184  67.343  1.00  0.00    -0.094 C  
HETATM    3  C   UNL     1      -8.099  11.544  67.222  1.00  0.00    -0.153 A  
HETATM    4  C   UNL     1      -7.338  12.585  67.760  1.00  0.00    -0.124 A  
HETATM    5  C   UNL     1      -7.818  13.899  67.718  1.00  0.00    -0.172 A  
HETATM    6  C   UNL     1      -9.068  14.199  67.141  1.00  0.00    -0.240 A  
HETATM    7  C   UNL     1      -9.310  11.837  66.587  1.00  0.00    -0.205 A  
HETATM    8  C   UNL     1      -9.780  13.156  66.525  1.00  0.00    -0.268 A  
ENDROOT
BRANCH   6   9
HETATM    9  C   UNL     1      -9.595  15.639  67.211  1.00  0.00    -0.217 C  
BRANCH   9  10
HETATM   10  N   UNL     1     -10.252  15.854  68.509  1.00  0.00    -0.221 NA 
HETATM   11  N   UNL     1      -9.919  15.097  69.581  1.00  0.00    -0.208 NA 
HETATM   12  C   UNL     1     -10.766  15.556  70.505  1.00  0.00    -0.284 A  
HETATM   13  C   UNL     1     -11.253  16.722  68.831  1.00  0.00    -0.113 A  
HETATM   14  N   UNL     1     -11.611  16.540  70.081  1.00  0.00     0.022 NA 
ENDBRANCH   9  10
BRANCH   9  15
HETATM   15  C   UNL     1      -8.630  16.771  66.795  1.00  0.00    -0.264 A  
HETATM   16  C   UNL     1      -6.827  18.774  65.883  1.00  0.00    -0.307 A  
HETATM   17  C   UNL     1      -7.233  16.604  66.892  1.00  0.00    -0.261 A  
HETATM   18  C   UNL     1      -5.922  19.783  65.423  1.00  0.00    -0.196 C  
HETATM   19  C   UNL     1      -8.205  18.944  65.738  1.00  0.00     0.201 A  
HETATM   20  C   UNL     1      -6.344  17.595  66.456  1.00  0.00    -0.252 A  
HETATM   21  C   UNL     1      -9.090  17.951  66.172  1.00  0.00    -0.121 A  
HETATM   22  N   UNL     1      -5.191  20.604  65.047  1.00  0.00    -0.174 NA 
ENDBRANCH   9  15
ENDBRANCH   6   9
TORSDOF 3
ENDMDL
MODEL      141
REMARK 921   NORMALIZED FREE ENERGY PREDICTED BY IDOCK:   -2.31 KCAL/MOL
REMARK 922        TOTAL FREE ENERGY PREDICTED BY IDOCK:   -3.41 KCAL/MOL
REMARK 923 INTER-LIGAND FREE ENERGY PREDICTED BY IDOCK:   -2.95 KCAL/MOL
REMARK 924 INTRA-LIGAND FREE ENERGY PREDICTED BY IDOCK:   -0.45 KCAL/MOL
REMARK 927      BINDING AFFINITY PREDICTED BY RF-SCORE:    0.00 PKD
ROOT
HETATM    1  N   UNL     1     -13.980  15.373  71.267  1.00  0.00    -0.519 NA 
HETATM    2  C   UNL     1     -13.072  15.243  70.556  1.00  0.00    -0.289 C  
HETATM    3  C   UNL     1     -11.948  15.059  69.682  1.00  0.00    -0.356 A  
HETATM    4  C   UNL     1     -12.145  14.864  68.313  1.00  0.00    -0.146 A  
HETATM    5  C   UNL     1     -11.053  14.597  67.478  1.00  0.00    -0.319 A  
HETATM    6  C   UNL     1      -9.744  14.516  67.995  1.00  0.00    -0.218 A  
HETATM    7  C   UNL     1     -10.648  15.048  70.197  1.00  0.00    -0.155 A  
HETATM    8  C   UNL     1      -9.552  14.803  69.357  1.00  0.00    -0.013 A  
ENDROOT
BRANCH   6   9
HETATM    9  C   UNL     1      -8.596  14.120  67.057  1.00  0.00    -0.184 C  
BRANCH   9  10
HETATM   10  N   UNL     1      -7.625  15.222  66.985  1.00  0.00    -0.184 NA 
HETATM   11  N   UNL     1      -6.296  14.967  66.988  1.00  0.00    -0.059 NA 
HETATM   12  C   UNL     1      -5.787  16.202  66.977  1.00  0.00     0.093 A  
HETATM   13  C   UNL     1      -7.853  16.567  66.962  1.00  0.00    -0.206 A  
HETATM   14  N   UNL     1      -6.708  17.209  66.979  1.00  0.00    -0.172 NA 
ENDBRANCH   9  10
BRANCH   9  15
HETATM   15  C   UNL     1      -7.959  12.728  67.260  1.00  0.00    -0.156 A  
HETATM   16  C   UNL     1      -6.940  10.102  67.662  1.00  0.00    -0.085 A  
HETATM   17  C   UNL     1      -7.747  12.210  68.555  1.00  0.00    -0.119 A  
HETATM   18  C   UNL     1      -6.427   8.781  67.861  1.00  0.00    -0.057 C  
HETATM   19  C   UNL     1      -7.181  10.578  66.372  1.00  0.00    -0.129 A  
HETATM   20  C   UNL     1      -7.231  10.923  68.754  1.00  0.00    -0.091 A  
HETATM   21  C   UNL     1      -7.698  11.863  66.177  1.00  0.00     0.450 A  
HETATM   22  N   UNL     1      -6.012   7.707  68.019  1.00  0.00    -0.038 NA 
ENDBRANCH   9  15
ENDBRANCH   6   9
TORSDOF 3
ENDMDL
MODEL      142
REMARK 921   NORMALIZED FREE ENERGY PREDICTED BY IDOCK:   -2.12 KCAL/MOL
REMARK 922        TOTAL FREE ENERGY PREDICTED BY IDOCK:   -3.19 KCAL/MOL
REMARK 923 INTER-LIGAND FREE ENERGY PREDICTED BY IDOCK:   -2.75 KCAL/MOL
REMARK 924 INTRA-LIGAND FREE ENERGY PREDICTED BY IDOCK:   -0.44 KCAL/MOL
REMARK 927      BINDING AFFINITY PREDICTED BY RF-SCORE:    0.00 PKD
ROOT
HETATM    1  N   UNL     1     -13.829   8.863  72.828  1.00  0.00    -0.352 NA 
HETATM    2  C   UNL     1     -13.139   9.546  72.193  1.00  0.00    -0.436 C  
HETATM    3  C   UNL     1     -12.300  10.387  71.386  1.00  0.00    -0.500 A  
HETATM    4  C   UNL     1     -12.444  11.776  71.431  1.00  0.00    -0.281 A  
HETATM    5  C   UNL     1     -11.685  12.588  70.580  1.00  0.00     0.036 A  
HETATM    6  C   UNL     1     -10.771  12.029  69.664  1.00  0.00     0.274 A  
HETATM    7  C   UNL     1     -11.348   9.824  70.531  1.00  0.00    -0.382 A  
HETATM    8  C   UNL     1     -10.572  10.639  69.694  1.00  0.00    -0.260 A  
ENDROOT
BRANCH   6   9
HETATM    9  C   UNL     1     -10.039  12.955  68.683  1.00  0.00    -0.128 C  
BRANCH   9  10
HETATM   10  N   UNL     1      -8.604  12.636  68.692  1.00  0.00    -0.028 NA 
HETATM   11  N   UNL     1      -7.730  13.424  69.361  1.00  0.00     0.398 NA 
HETATM   12  C   UNL     1      -6.566  12.840  69.068  1.00  0.00    -0.099 A  
HETATM   13  C   UNL     1      -7.944  11.630  68.050  1.00  0.00    -0.132 A  
HETATM   14  N   UNL     1      -6.653  11.748  68.254  1.00  0.00    -0.054 NA 
ENDBRANCH   9  10
BRANCH   9  15
HETATM   15  C   UNL     1     -10.644  13.114  67.271  1.00  0.00    -0.250 A  
HETATM   16  C   UNL     1     -11.821  13.556  64.718  1.00  0.00    -0.412 A  
HETATM   17  C   UNL     1     -12.007  12.845  67.032  1.00  0.00    -0.390 A  
HETATM   18  C   UNL     1     -12.411  13.779  63.434  1.00  0.00     0.001 C  
HETATM   19  C   UNL     1     -10.479  13.868  64.942  1.00  0.00    -0.446 A  
HETATM   20  C   UNL     1     -12.585  13.049  65.772  1.00  0.00    -0.269 A  
HETATM   21  C   UNL     1      -9.906  13.667  66.202  1.00  0.00    -0.304 A  
HETATM   22  N   UNL     1     -12.886  13.963  62.389  1.00  0.00     1.263 NA 
ENDBRANCH   9  15
ENDBRANCH   6   9
TORSDOF 3
ENDMDL
MODEL      143
REMARK 921   NORMALIZED FREE ENERGY PREDICTED BY IDOCK:   -2.10 KCAL/MOL
REMARK 922        TOTAL FREE ENERGY PREDICTED BY IDOCK:   -3.16 KCAL/MOL
REMARK 923 INTER-LIGAND FREE ENERGY PREDICTED BY IDOCK:   -2.68 KCAL/MOL
REMARK 924 INTRA-LIGAND FREE ENERGY PREDICTED BY IDOCK:   -0.48 KCAL/MOL
REMARK 927      BINDING AFFINITY PREDICTED BY RF-SCORE:    0.00 PKD
ROOT
HETATM    1  N   UNL     1      -5.145   6.462  71.798  1.00  0.00    -0.022 NA 
HETATM    2  C   UNL     1      -5.717   6.520  70.790  1.00  0.00    -0.023 C  
HETATM    3  C   UNL     1      -6.434   6.614  69.550  1.00  0.00    -0.044 A  
HETATM    4  C   UNL     1      -5.789   7.067  68.396  1.00  0.00    -0.022 A  
HETATM    5  C   UNL     1      -6.512   7.241  67.210  1.00  0.00    -0.059 A  
HETATM    6  C   UNL     1      -7.894   6.969  67.154  1.00  0.00    -0.109 A  
HETATM    7  C   UNL     1      -7.789   6.277  69.490  1.00  0.00    -0.101 A  
HETATM    8  C   UNL     1      -8.509   6.430  68.296  1.00  0.00    -0.115 A  
ENDROOT
BRANCH   6   9
HETATM    9  C   UNL     1      -8.661   7.273  65.860  1.00  0.00    -0.149 C  
BRANCH   9  10
HETATM   10  N   UNL     1      -9.443   6.092  65.469  1.00  0.00     0.175 NA 
HETATM   11  N   UNL     1     -10.641   5.839  66.048  1.00  0.00     0.081 NA 
HETATM   12  C   UNL     1     -10.974   4.679  65.477  1.00  0.00     0.051 A  
HETATM   13  C   UNL     1      -9.120   5.101  64.589  1.00  0.00     0.031 A  
HETATM   14  N   UNL     1     -10.061   4.185  64.591  1.00  0.00    -0.194 NA 
ENDBRANCH   9  10
BRANCH   9  15
HETATM   15  C   UNL     1      -9.444   8.602  65.792  1.00  0.00    -0.192 A  
HETATM   16  C   UNL     1     -10.753  11.128  65.730  1.00  0.00    -0.252 A  
HETATM   17  C   UNL     1     -10.024   9.161  66.951  1.00  0.00    -0.304 A  
HETATM   18  C   UNL     1     -11.410  12.399  65.696  1.00  0.00    -0.347 C  
HETATM   19  C   UNL     1     -10.150  10.615  64.580  1.00  0.00    -0.417 A  
HETATM   20  C   UNL     1     -10.681  10.397  66.918  1.00  0.00    -0.272 A  
HETATM   21  C   UNL     1      -9.493   9.381  64.617  1.00  0.00    -0.022 A  
HETATM   22  N   UNL     1     -11.942  13.432  65.664  1.00  0.00    -0.377 NA 
ENDBRANCH   9  15
ENDBRANCH   6   9
TORSDOF 3
ENDMDL
MODEL      144
REMARK 921   NORMALIZED FREE ENERGY PREDICTED BY IDOCK:   -2.06 KCAL/MOL
REMARK 922        TOTAL FREE ENERGY PREDICTED BY IDOCK:   -3.12 KCAL/MOL
REMARK 923 INTER-LIGAND FREE ENERGY PREDICTED BY IDOCK:   -2.89 KCAL/MOL
REMARK 924 INTRA-LIGAND FREE ENERGY PREDICTED BY IDOCK:   -0.22 KCAL/MOL
REMARK 927      BINDING AFFINITY PREDICTED BY RF-SCORE:    0.00 PKD
ROOT
HETATM    1  N   UNL     1      -5.133  12.226  71.398  1.00  0.00    -0.249 NA 
HETATM    2  C   UNL     1      -5.986  11.870  70.696  1.00  0.00     0.026 C  
HETATM    3  C   UNL     1      -7.024  11.416  69.814  1.00  0.00     0.033 A  
HETATM    4  C   UNL     1      -7.802  10.306  70.154  1.00  0.00     0.046 A  
HETATM    5  C   UNL     1      -8.754   9.814  69.252  1.00  0.00    -0.165 A  
HETATM    6  C   UNL     1      -8.944  10.417  67.993  1.00  0.00    -0.129 A  
HETATM    7  C   UNL     1      -7.250  12.065  68.596  1.00  0.00    -0.110 A  
HETATM    8  C   UNL     1      -8.218  11.584  67.703  1.00  0.00    -0.131 A  
ENDROOT
BRANCH   6   9
HETATM    9  C   UNL     1      -9.926   9.778  67.002  1.00  0.00    -0.203 C  
BRANCH   9  10
HETATM   10  N   UNL     1     -10.763  10.827  66.402  1.00  0.00    -0.205 NA 
HETATM   11  N   UNL     1     -10.513  11.272  65.148  1.00  0.00    -0.286 NA 
HETATM   12  C   UNL     1     -11.429  12.234  65.018  1.00  0.00    -0.336 A  
HETATM   13  C   UNL     1     -11.801  11.518  66.955  1.00  0.00     0.215 A  
HETATM   14  N   UNL     1     -12.226  12.428  66.109  1.00  0.00    -0.609 NA 
ENDBRANCH   9  10
BRANCH   9  15
HETATM   15  C   UNL     1      -9.353   8.766  65.985  1.00  0.00    -0.296 A  
HETATM   16  C   UNL     1      -8.151   6.912  64.192  1.00  0.00    -0.026 A  
HETATM   17  C   UNL     1      -8.556   9.198  64.905  1.00  0.00    -0.208 A  
HETATM   18  C   UNL     1      -7.548   5.978  63.292  1.00  0.00    -0.089 C  
HETATM   19  C   UNL     1      -8.902   6.461  65.279  1.00  0.00     0.086 A  
HETATM   20  C   UNL     1      -7.975   8.287  64.013  1.00  0.00    -0.147 A  
HETATM   21  C   UNL     1      -9.479   7.373  66.169  1.00  0.00    -0.076 A  
HETATM   22  N   UNL     1      -7.058   5.216  62.564  1.00  0.00    -0.036 NA 
ENDBRANCH   9  15
ENDBRANCH   6   9
TORSDOF 3
ENDMDL
MODEL      145
REMARK 921   NORMALIZED FREE ENERGY PREDICTED BY IDOCK:   -1.15 KCAL/MOL
REMARK 922        TOTAL FREE ENERGY PREDICTED BY IDOCK:   -2.04 KCAL/MOL
REMARK 923 INTER-LIGAND FREE ENERGY PREDICTED BY IDOCK:   -1.92 KCAL/MOL
REMARK 924 INTRA-LIGAND FREE ENERGY PREDICTED BY IDOCK:   -0.12 KCAL/MOL
REMARK 927      BINDING AFFINITY PREDICTED BY RF-SCORE:    0.00 PKD
ROOT
HETATM    1  N   UNL     1     -13.855   8.496  72.636  1.00  0.00    -0.221 NA 
HETATM    2  C   UNL     1     -13.357   9.238  71.894  1.00  0.00    -0.429 C  
HETATM    3  C   UNL     1     -12.736  10.135  70.962  1.00  0.00    -0.481 A  
HETATM    4  C   UNL     1     -13.518  10.897  70.091  1.00  0.00     0.850 A  
HETATM    5  C   UNL     1     -12.908  11.705  69.124  1.00  0.00     1.134 A  
HETATM    6  C   UNL     1     -11.505  11.765  69.005  1.00  0.00    -0.358 A  
HETATM    7  C   UNL     1     -11.342  10.237  70.900  1.00  0.00    -0.376 A  
HETATM    8  C   UNL     1     -10.731  11.063  69.945  1.00  0.00    -0.055 A  
ENDROOT
BRANCH   6   9
HETATM    9  C   UNL     1     -10.887  12.585  67.864  1.00  0.00    -0.222 C  
BRANCH   9  10
HETATM   10  N   UNL     1     -10.642  13.957  68.329  1.00  0.00    -0.250 NA 
HETATM   11  N   UNL     1     -11.644  14.688  68.871  1.00  0.00    -0.294 NA 
HETATM   12  C   UNL     1     -11.035  15.856  69.091  1.00  0.00    -0.284 A  
HETATM   13  C   UNL     1      -9.498  14.696  68.257  1.00  0.00    -0.211 A  
HETATM   14  N   UNL     1      -9.725  15.907  68.712  1.00  0.00    -0.206 NA 
ENDBRANCH   9  10
BRANCH   9  15
HETATM   15  C   UNL     1      -9.705  11.956  67.095  1.00  0.00    -0.194 A  
HETATM   16  C   UNL     1      -7.471  10.952  65.646  1.00  0.00     0.042 A  
HETATM   17  C   UNL     1      -9.706  11.898  65.686  1.00  0.00    -0.248 A  
HETATM   18  C   UNL     1      -6.347  10.446  64.920  1.00  0.00    -0.086 C  
HETATM   19  C   UNL     1      -7.431  11.037  67.039  1.00  0.00    -0.127 A  
HETATM   20  C   UNL     1      -8.613  11.391  64.972  1.00  0.00     0.320 A  
HETATM   21  C   UNL     1      -8.523  11.547  67.749  1.00  0.00    -0.137 A  
HETATM   22  N   UNL     1      -5.430  10.037  64.334  1.00  0.00    -0.088 NA 
ENDBRANCH   9  15
ENDBRANCH   6   9
TORSDOF 3
ENDMDL
MODEL      146
REMARK 921   NORMALIZED FREE ENERGY PREDICTED BY IDOCK:    0.16 KCAL/MOL
REMARK 922        TOTAL FREE ENERGY PREDICTED BY IDOCK:   -0.50 KCAL/MOL
REMARK 923 INTER-LIGAND FREE ENERGY PREDICTED BY IDOCK:   -0.32 KCAL/MOL
REMARK 924 INTRA-LIGAND FREE ENERGY PREDICTED BY IDOCK:   -0.18 KCAL/MOL
REMARK 927      BINDING AFFINITY PREDICTED BY RF-SCORE:    0.00 PKD
ROOT
HETATM    1  N   UNL     1      -5.727  10.427  65.777  1.00  0.00    -0.086 NA 
HETATM    2  C   UNL     1      -6.029  11.411  66.312  1.00  0.00    -0.044 C  
HETATM    3  C   UNL     1      -6.423  12.616  66.986  1.00  0.00     0.162 A  
HETATM    4  C   UNL     1      -5.811  12.983  68.187  1.00  0.00    -0.093 A  
HETATM    5  C   UNL     1      -6.258  14.112  68.885  1.00  0.00    -0.087 A  
HETATM    6  C   UNL     1      -7.325  14.893  68.400  1.00  0.00    -0.114 A  
HETATM    7  C   UNL     1      -7.437  13.421  66.458  1.00  0.00     1.434 A  
HETATM    8  C   UNL     1      -7.869  14.564  67.147  1.00  0.00    -0.131 A  
ENDROOT
BRANCH   6   9
HETATM    9  C   UNL     1      -7.844  16.059  69.252  1.00  0.00    -0.222 C  
BRANCH   9  10
HETATM   10  N   UNL     1      -7.574  17.327  68.559  1.00  0.00    -0.241 NA 
HETATM   11  N   UNL     1      -6.552  18.122  68.954  1.00  0.00    -0.233 NA 
HETATM   12  C   UNL     1      -6.693  19.166  68.133  1.00  0.00    -0.239 A  
HETATM   13  C   UNL     1      -8.263  17.908  67.535  1.00  0.00    -0.227 A  
HETATM   14  N   UNL     1      -7.740  19.081  67.261  1.00  0.00    -0.236 NA 
ENDBRANCH   9  10
BRANCH   9  15
HETATM   15  C   UNL     1      -9.273  15.942  69.824  1.00  0.00     0.051 A  
HETATM   16  C   UNL     1     -11.929  15.590  70.782  1.00  0.00    -0.420 A  
HETATM   17  C   UNL     1     -10.388  16.389  69.085  1.00  0.00    -0.289 A  
HETATM   18  C   UNL     1     -13.265  15.412  71.265  1.00  0.00    -0.510 C  
HETATM   19  C   UNL     1     -10.844  15.103  71.511  1.00  0.00     0.084 A  
HETATM   20  C   UNL     1     -11.695  16.230  69.561  1.00  0.00    -0.094 A  
HETATM   21  C   UNL     1      -9.540  15.261  71.031  1.00  0.00     1.757 A  
HETATM   22  N   UNL     1     -14.347  15.264  71.661  1.00  0.00    -0.546 NA 
ENDBRANCH   9  15
ENDBRANCH   6   9
TORSDOF 3
ENDMDL
MODEL      147
REMARK 921   NORMALIZED FREE ENERGY PREDICTED BY IDOCK:    0.61 KCAL/MOL
REMARK 922        TOTAL FREE ENERGY PREDICTED BY IDOCK:    0.02 KCAL/MOL
REMARK 923 INTER-LIGAND FREE ENERGY PREDICTED BY IDOCK:    0.46 KCAL/MOL
REMARK 924 INTRA-LIGAND FREE ENERGY PREDICTED BY IDOCK:   -0.44 KCAL/MOL
REMARK 927      BINDING AFFINITY PREDICTED BY RF-SCORE:    0.00 PKD
ROOT
HETATM    1  N   UNL     1     -11.637   9.110  66.722  1.00  0.00     1.988 NA 
HETATM    2  C   UNL     1     -11.237  10.158  67.020  1.00  0.00     0.198 C  
HETATM    3  C   UNL     1     -10.720  11.444  67.394  1.00  0.00    -0.274 A  
HETATM    4  C   UNL     1     -10.291  12.343  66.415  1.00  0.00    -0.255 A  
HETATM    5  C   UNL     1      -9.707  13.560  66.786  1.00  0.00    -0.271 A  
HETATM    6  C   UNL     1      -9.536  13.901  68.142  1.00  0.00    -0.218 A  
HETATM    7  C   UNL     1     -10.619  11.800  68.743  1.00  0.00    -0.234 A  
HETATM    8  C   UNL     1     -10.054  13.029  69.114  1.00  0.00     0.295 A  
ENDROOT
BRANCH   6   9
HETATM    9  C   UNL     1      -8.798  15.200  68.497  1.00  0.00    -0.185 C  
BRANCH   9  10
HETATM   10  N   UNL     1      -7.364  14.918  68.646  1.00  0.00    -0.114 NA 
HETATM   11  N   UNL     1      -6.655  14.396  67.617  1.00  0.00    -0.222 NA 
HETATM   12  C   UNL     1      -5.452  14.239  68.173  1.00  0.00    -0.122 A  
HETATM   13  C   UNL     1      -6.571  15.059  69.747  1.00  0.00    -0.170 A  
HETATM   14  N   UNL     1      -5.363  14.617  69.481  1.00  0.00    -0.091 NA 
ENDBRANCH   9  10
BRANCH   9  15
HETATM   15  C   UNL     1      -9.114  16.452  67.650  1.00  0.00    -0.198 A  
HETATM   16  C   UNL     1      -9.748  18.833  66.228  1.00  0.00    -0.354 A  
HETATM   17  C   UNL     1     -10.435  16.741  67.249  1.00  0.00    -0.310 A  
HETATM   18  C   UNL     1     -10.064  20.032  65.513  1.00  0.00    -0.069 C  
HETATM   19  C   UNL     1      -8.440  18.589  66.651  1.00  0.00    -0.288 A  
HETATM   20  C   UNL     1     -10.746  17.906  66.536  1.00  0.00    -0.122 A  
HETATM   21  C   UNL     1      -8.133  17.425  67.364  1.00  0.00    -0.213 A  
HETATM   22  N   UNL     1     -10.317  21.008  64.935  1.00  0.00     1.691 NA 
ENDBRANCH   9  15
ENDBRANCH   6   9
TORSDOF 3
ENDMDL
MODEL      148
REMARK 921   NORMALIZED FREE ENERGY PREDICTED BY IDOCK:    0.85 KCAL/MOL
REMARK 922        TOTAL FREE ENERGY PREDICTED BY IDOCK:    0.31 KCAL/MOL
REMARK 923 INTER-LIGAND FREE ENERGY PREDICTED BY IDOCK:    0.46 KCAL/MOL
REMARK 924 INTRA-LIGAND FREE ENERGY PREDICTED BY IDOCK:   -0.15 KCAL/MOL
REMARK 927      BINDING AFFINITY PREDICTED BY RF-SCORE:    0.00 PKD
ROOT
HETATM    1  N   UNL     1      -9.199  21.115  72.424  1.00  0.00     2.373 NA 
HETATM    2  C   UNL     1      -9.148  20.535  71.420  1.00  0.00     2.240 C  
HETATM    3  C   UNL     1      -9.085  19.841  70.165  1.00  0.00     1.054 A  
HETATM    4  C   UNL     1      -7.864  19.354  69.691  1.00  0.00     0.211 A  
HETATM    5  C   UNL     1      -7.791  18.754  68.428  1.00  0.00    -0.351 A  
HETATM    6  C   UNL     1      -8.934  18.634  67.612  1.00  0.00    -0.291 A  
HETATM    7  C   UNL     1     -10.239  19.666  69.395  1.00  0.00    -0.118 A  
HETATM    8  C   UNL     1     -10.169  19.047  68.139  1.00  0.00    -0.472 A  
ENDROOT
BRANCH   6   9
HETATM    9  C   UNL     1      -8.782  18.063  66.195  1.00  0.00    -0.088 C  
BRANCH   9  10
HETATM   10  N   UNL     1      -7.353  17.941  65.871  1.00  0.00    -0.502 NA 
HETATM   11  N   UNL     1      -6.782  18.766  64.961  1.00  0.00    -0.501 NA 
HETATM   12  C   UNL     1      -5.535  18.292  64.917  1.00  0.00    -0.070 A  
HETATM   13  C   UNL     1      -6.443  17.035  66.330  1.00  0.00    -0.141 A  
HETATM   14  N   UNL     1      -5.292  17.222  65.727  1.00  0.00    -0.206 NA 
ENDBRANCH   9  10
BRANCH   9  15
HETATM   15  C   UNL     1      -9.621  16.818  65.836  1.00  0.00    -0.211 A  
HETATM   16  C   UNL     1     -11.259  14.551  65.311  1.00  0.00    -0.352 A  
HETATM   17  C   UNL     1      -9.404  15.585  66.487  1.00  0.00    -0.311 A  
HETATM   18  C   UNL     1     -12.084  13.412  65.046  1.00  0.00    -0.401 C  
HETATM   19  C   UNL     1     -11.519  15.771  64.686  1.00  0.00    -0.284 A  
HETATM   20  C   UNL     1     -10.200  14.465  66.219  1.00  0.00    -0.307 A  
HETATM   21  C   UNL     1     -10.723  16.889  64.958  1.00  0.00    -0.057 A  
HETATM   22  N   UNL     1     -12.758  12.491  64.828  1.00  0.00    -0.755 NA 
ENDBRANCH   9  15
ENDBRANCH   6   9
TORSDOF 3
ENDMDL
MODEL      149
REMARK 921   NORMALIZED FREE ENERGY PREDICTED BY IDOCK:    1.73 KCAL/MOL
REMARK 922        TOTAL FREE ENERGY PREDICTED BY IDOCK:    1.34 KCAL/MOL
REMARK 923 INTER-LIGAND FREE ENERGY PREDICTED BY IDOCK:    1.69 KCAL/MOL
REMARK 924 INTRA-LIGAND FREE ENERGY PREDICTED BY IDOCK:   -0.36 KCAL/MOL
REMARK 927      BINDING AFFINITY PREDICTED BY RF-SCORE:    0.00 PKD
ROOT
HETATM    1  N   UNL     1      -9.202  21.187  72.437  1.00  0.00     2.373 NA 
HETATM    2  C   UNL     1      -9.238  20.612  71.430  1.00  0.00     2.326 C  
HETATM    3  C   UNL     1      -9.274  19.921  70.172  1.00  0.00     0.989 A  
HETATM    4  C   UNL     1      -8.206  19.110  69.783  1.00  0.00     0.631 A  
HETATM    5  C   UNL     1      -8.205  18.508  68.518  1.00  0.00    -0.360 A  
HETATM    6  C   UNL     1      -9.269  18.709  67.617  1.00  0.00    -0.300 A  
HETATM    7  C   UNL     1     -10.368  20.074  69.313  1.00  0.00    -0.080 A  
HETATM    8  C   UNL     1     -10.377  19.454  68.056  1.00  0.00    -0.536 A  
ENDROOT
BRANCH   6   9
HETATM    9  C   UNL     1      -9.173  18.112  66.206  1.00  0.00    -0.199 C  
BRANCH   9  10
HETATM   10  N   UNL     1      -7.865  18.446  65.625  1.00  0.00    -0.464 NA 
HETATM   11  N   UNL     1      -6.922  17.488  65.458  1.00  0.00    -0.165 NA 
HETATM   12  C   UNL     1      -5.900  18.201  64.980  1.00  0.00    -0.023 A  
HETATM   13  C   UNL     1      -7.383  19.662  65.238  1.00  0.00     0.075 A  
HETATM   14  N   UNL     1      -6.136  19.538  64.847  1.00  0.00    -0.254 NA 
ENDBRANCH   9  10
BRANCH   9  15
HETATM   15  C   UNL     1      -9.586  16.634  66.029  1.00  0.00    -0.298 A  
HETATM   16  C   UNL     1     -10.241  13.903  65.574  1.00  0.00    -0.348 A  
HETATM   17  C   UNL     1     -10.509  16.254  65.033  1.00  0.00    -0.159 A  
HETATM   18  C   UNL     1     -10.569  12.529  65.347  1.00  0.00    -0.281 C  
HETATM   19  C   UNL     1      -9.294  14.252  66.538  1.00  0.00    -0.292 A  
HETATM   20  C   UNL     1     -10.843  14.911  64.817  1.00  0.00    -0.382 A  
HETATM   21  C   UNL     1      -8.961  15.594  66.749  1.00  0.00    -0.291 A  
HETATM   22  N   UNL     1     -10.831  11.411  65.165  1.00  0.00    -0.269 NA 
ENDBRANCH   9  15
ENDBRANCH   6   9
TORSDOF 3
ENDMDL
MODEL      150
REMARK 921   NORMALIZED FREE ENERGY PREDICTED BY IDOCK:    5.57 KCAL/MOL
REMARK 922        TOTAL FREE ENERGY PREDICTED BY IDOCK:    5.85 KCAL/MOL
REMARK 923 INTER-LIGAND FREE ENERGY PREDICTED BY IDOCK:    6.20 KCAL/MOL
REMARK 924 INTRA-LIGAND FREE ENERGY PREDICTED BY IDOCK:   -0.34 KCAL/MOL
REMARK 927      BINDING AFFINITY PREDICTED BY RF-SCORE:    0.00 PKD
ROOT
HETATM    1  N   UNL     1      -8.164   7.016  66.520  1.00  0.00    -0.110 NA 
HETATM    2  C   UNL     1      -8.151   8.117  66.889  1.00  0.00    -0.104 C  
HETATM    3  C   UNL     1      -8.153   9.472  67.362  1.00  0.00    -0.110 A  
HETATM    4  C   UNL     1      -7.123   9.930  68.187  1.00  0.00    -0.077 A  
HETATM    5  C   UNL     1      -7.172  11.225  68.718  1.00  0.00    -0.104 A  
HETATM    6  C   UNL     1      -8.253  12.085  68.440  1.00  0.00    -0.151 A  
HETATM    7  C   UNL     1      -9.197  10.338  67.023  1.00  0.00    -0.169 A  
HETATM    8  C   UNL     1      -9.235  11.642  67.538  1.00  0.00    -0.172 A  
ENDROOT
BRANCH   6   9
HETATM    9  C   UNL     1      -8.311  13.455  69.128  1.00  0.00     0.510 C  
BRANCH   9  10
HETATM   10  N   UNL     1      -8.063  14.510  68.134  1.00  0.00    -0.129 NA 
HETATM   11  N   UNL     1      -7.129  15.463  68.362  1.00  0.00    -0.108 NA 
HETATM   12  C   UNL     1      -7.265  16.234  67.281  1.00  0.00    -0.188 A  
HETATM   13  C   UNL     1      -8.699  14.739  66.949  1.00  0.00    -0.236 A  
HETATM   14  N   UNL     1      -8.228  15.835  66.400  1.00  0.00    -0.244 NA 
ENDBRANCH   9  10
BRANCH   9  15
HETATM   15  C   UNL     1      -9.511  13.733  70.060  1.00  0.00     2.158 A  
HETATM   16  C   UNL     1     -11.814  14.275  71.641  1.00  0.00    -0.033 A  
HETATM   17  C   UNL     1      -9.903  15.054  70.362  1.00  0.00     0.449 A  
HETATM   18  C   UNL     1     -12.972  14.545  72.436  1.00  0.00    -0.386 C  
HETATM   19  C   UNL     1     -11.469  12.961  71.321  1.00  0.00     2.052 A  
HETATM   20  C   UNL     1     -11.028  15.322  71.152  1.00  0.00    -0.249 A  
HETATM   21  C   UNL     1     -10.346  12.697  70.530  1.00  0.00     3.779 A  
HETATM   22  N   UNL     1     -13.915  14.760  73.081  1.00  0.00    -0.179 NA 
ENDBRANCH   9  15
ENDBRANCH   6   9
TORSDOF 3
ENDMDL
MODEL      151
REMARK 921   NORMALIZED FREE ENERGY PREDICTED BY IDOCK:    6.43 KCAL/MOL
REMARK 922        TOTAL FREE ENERGY PREDICTED BY IDOCK:    6.86 KCAL/MOL
REMARK 923 INTER-LIGAND FREE ENERGY PREDICTED BY IDOCK:    6.97 KCAL/MOL
REMARK 924 INTRA-LIGAND FREE ENERGY PREDICTED BY IDOCK:   -0.11 KCAL/MOL
REMARK 927      BINDING AFFINITY PREDICTED BY RF-SCORE:    0.00 PKD
ROOT
HETATM    1  N   UNL     1      -9.999  12.776  62.735  1.00  0.00     1.396 NA 
HETATM    2  C   UNL     1      -9.985  12.907  63.888  1.00  0.00     0.161 C  
HETATM    3  C   UNL     1      -9.950  13.053  65.316  1.00  0.00    -0.186 A  
HETATM    4  C   UNL     1      -9.235  14.101  65.900  1.00  0.00     0.093 A  
HETATM    5  C   UNL     1      -9.130  14.190  67.293  1.00  0.00    -0.218 A  
HETATM    6  C   UNL     1      -9.734  13.231  68.131  1.00  0.00    -0.227 A  
HETATM    7  C   UNL     1     -10.611  12.133  66.137  1.00  0.00    -0.290 A  
HETATM    8  C   UNL     1     -10.524  12.235  67.533  1.00  0.00    -0.230 A  
ENDROOT
BRANCH   6   9
HETATM    9  C   UNL     1      -9.504  13.314  69.646  1.00  0.00     1.675 C  
BRANCH   9  10
HETATM   10  N   UNL     1      -8.151  13.825  69.905  1.00  0.00     1.212 NA 
HETATM   11  N   UNL     1      -7.928  15.156  70.011  1.00  0.00     0.102 NA 
HETATM   12  C   UNL     1      -6.603  15.193  70.174  1.00  0.00    -0.096 A  
HETATM   13  C   UNL     1      -6.980  13.135  70.017  1.00  0.00     0.627 A  
HETATM   14  N   UNL     1      -5.983  13.977  70.167  1.00  0.00    -0.140 NA 
ENDBRANCH   9  10
BRANCH   9  15
HETATM   15  C   UNL     1     -10.607  13.981  70.497  1.00  0.00     1.268 A  
HETATM   16  C   UNL     1     -12.582  15.358  72.012  1.00  0.00    -0.448 A  
HETATM   17  C   UNL     1     -10.307  14.554  71.750  1.00  0.00     2.916 A  
HETATM   18  C   UNL     1     -13.578  16.051  72.773  1.00  0.00    -0.387 C  
HETATM   19  C   UNL     1     -12.892  14.835  70.756  1.00  0.00    -0.418 A  
HETATM   20  C   UNL     1     -11.282  15.220  72.504  1.00  0.00    -0.112 A  
HETATM   21  C   UNL     1     -11.915  14.173  70.005  1.00  0.00    -0.404 A  
HETATM   22  N   UNL     1     -14.389  16.614  73.386  1.00  0.00     0.677 NA 
ENDBRANCH   9  15
ENDBRANCH   6   9
TORSDOF 3
ENDMDL
MODEL      152
REMARK 921   NORMALIZED FREE ENERGY PREDICTED BY IDOCK:   10.83 KCAL/MOL
REMARK 922        TOTAL FREE ENERGY PREDICTED BY IDOCK:   12.03 KCAL/MOL
REMARK 923 INTER-LIGAND FREE ENERGY PREDICTED BY IDOCK:   11.19 KCAL/MOL
REMARK 924 INTRA-LIGAND FREE ENERGY PREDICTED BY IDOCK:    0.84 KCAL/MOL
REMARK 927      BINDING AFFINITY PREDICTED BY RF-SCORE:    0.00 PKD
ROOT
HETATM    1  N   UNL     1     -13.633  18.679  68.035  1.00  0.00     8.233 NA 
HETATM    2  C   UNL     1     -12.612  18.139  67.924  1.00  0.00     5.574 C  
HETATM    3  C   UNL     1     -11.354  17.458  67.808  1.00  0.00     0.370 A  
HETATM    4  C   UNL     1     -11.237  16.328  66.995  1.00  0.00     0.141 A  
HETATM    5  C   UNL     1     -10.032  15.616  66.953  1.00  0.00    -0.252 A  
HETATM    6  C   UNL     1      -8.923  16.015  67.725  1.00  0.00    -0.188 A  
HETATM    7  C   UNL     1     -10.240  17.904  68.527  1.00  0.00    -0.393 A  
HETATM    8  C   UNL     1      -9.027  17.203  68.467  1.00  0.00    -0.265 A  
ENDROOT
BRANCH   6   9
HETATM    9  C   UNL     1      -7.660  15.143  67.722  1.00  0.00    -0.155 C  
BRANCH   9  10
HETATM   10  N   UNL     1      -6.725  15.638  68.742  1.00  0.00    -0.112 NA 
HETATM   11  N   UNL     1      -6.220  16.891  68.660  1.00  0.00    -0.149 NA 
HETATM   12  C   UNL     1      -5.391  16.915  69.707  1.00  0.00    -0.174 A  
HETATM   13  C   UNL     1      -6.198  14.981  69.815  1.00  0.00    -0.143 A  
HETATM   14  N   UNL     1      -5.336  15.758  70.429  1.00  0.00    -0.154 NA 
ENDBRANCH   9  10
BRANCH   9  15
HETATM   15  C   UNL     1      -7.854  13.610  67.731  1.00  0.00    -0.172 A  
HETATM   16  C   UNL     1      -8.231  10.794  67.581  1.00  0.00    -0.115 A  
HETATM   17  C   UNL     1      -9.143  13.043  67.651  1.00  0.00    -0.198 A  
HETATM   18  C   UNL     1      -8.418   9.378  67.506  1.00  0.00    -0.122 C  
HETATM   19  C   UNL     1      -6.945  11.335  67.618  1.00  0.00    -0.085 A  
HETATM   20  C   UNL     1      -9.331  11.656  67.592  1.00  0.00    -0.178 A  
HETATM   21  C   UNL     1      -6.761  12.720  67.674  1.00  0.00    -0.147 A  
HETATM   22  N   UNL     1      -8.565   8.226  67.444  1.00  0.00    -0.124 NA 
ENDBRANCH   9  15
ENDBRANCH   6   9
TORSDOF 3
ENDMDL
MODEL      153
REMARK 921   NORMALIZED FREE ENERGY PREDICTED BY IDOCK:   14.58 KCAL/MOL
REMARK 922        TOTAL FREE ENERGY PREDICTED BY IDOCK:   16.44 KCAL/MOL
REMARK 923 INTER-LIGAND FREE ENERGY PREDICTED BY IDOCK:   16.50 KCAL/MOL
REMARK 924 INTRA-LIGAND FREE ENERGY PREDICTED BY IDOCK:   -0.06 KCAL/MOL
REMARK 927      BINDING AFFINITY PREDICTED BY RF-SCORE:    0.00 PKD
ROOT
HETATM    1  N   UNL     1      -9.231  15.227  73.069  1.00  0.00     7.686 NA 
HETATM    2  C   UNL     1      -9.416  14.716  72.044  1.00  0.00     5.520 C  
HETATM    3  C   UNL     1      -9.651  14.107  70.765  1.00  0.00     3.430 A  
HETATM    4  C   UNL     1      -8.581  13.822  69.914  1.00  0.00     1.875 A  
HETATM    5  C   UNL     1      -8.820  13.308  68.633  1.00  0.00     0.038 A  
HETATM    6  C   UNL     1     -10.133  13.074  68.177  1.00  0.00    -0.237 A  
HETATM    7  C   UNL     1     -10.954  13.815  70.350  1.00  0.00     0.693 A  
HETATM    8  C   UNL     1     -11.192  13.281  69.076  1.00  0.00    -0.320 A  
ENDROOT
BRANCH   6   9
HETATM    9  C   UNL     1     -10.347  12.609  66.730  1.00  0.00    -0.235 C  
BRANCH   9  10
HETATM   10  N   UNL     1     -10.770  13.752  65.909  1.00  0.00    -0.282 NA 
HETATM   11  N   UNL     1      -9.983  14.849  65.802  1.00  0.00    -0.326 NA 
HETATM   12  C   UNL     1     -10.741  15.648  65.046  1.00  0.00    -0.436 A  
HETATM   13  C   UNL     1     -11.934  13.931  65.221  1.00  0.00    -0.375 A  
HETATM   14  N   UNL     1     -11.950  15.129  64.684  1.00  0.00    -0.352 NA 
ENDBRANCH   9  10
BRANCH   9  15
HETATM   15  C   UNL     1      -9.239  11.744  66.090  1.00  0.00    -0.218 A  
HETATM   16  C   UNL     1      -7.209  10.247  64.773  1.00  0.00    -0.092 A  
HETATM   17  C   UNL     1      -9.556  10.739  65.153  1.00  0.00    -0.295 A  
HETATM   18  C   UNL     1      -6.186   9.496  64.112  1.00  0.00    -0.097 C  
HETATM   19  C   UNL     1      -6.870  11.266  65.665  1.00  0.00     0.413 A  
HETATM   20  C   UNL     1      -8.558   9.991  64.515  1.00  0.00    -0.197 A  
HETATM   21  C   UNL     1      -7.870  12.012  66.299  1.00  0.00     0.365 A  
HETATM   22  N   UNL     1      -5.352   8.889  63.576  1.00  0.00    -0.062 NA 
ENDBRANCH   9  15
ENDBRANCH   6   9
TORSDOF 3
ENDMDL
MODEL      154
REMARK 921   NORMALIZED FREE ENERGY PREDICTED BY IDOCK:   15.09 KCAL/MOL
REMARK 922        TOTAL FREE ENERGY PREDICTED BY IDOCK:   17.04 KCAL/MOL
REMARK 923 INTER-LIGAND FREE ENERGY PREDICTED BY IDOCK:   17.36 KCAL/MOL
REMARK 924 INTRA-LIGAND FREE ENERGY PREDICTED BY IDOCK:   -0.32 KCAL/MOL
REMARK 927      BINDING AFFINITY PREDICTED BY RF-SCORE:    0.00 PKD
ROOT
HETATM    1  N   UNL     1     -14.041  18.780  68.336  1.00  0.00    10.456 NA 
HETATM    2  C   UNL     1     -12.969  18.496  67.994  1.00  0.00     7.844 C  
HETATM    3  C   UNL     1     -11.643  18.126  67.589  1.00  0.00     1.260 A  
HETATM    4  C   UNL     1     -11.452  17.264  66.506  1.00  0.00     1.265 A  
HETATM    5  C   UNL     1     -10.162  16.836  66.169  1.00  0.00    -0.363 A  
HETATM    6  C   UNL     1      -9.038  17.258  66.908  1.00  0.00    -0.250 A  
HETATM    7  C   UNL     1     -10.531  18.605  68.288  1.00  0.00    -0.315 A  
HETATM    8  C   UNL     1      -9.237  18.194  67.936  1.00  0.00    -0.273 A  
ENDROOT
BRANCH   6   9
HETATM    9  C   UNL     1      -7.659  16.680  66.562  1.00  0.00    -0.292 C  
BRANCH   9  10
HETATM   10  N   UNL     1      -6.699  17.780  66.397  1.00  0.00    -0.219 NA 
HETATM   11  N   UNL     1      -6.439  18.288  65.169  1.00  0.00    -0.388 NA 
HETATM   12  C   UNL     1      -5.496  19.191  65.447  1.00  0.00    -0.167 A  
HETATM   13  C   UNL     1      -5.926  18.394  67.339  1.00  0.00    -0.164 A  
HETATM   14  N   UNL     1      -5.142  19.275  66.762  1.00  0.00    -0.153 NA 
ENDBRANCH   9  10
BRANCH   9  15
HETATM   15  C   UNL     1      -7.140  15.511  67.427  1.00  0.00    -0.235 A  
HETATM   16  C   UNL     1      -6.160  13.465  69.144  1.00  0.00    -0.093 A  
HETATM   17  C   UNL     1      -5.757  15.309  67.617  1.00  0.00    -0.078 A  
HETATM   18  C   UNL     1      -5.669  12.436  70.009  1.00  0.00    -0.141 C  
HETATM   19  C   UNL     1      -7.533  13.673  69.004  1.00  0.00     0.021 A  
HETATM   20  C   UNL     1      -5.273  14.293  68.451  1.00  0.00    -0.105 A  
HETATM   21  C   UNL     1      -8.013  14.690  68.172  1.00  0.00    -0.136 A  
HETATM   22  N   UNL     1      -5.275  11.600  70.713  1.00  0.00    -0.122 NA 
ENDBRANCH   9  15
ENDBRANCH   6   9
TORSDOF 3
ENDMDL
MODEL      155
REMARK 921   NORMALIZED FREE ENERGY PREDICTED BY IDOCK:   30.77 KCAL/MOL
REMARK 922        TOTAL FREE ENERGY PREDICTED BY IDOCK:   35.47 KCAL/MOL
REMARK 923 INTER-LIGAND FREE ENERGY PREDICTED BY IDOCK:   35.30 KCAL/MOL
REMARK 924 INTRA-LIGAND FREE ENERGY PREDICTED BY IDOCK:    0.17 KCAL/MOL
REMARK 927      BINDING AFFINITY PREDICTED BY RF-SCORE:    0.00 PKD
ROOT
HETATM    1  N   UNL     1      -6.406  16.722  70.636  1.00  0.00     0.688 NA 
HETATM    2  C   UNL     1      -7.259  15.935  70.615  1.00  0.00     1.574 C  
HETATM    3  C   UNL     1      -8.314  14.963  70.564  1.00  0.00     1.449 A  
HETATM    4  C   UNL     1      -8.019  13.599  70.628  1.00  0.00     3.783 A  
HETATM    5  C   UNL     1      -9.042  12.652  70.490  1.00  0.00     6.751 A  
HETATM    6  C   UNL     1     -10.377  13.049  70.280  1.00  0.00     2.557 A  
HETATM    7  C   UNL     1      -9.645  15.371  70.424  1.00  0.00     0.556 A  
HETATM    8  C   UNL     1     -10.671  14.423  70.307  1.00  0.00     0.290 A  
ENDROOT
BRANCH   6   9
HETATM    9  C   UNL     1     -11.444  11.974  70.032  1.00  0.00    -0.101 C  
BRANCH   9  10
HETATM   10  N   UNL     1     -12.394  12.456  69.019  1.00  0.00     0.054 NA 
HETATM   11  N   UNL     1     -13.295  13.419  69.326  1.00  0.00     2.224 NA 
HETATM   12  C   UNL     1     -13.984  13.513  68.186  1.00  0.00    10.255 A  
HETATM   13  C   UNL     1     -12.570  12.030  67.735  1.00  0.00     1.742 A  
HETATM   14  N   UNL     1     -13.582  12.667  67.193  1.00  0.00     5.292 NA 
ENDBRANCH   9  10
BRANCH   9  15
HETATM   15  C   UNL     1     -10.956  10.526  69.804  1.00  0.00    -0.350 A  
HETATM   16  C   UNL     1      -9.901   7.912  69.421  1.00  0.00    -0.180 A  
HETATM   17  C   UNL     1     -10.325  10.156  68.598  1.00  0.00    -0.208 A  
HETATM   18  C   UNL     1      -9.371   6.596  69.230  1.00  0.00    -0.142 C  
HETATM   19  C   UNL     1     -10.484   8.268  70.638  1.00  0.00    -0.224 A  
HETATM   20  C   UNL     1      -9.818   8.865  68.402  1.00  0.00    -0.191 A  
HETATM   21  C   UNL     1     -10.987   9.559  70.831  1.00  0.00    -0.407 A  
HETATM   22  N   UNL     1      -8.941   5.527  69.080  1.00  0.00    -0.108 NA 
ENDBRANCH   9  15
ENDBRANCH   6   9
TORSDOF 3
ENDMDL
